MODEL 1
REMARK VINA RESULT:      -5.8      0.000      0.000
REMARK  1 active torsions:
REMARK  status: ('A' for Active; 'I' for Inactive)
REMARK    1  A    between atoms: C_2  and  C_1 
ROOT
ATOM      1  C   UNL d   1      55.591   0.023  33.338  0.00  0.00     0.067 A 
ATOM      2  C   UNL d   1      56.490   0.060  32.231  0.00  0.00     0.123 A 
ATOM      3  C   UNL d   1      56.048   0.459  32.804  0.00  0.00     0.033 A 
ATOM      4  C   UNL d   1      56.476  -0.764  32.193  0.00  0.00     0.123 A 
ATOM      5  O   UNL d   1      56.950   0.496  31.694  0.00  0.00    -0.301 OA
ATOM      6  O   UNL d   1      56.922  -1.158  31.616  0.00  0.00    -0.301 OA
ATOM      7  C   UNL d   1      55.577  -0.801  33.299  0.00  0.00     0.008 A 
ATOM      8  C   UNL d   1      56.019  -1.195  32.726  0.00  0.00     0.027 A 
ATOM      9  C   UNL d   1      57.395   0.097  31.118  0.00  0.00     0.149 A 
ATOM     10  C   UNL d   1      57.381  -0.727  31.079  0.00  0.00     0.149 A 
ENDROOT
BRANCH   1  11
ATOM     11  C   UNL d   1      55.149   0.422  33.910  0.00  0.00     0.211 C 
ATOM     12  O   UNL d   1      55.434   0.603  34.663  0.00  0.00    -0.644 OA
ATOM     13  O   UNL d   1      54.374   0.682  33.788  0.00  0.00    -0.644 OA
ENDBRANCH   1  11
TORSDOF 1
ENDMDL
MODEL 2
REMARK VINA RESULT:      -5.0      1.037      2.803
REMARK  1 active torsions:
REMARK  status: ('A' for Active; 'I' for Inactive)
REMARK    1  A    between atoms: C_2  and  C_1 
ROOT
ATOM      1  C   UNL d   1      57.072  -0.015  31.518  0.00  0.00     0.067 A 
ATOM      2  C   UNL d   1      56.133   0.173  32.575  0.00  0.00     0.123 A 
ATOM      3  C   UNL d   1      56.635   0.494  32.002  0.00  0.00     0.033 A 
ATOM      4  C   UNL d   1      56.068  -0.645  32.662  0.00  0.00     0.123 A 
ATOM      5  O   UNL d   1      55.692   0.682  33.062  0.00  0.00    -0.301 OA
ATOM      6  O   UNL d   1      55.562  -0.959  33.238  0.00  0.00    -0.301 OA
ATOM      7  C   UNL d   1      57.007  -0.832  31.606  0.00  0.00     0.008 A 
ATOM      8  C   UNL d   1      56.505  -1.148  32.178  0.00  0.00     0.027 A 
ATOM      9  C   UNL d   1      55.187   0.362  33.638  0.00  0.00     0.149 A 
ATOM     10  C   UNL d   1      55.122  -0.456  33.725  0.00  0.00     0.149 A 
ENDROOT
BRANCH   1  11
ATOM     11  C   UNL d   1      57.574   0.306  30.946  0.00  0.00     0.211 C 
ATOM     12  O   UNL d   1      58.313   0.630  31.117  0.00  0.00    -0.644 OA
ATOM     13  O   UNL d   1      57.388   0.334  30.141  0.00  0.00    -0.644 OA
ENDBRANCH   1  11
TORSDOF 1
ENDMDL
MODEL 3
REMARK VINA RESULT:      -4.8      1.087      1.808
REMARK  1 active torsions:
REMARK  status: ('A' for Active; 'I' for Inactive)
REMARK    1  A    between atoms: C_2  and  C_1 
ROOT
ATOM      1  C   UNL d   1      56.367  -0.578  32.552  0.00  0.00     0.067 A 
ATOM      2  C   UNL d   1      57.199  -0.456  31.401  0.00  0.00     0.123 A 
ATOM      3  C   UNL d   1      56.636  -0.880  31.832  0.00  0.00     0.033 A 
ATOM      4  C   UNL d   1      57.490   0.261  31.687  0.00  0.00     0.123 A 
ATOM      5  O   UNL d   1      57.471  -0.757  30.676  0.00  0.00    -0.301 OA
ATOM      6  O   UNL d   1      58.054   0.682  31.251  0.00  0.00    -0.301 OA
ATOM      7  C   UNL d   1      56.658   0.139  32.839  0.00  0.00     0.008 A 
ATOM      8  C   UNL d   1      57.219   0.559  32.406  0.00  0.00     0.027 A 
ATOM      9  C   UNL d   1      58.037  -0.332  30.242  0.00  0.00     0.149 A 
ATOM     10  C   UNL d   1      58.327   0.385  30.528  0.00  0.00     0.149 A 
ENDROOT
BRANCH   1  11
ATOM     11  C   UNL d   1      55.804  -1.003  32.983  0.00  0.00     0.211 C 
ATOM     12  O   UNL d   1      55.135  -0.659  33.323  0.00  0.00    -0.644 OA
ATOM     13  O   UNL d   1      55.852  -1.816  33.118  0.00  0.00    -0.644 OA
ENDBRANCH   1  11
TORSDOF 1
ENDMDL
MODEL 4
REMARK VINA RESULT:      -4.1      1.000      1.398
REMARK  1 active torsions:
REMARK  status: ('A' for Active; 'I' for Inactive)
REMARK    1  A    between atoms: C_2  and  C_1 
ROOT
ATOM      1  C   UNL d   1      56.581  -0.113  32.397  0.00  0.00     0.067 A 
ATOM      2  C   UNL d   1      57.395   0.146  31.255  0.00  0.00     0.123 A 
ATOM      3  C   UNL d   1      56.998   0.422  31.926  0.00  0.00     0.033 A 
ATOM      4  C   UNL d   1      57.374  -0.655  31.059  0.00  0.00     0.123 A 
ATOM      5  O   UNL d   1      57.814   0.682  30.780  0.00  0.00    -0.301 OA
ATOM      6  O   UNL d   1      57.774  -0.926  30.386  0.00  0.00    -0.301 OA
ATOM      7  C   UNL d   1      56.561  -0.914  32.201  0.00  0.00     0.008 A 
ATOM      8  C   UNL d   1      56.958  -1.186  31.532  0.00  0.00     0.027 A 
ATOM      9  C   UNL d   1      58.213   0.406  30.106  0.00  0.00     0.149 A 
ATOM     10  C   UNL d   1      58.193  -0.395  29.910  0.00  0.00     0.149 A 
ENDROOT
BRANCH   1  11
ATOM     11  C   UNL d   1      56.184   0.163  33.068  0.00  0.00     0.211 C 
ATOM     12  O   UNL d   1      56.568   0.428  33.748  0.00  0.00    -0.644 OA
ATOM     13  O   UNL d   1      55.361   0.203  33.125  0.00  0.00    -0.644 OA
ENDBRANCH   1  11
TORSDOF 1
ENDMDL
MODEL 5
REMARK VINA RESULT:      -2.9      9.739     10.182
REMARK  1 active torsions:
REMARK  status: ('A' for Active; 'I' for Inactive)
REMARK    1  A    between atoms: C_2  and  C_1 
ROOT
ATOM      1  C   UNL d   1      59.512  -9.438  33.882  0.00  0.00     0.067 A 
ATOM      2  C   UNL d   1      60.316  -8.680  34.784  0.00  0.00     0.123 A 
ATOM      3  C   UNL d   1      60.096  -8.866  34.009  0.00  0.00     0.033 A 
ATOM      4  C   UNL d   1      59.957  -9.059  35.422  0.00  0.00     0.123 A 
ATOM      5  O   UNL d   1      60.902  -8.106  34.914  0.00  0.00    -0.301 OA
ATOM      6  O   UNL d   1      60.182  -8.868  36.196  0.00  0.00    -0.301 OA
ATOM      7  C   UNL d   1      59.154  -9.817  34.521  0.00  0.00     0.008 A 
ATOM      8  C   UNL d   1      59.376  -9.628  35.291  0.00  0.00     0.027 A 
ATOM      9  C   UNL d   1      61.125  -7.917  35.691  0.00  0.00     0.149 A 
ATOM     10  C   UNL d   1      60.766  -8.297  36.330  0.00  0.00     0.149 A 
ENDROOT
BRANCH   1  11
ATOM     11  C   UNL d   1      59.292  -9.624  33.107  0.00  0.00     0.211 C 
ATOM     12  O   UNL d   1      58.510  -9.637  32.846  0.00  0.00    -0.644 OA
ATOM     13  O   UNL d   1      59.834  -9.818  32.514  0.00  0.00    -0.644 OA
ENDBRANCH   1  11
TORSDOF 1
ENDMDL
MODEL 6
REMARK VINA RESULT:      -2.8      3.473      5.218
REMARK  1 active torsions:
REMARK  status: ('A' for Active; 'I' for Inactive)
REMARK    1  A    between atoms: C_2  and  C_1 
ROOT
ATOM      1  C   UNL d   1      58.990  -2.229  29.025  0.00  0.00     0.067 A 
ATOM      2  C   UNL d   1      58.458  -1.036  29.597  0.00  0.00     0.123 A 
ATOM      3  C   UNL d   1      58.524  -1.859  29.599  0.00  0.00     0.033 A 
ATOM      4  C   UNL d   1      58.852  -0.587  29.028  0.00  0.00     0.123 A 
ATOM      5  O   UNL d   1      57.990  -0.662  30.173  0.00  0.00    -0.301 OA
ATOM      6  O   UNL d   1      58.782   0.238  29.031  0.00  0.00    -0.301 OA
ATOM      7  C   UNL d   1      59.384  -1.780  28.456  0.00  0.00     0.008 A 
ATOM      8  C   UNL d   1      59.316  -0.959  28.457  0.00  0.00     0.027 A 
ATOM      9  C   UNL d   1      57.923   0.165  30.172  0.00  0.00     0.149 A 
ATOM     10  C   UNL d   1      58.317   0.614  29.603  0.00  0.00     0.149 A 
ENDROOT
BRANCH   1  11
ATOM     11  C   UNL d   1      59.056  -3.052  29.027  0.00  0.00     0.211 C 
ATOM     12  O   UNL d   1      58.429  -3.561  28.859  0.00  0.00    -0.644 OA
ATOM     13  O   UNL d   1      59.758  -3.452  29.198  0.00  0.00    -0.644 OA
ENDBRANCH   1  11
TORSDOF 1
ENDMDL
