MODEL 1
REMARK VINA RESULT:      74.3      0.000      0.000
REMARK  5 active torsions:
REMARK  status: ('A' for Active; 'I' for Inactive)
REMARK    1  A    between atoms: O_8  and  C_2 
REMARK    2  A    between atoms: C_11  and  C_5 
REMARK    3  A    between atoms: C_15  and  O_8 
REMARK    4  A    between atoms: N_14  and  C_11 
REMARK    5  A    between atoms: O_23  and  C_16 
ROOT
ATOM      1  C   UNL d   1      61.128  47.582  50.408  0.00  0.00     0.108 A 
ATOM      2  C   UNL d   1      60.266  48.963  50.738  0.00  0.00     0.161 A 
ATOM      3  C   UNL d   1      60.624  47.612  51.075  0.00  0.00     0.064 A 
ATOM      4  C   UNL d   1      60.197  48.295  51.239  0.00  0.00     0.222 A 
ATOM      5  C   UNL d   1      61.560  46.891  50.243  0.00  0.00     0.079 A 
ATOM      6  O   UNL d   1      61.203  48.238  49.907  0.00  0.00    -0.305 OA
ATOM      7  C   UNL d   1      60.766  48.934  50.077  0.00  0.00     0.126 A 
ATOM      8  C   UNL d   1      60.562  46.943  51.567  0.00  0.00     0.009 A 
ATOM      9  C   UNL d   1      61.487  46.235  50.741  0.00  0.00     0.199 A 
ATOM     10  O   UNL d   1      59.698  48.328  51.896  0.00  0.00    -0.284 OA
ATOM     11  C   UNL d   1      60.991  46.261  51.400  0.00  0.00     0.042 A 
ATOM     12  O   UNL d   1      61.921  45.552  50.568  0.00  0.00    -0.286 OA
ATOM     13  C   UNL d   1      60.833  49.590  49.585  0.00  0.00     0.029 C 
ENDROOT
BRANCH   2  14
ATOM     14  O   UNL d   1      59.837  49.645  50.904  0.00  0.00    -0.302 OA
BRANCH  14  15
ATOM     15  C   UNL d   1      59.024  49.660  50.778  0.00  0.00     0.100 A 
ATOM     16  C   UNL d   1      58.731  49.693  50.007  0.00  0.00     0.027 A 
ATOM     17  C   UNL d   1      57.924  49.708  49.877  0.00  0.00     0.026 A 
ATOM     18  C   UNL d   1      57.397  49.691  50.523  0.00  0.00     0.094 A 
ATOM     19  C   UNL d   1      57.695  49.658  51.292  0.00  0.00     0.026 A 
ATOM     20  C   UNL d   1      58.508  49.643  51.419  0.00  0.00     0.027 A 
BRANCH  18  21
ATOM     21  O   UNL d   1      56.584  49.706  50.396  0.00  0.00    -0.328 OA
ATOM     22  C   UNL d   1      56.279  49.472  49.665  0.00  0.00     0.181 C 
ENDBRANCH  18  21
ENDBRANCH  14  15
ENDBRANCH   2  14
BRANCH   5  23
ATOM     23  C   UNL d   1      62.056  46.866  49.585  0.00  0.00     0.086 C 
BRANCH  23  24
ATOM     24  N   UNL d   1      62.256  46.143  49.257  0.00  0.00    -0.300 N 
ATOM     25  C   UNL d   1      61.688  45.705  48.849  0.00  0.00     0.100 C 
ATOM     26  C   UNL d   1      63.025  45.846  49.332  0.00  0.00     0.100 C 
ENDBRANCH  23  24
ENDBRANCH   5  23
TORSDOF 5
ENDMDL
MODEL 2
REMARK VINA RESULT:      76.6      1.894      4.727
REMARK  5 active torsions:
REMARK  status: ('A' for Active; 'I' for Inactive)
REMARK    1  A    between atoms: O_8  and  C_2 
REMARK    2  A    between atoms: C_11  and  C_5 
REMARK    3  A    between atoms: C_15  and  O_8 
REMARK    4  A    between atoms: N_14  and  C_11 
REMARK    5  A    between atoms: O_23  and  C_16 
ROOT
ATOM      1  C   UNL d   1      57.950  49.675  50.564  0.00  0.00     0.108 A 
ATOM      2  C   UNL d   1      59.587  49.683  50.850  0.00  0.00     0.161 A 
ATOM      3  C   UNL d   1      58.488  49.669  49.922  0.00  0.00     0.064 A 
ATOM      4  C   UNL d   1      59.298  49.673  50.063  0.00  0.00     0.222 A 
ATOM      5  C   UNL d   1      57.132  49.672  50.421  0.00  0.00     0.079 A 
ATOM      6  O   UNL d   1      58.226  49.685  51.346  0.00  0.00    -0.305 OA
ATOM      7  C   UNL d   1      59.054  49.689  51.486  0.00  0.00     0.126 A 
ATOM      8  C   UNL d   1      58.192  49.660  49.145  0.00  0.00     0.009 A 
ATOM      9  C   UNL d   1      56.853  49.662  49.642  0.00  0.00     0.199 A 
ATOM     10  O   UNL d   1      59.831  49.667  49.434  0.00  0.00    -0.284 OA
ATOM     11  C   UNL d   1      57.380  49.656  49.007  0.00  0.00     0.042 A 
ATOM     12  O   UNL d   1      56.035  49.658  49.510  0.00  0.00    -0.286 OA
ATOM     13  C   UNL d   1      59.338  49.698  52.258  0.00  0.00     0.029 C 
ENDROOT
BRANCH   2  14
ATOM     14  O   UNL d   1      60.398  49.686  50.988  0.00  0.00    -0.302 OA
BRANCH  14  15
ATOM     15  C   UNL d   1      60.782  48.989  51.197  0.00  0.00     0.100 A 
ATOM     16  C   UNL d   1      60.685  48.681  51.957  0.00  0.00     0.027 A 
ATOM     17  C   UNL d   1      61.065  47.989  52.168  0.00  0.00     0.026 A 
ATOM     18  C   UNL d   1      61.550  47.594  51.616  0.00  0.00     0.094 A 
ATOM     19  C   UNL d   1      61.643  47.905  50.858  0.00  0.00     0.026 A 
ATOM     20  C   UNL d   1      61.259  48.603  50.649  0.00  0.00     0.027 A 
BRANCH  18  21
ATOM     21  O   UNL d   1      61.933  46.896  51.826  0.00  0.00    -0.328 OA
ATOM     22  C   UNL d   1      61.777  46.546  52.557  0.00  0.00     0.181 C 
ENDBRANCH  18  21
ENDBRANCH  14  15
ENDBRANCH   2  14
BRANCH   5  23
ATOM     23  C   UNL d   1      56.605  49.677  51.055  0.00  0.00     0.086 C 
BRANCH  23  24
ATOM     24  N   UNL d   1      56.725  49.169  51.685  0.00  0.00    -0.300 N 
ATOM     25  C   UNL d   1      56.372  48.423  51.685  0.00  0.00     0.100 C 
ATOM     26  C   UNL d   1      57.199  49.397  52.324  0.00  0.00     0.100 C 
ENDBRANCH  23  24
ENDBRANCH   5  23
TORSDOF 5
ENDMDL
