MODEL 1
REMARK VINA RESULT:      -5.6      0.000      0.000
REMARK  2 active torsions:
REMARK  status: ('A' for Active; 'I' for Inactive)
REMARK    1  A    between atoms: C_6  and  C_1 
REMARK    2  A    between atoms: O_12  and  C_9 
ROOT
ATOM      1  C   UNL d   1      57.448  -0.056  31.168  0.00  0.00     0.162 A 
ATOM      2  N   UNL d   1      58.028   0.549  31.022  0.00  0.00    -0.225 NA
ATOM      3  N   UNL d   1      57.565  -0.645  30.601  0.00  0.00    -0.225 NA
ATOM      4  C   UNL d   1      58.470   0.320  30.389  0.00  0.00     0.101 A 
ATOM      5  C   UNL d   1      58.176  -0.437  30.122  0.00  0.00     0.101 A 
ATOM      6  C   UNL d   1      59.106   0.629  29.962  0.00  0.00     0.021 A 
ATOM      7  C   UNL d   1      58.527  -0.810  29.476  0.00  0.00     0.021 A 
ATOM      8  C   UNL d   1      59.142  -0.453  29.106  0.00  0.00     0.002 A 
ATOM      9  C   UNL d   1      59.426   0.278  29.364  0.00  0.00     0.002 A 
ENDROOT
BRANCH   1  10
ATOM     10  C   UNL d   1      56.879  -0.047  31.766  0.00  0.00     0.036 A 
ATOM     11  C   UNL d   1      56.579   0.672  32.038  0.00  0.00     0.005 A 
ATOM     12  C   UNL d   1      56.010   0.681  32.636  0.00  0.00     0.024 A 
ATOM     13  C   UNL d   1      55.743  -0.027  32.962  0.00  0.00     0.094 A 
ATOM     14  C   UNL d   1      56.043  -0.750  32.690  0.00  0.00     0.024 A 
ATOM     15  C   UNL d   1      56.611  -0.760  32.092  0.00  0.00     0.005 A 
BRANCH  13  16
ATOM     16  O   UNL d   1      55.175  -0.018  33.560  0.00  0.00    -0.328 OA
ATOM     17  C   UNL d   1      54.797   0.374  34.181  0.00  0.00     0.181 C 
ENDBRANCH  13  16
ENDBRANCH   1  10
TORSDOF 2
ENDMDL
MODEL 2
REMARK VINA RESULT:      -5.0      1.688      4.421
REMARK  2 active torsions:
REMARK  status: ('A' for Active; 'I' for Inactive)
REMARK    1  A    between atoms: C_6  and  C_1 
REMARK    2  A    between atoms: O_12  and  C_9 
ROOT
ATOM      1  C   UNL d   1      56.272   0.203  32.922  0.00  0.00     0.162 A 
ATOM      2  N   UNL d   1      56.608   0.312  33.696  0.00  0.00    -0.225 NA
ATOM      3  N   UNL d   1      55.453   0.269  33.002  0.00  0.00    -0.225 NA
ATOM      4  C   UNL d   1      56.003   0.438  34.213  0.00  0.00     0.101 A 
ATOM      5  C   UNL d   1      55.271   0.411  33.772  0.00  0.00     0.101 A 
ATOM      6  C   UNL d   1      55.929   0.579  35.023  0.00  0.00     0.021 A 
ATOM      7  C   UNL d   1      54.552   0.522  34.161  0.00  0.00     0.021 A 
ATOM      8  C   UNL d   1      54.553   0.656  34.951  0.00  0.00     0.002 A 
ATOM      9  C   UNL d   1      55.260   0.682  35.377  0.00  0.00     0.002 A 
ENDROOT
BRANCH   1  10
ATOM     10  C   UNL d   1      56.694   0.059  32.228  0.00  0.00     0.036 A 
ATOM     11  C   UNL d   1      56.728  -0.704  31.916  0.00  0.00     0.005 A 
ATOM     12  C   UNL d   1      57.150  -0.849  31.223  0.00  0.00     0.024 A 
ATOM     13  C   UNL d   1      57.539  -0.230  30.841  0.00  0.00     0.094 A 
ATOM     14  C   UNL d   1      57.507   0.538  31.152  0.00  0.00     0.024 A 
ATOM     15  C   UNL d   1      57.085   0.682  31.845  0.00  0.00     0.005 A 
BRANCH  13  16
ATOM     16  O   UNL d   1      57.962  -0.374  30.147  0.00  0.00    -0.328 OA
ATOM     17  C   UNL d   1      58.536  -0.147  29.599  0.00  0.00     0.181 C 
ENDBRANCH  13  16
ENDBRANCH   1  10
TORSDOF 2
ENDMDL
MODEL 3
REMARK VINA RESULT:      -4.0      1.231      2.085
REMARK  2 active torsions:
REMARK  status: ('A' for Active; 'I' for Inactive)
REMARK    1  A    between atoms: C_6  and  C_1 
REMARK    2  A    between atoms: O_12  and  C_9 
ROOT
ATOM      1  C   UNL d   1      56.429   0.013  32.601  0.00  0.00     0.162 A 
ATOM      2  N   UNL d   1      56.638  -0.763  32.320  0.00  0.00    -0.225 NA
ATOM      3  N   UNL d   1      56.716   0.555  32.049  0.00  0.00    -0.225 NA
ATOM      4  C   UNL d   1      57.034  -0.676  31.625  0.00  0.00     0.101 A 
ATOM      5  C   UNL d   1      57.084   0.160  31.453  0.00  0.00     0.101 A 
ATOM      6  C   UNL d   1      57.384  -1.177  31.070  0.00  0.00     0.021 A 
ATOM      7  C   UNL d   1      57.464   0.418  30.769  0.00  0.00     0.021 A 
ATOM      8  C   UNL d   1      57.783  -0.124  30.272  0.00  0.00     0.002 A 
ATOM      9  C   UNL d   1      57.735  -0.932  30.438  0.00  0.00     0.002 A 
ENDROOT
BRANCH   1  10
ATOM     10  C   UNL d   1      56.018   0.180  33.297  0.00  0.00     0.036 A 
ATOM     11  C   UNL d   1      55.195   0.133  33.311  0.00  0.00     0.005 A 
ATOM     12  C   UNL d   1      54.783   0.300  34.006  0.00  0.00     0.024 A 
ATOM     13  C   UNL d   1      55.195   0.515  34.687  0.00  0.00     0.094 A 
ATOM     14  C   UNL d   1      56.022   0.563  34.676  0.00  0.00     0.024 A 
ATOM     15  C   UNL d   1      56.434   0.396  33.981  0.00  0.00     0.005 A 
BRANCH  13  16
ATOM     16  O   UNL d   1      54.784   0.682  35.382  0.00  0.00    -0.328 OA
ATOM     17  C   UNL d   1      54.691   0.592  36.198  0.00  0.00     0.181 C 
ENDBRANCH  13  16
ENDBRANCH   1  10
TORSDOF 2
ENDMDL
MODEL 4
REMARK VINA RESULT:      -2.8      3.085      4.973
REMARK  2 active torsions:
REMARK  status: ('A' for Active; 'I' for Inactive)
REMARK    1  A    between atoms: C_6  and  C_1 
REMARK    2  A    between atoms: O_12  and  C_9 
ROOT
ATOM      1  C   UNL d   1      59.016  -1.784  29.333  0.00  0.00     0.162 A 
ATOM      2  N   UNL d   1      59.047  -1.052  28.901  0.00  0.00    -0.225 NA
ATOM      3  N   UNL d   1      58.553  -1.650  30.003  0.00  0.00    -0.225 NA
ATOM      4  C   UNL d   1      58.614  -0.507  29.306  0.00  0.00     0.101 A 
ATOM      5  C   UNL d   1      58.301  -0.886  30.005  0.00  0.00     0.101 A 
ATOM      6  C   UNL d   1      58.414   0.288  29.209  0.00  0.00     0.021 A 
ATOM      7  C   UNL d   1      57.832  -0.458  30.531  0.00  0.00     0.021 A 
ATOM      8  C   UNL d   1      57.676   0.313  30.375  0.00  0.00     0.002 A 
ATOM      9  C   UNL d   1      57.979   0.679  29.700  0.00  0.00     0.002 A 
ENDROOT
BRANCH   1  10
ATOM     10  C   UNL d   1      59.384  -2.490  29.116  0.00  0.00     0.036 A 
ATOM     11  C   UNL d   1      60.200  -2.573  29.199  0.00  0.00     0.005 A 
ATOM     12  C   UNL d   1      60.568  -3.278  28.981  0.00  0.00     0.024 A 
ATOM     13  C   UNL d   1      60.120  -3.901  28.680  0.00  0.00     0.094 A 
ATOM     14  C   UNL d   1      59.299  -3.820  28.595  0.00  0.00     0.024 A 
ATOM     15  C   UNL d   1      58.931  -3.115  28.813  0.00  0.00     0.005 A 
BRANCH  13  16
ATOM     16  O   UNL d   1      60.487  -4.606  28.462  0.00  0.00    -0.328 OA
ATOM     17  C   UNL d   1      61.133  -5.120  28.507  0.00  0.00     0.181 C 
ENDBRANCH  13  16
ENDBRANCH   1  10
TORSDOF 2
ENDMDL
MODEL 5
REMARK VINA RESULT:      -2.8      9.983     10.648
REMARK  2 active torsions:
REMARK  status: ('A' for Active; 'I' for Inactive)
REMARK    1  A    between atoms: C_6  and  C_1 
REMARK    2  A    between atoms: O_12  and  C_9 
ROOT
ATOM      1  C   UNL d   1      59.227  -9.755  33.459  0.00  0.00     0.162 A 
ATOM      2  N   UNL d   1      58.844  -9.798  34.218  0.00  0.00    -0.225 NA
ATOM      3  N   UNL d   1      60.038  -9.696  33.599  0.00  0.00    -0.225 NA
ATOM      4  C   UNL d   1      59.415  -9.764  34.784  0.00  0.00     0.101 A 
ATOM      5  C   UNL d   1      60.172  -9.700  34.392  0.00  0.00     0.101 A 
ATOM      6  C   UNL d   1      59.439  -9.777  35.610  0.00  0.00     0.021 A 
ATOM      7  C   UNL d   1      60.864  -9.656  34.838  0.00  0.00     0.021 A 
ATOM      8  C   UNL d   1      60.815  -9.674  35.638  0.00  0.00     0.002 A 
ATOM      9  C   UNL d   1      60.084  -9.736  36.017  0.00  0.00     0.002 A 
ENDROOT
BRANCH   1  10
ATOM     10  C   UNL d   1      58.848  -9.771  32.726  0.00  0.00     0.036 A 
ATOM     11  C   UNL d   1      59.293  -9.794  32.032  0.00  0.00     0.005 A 
ATOM     12  C   UNL d   1      58.915  -9.810  31.299  0.00  0.00     0.024 A 
ATOM     13  C   UNL d   1      58.092  -9.802  31.260  0.00  0.00     0.094 A 
ATOM     14  C   UNL d   1      57.642  -9.779  31.955  0.00  0.00     0.024 A 
ATOM     15  C   UNL d   1      58.020  -9.763  32.688  0.00  0.00     0.005 A 
BRANCH  13  16
ATOM     16  O   UNL d   1      57.713  -9.818  30.527  0.00  0.00    -0.328 OA
ATOM     17  C   UNL d   1      57.748  -9.771  29.703  0.00  0.00     0.181 C 
ENDBRANCH  13  16
ENDBRANCH   1  10
TORSDOF 2
ENDMDL
MODEL 6
REMARK VINA RESULT:      -2.6     10.003     10.316
REMARK  2 active torsions:
REMARK  status: ('A' for Active; 'I' for Inactive)
REMARK    1  A    between atoms: C_6  and  C_1 
REMARK    2  A    between atoms: O_12  and  C_9 
ROOT
ATOM      1  C   UNL d   1      58.951  -9.785  32.405  0.00  0.00     0.162 A 
ATOM      2  N   UNL d   1      59.245  -9.790  31.607  0.00  0.00    -0.225 NA
ATOM      3  N   UNL d   1      58.127  -9.792  32.360  0.00  0.00    -0.225 NA
ATOM      4  C   UNL d   1      58.612  -9.799  31.110  0.00  0.00     0.101 A 
ATOM      5  C   UNL d   1      57.903  -9.800  31.588  0.00  0.00     0.101 A 
ATOM      6  C   UNL d   1      58.493  -9.808  30.293  0.00  0.00     0.021 A 
ATOM      7  C   UNL d   1      57.162  -9.809  31.226  0.00  0.00     0.021 A 
ATOM      8  C   UNL d   1      57.119  -9.817  30.425  0.00  0.00     0.002 A 
ATOM      9  C   UNL d   1      57.804  -9.816  29.964  0.00  0.00     0.002 A 
ENDROOT
BRANCH   1  10
ATOM     10  C   UNL d   1      59.412  -9.776  33.090  0.00  0.00     0.036 A 
ATOM     11  C   UNL d   1      60.234  -9.727  33.033  0.00  0.00     0.005 A 
ATOM     12  C   UNL d   1      60.695  -9.717  33.718  0.00  0.00     0.024 A 
ATOM     13  C   UNL d   1      60.334  -9.757  34.458  0.00  0.00     0.094 A 
ATOM     14  C   UNL d   1      59.509  -9.805  34.518  0.00  0.00     0.024 A 
ATOM     15  C   UNL d   1      59.048  -9.815  33.833  0.00  0.00     0.005 A 
BRANCH  13  16
ATOM     16  O   UNL d   1      60.795  -9.747  35.142  0.00  0.00    -0.328 OA
ATOM     17  C   UNL d   1      61.127  -9.333  35.775  0.00  0.00     0.181 C 
ENDBRANCH  13  16
ENDBRANCH   1  10
TORSDOF 2
ENDMDL
