MODEL 1
REMARK VINA RESULT:      -4.5      0.000      0.000
REMARK  3 active torsions:
REMARK  status: ('A' for Active; 'I' for Inactive)
REMARK    1  A    between atoms: N_7  and  C_6 
REMARK       I    between atoms: C_8  and  N_7 
REMARK    2  A    between atoms: C_12  and  C_8 
REMARK    3  A    between atoms: C_16  and  C_12 
ROOT
ATOM      1  C   UNL d   1     -42.131-121.574 -54.023  0.00  0.00     0.269 A 
ATOM      2  N   UNL d   1     -42.313-121.570 -54.839  0.00  0.00    -0.239 N 
ATOM      3  C   UNL d   1     -41.779-122.304 -53.862  0.00  0.00     0.079 A 
ATOM      4  C   UNL d   1     -42.078-122.277 -55.156  0.00  0.00     0.267 A 
ATOM      5  C   UNL d   1     -41.746-122.739 -54.563  0.00  0.00     0.063 A 
ATOM      6  C   UNL d   1     -41.486-122.624 -53.165  0.00  0.00     0.089 A 
ATOM      7  O   UNL d   1     -42.271-120.971 -53.482  0.00  0.00    -0.267 OA
ATOM      8  O   UNL d   1     -42.160-122.500 -55.961  0.00  0.00    -0.267 OA
ATOM      9  C   UNL d   1     -42.672-120.949 -55.246  0.00  0.00     0.105 C 
ATOM     10  C   UNL d   1     -41.421-123.493 -54.566  0.00  0.00     0.005 A 
ATOM     11  C   UNL d   1     -41.158-123.381 -53.165  0.00  0.00     0.019 A 
ATOM     12  C   UNL d   1     -41.126-123.816 -53.866  0.00  0.00     0.002 A 
ENDROOT
BRANCH   6  13
ATOM     13  N   UNL d   1     -41.519-122.189 -52.464  0.00  0.00    -0.208 NA
ATOM     14  C   UNL d   1     -41.389-122.566 -51.744  0.00  0.00     0.279 C 
ATOM     15  O   UNL d   1     -41.227-123.373 -51.716  0.00  0.00    -0.265 OA
BRANCH  14  16
ATOM     16  C   UNL d   1     -41.422-122.131 -51.043  0.00  0.00     0.062 C 
BRANCH  16  17
ATOM     17  C   UNL d   1     -41.803-122.444 -50.382  0.00  0.00     0.005 A 
ATOM     18  C   UNL d   1     -42.620-122.367 -50.302  0.00  0.00     0.000 A 
ATOM     19  C   UNL d   1     -43.003-122.673 -49.652  0.00  0.00     0.000 A 
ATOM     20  C   UNL d   1     -42.567-123.066 -49.066  0.00  0.00     0.000 A 
ATOM     21  C   UNL d   1     -41.749-123.144 -49.146  0.00  0.00     0.000 A 
ATOM     22  C   UNL d   1     -41.368-122.831 -49.807  0.00  0.00     0.000 A 
ENDBRANCH  16  17
ENDBRANCH  14  16
ENDBRANCH   6  13
TORSDOF 3
ENDMDL
MODEL 2
REMARK VINA RESULT:      -4.2      1.273      4.575
REMARK  3 active torsions:
REMARK  status: ('A' for Active; 'I' for Inactive)
REMARK    1  A    between atoms: N_7  and  C_6 
REMARK       I    between atoms: C_8  and  N_7 
REMARK    2  A    between atoms: C_12  and  C_8 
REMARK    3  A    between atoms: C_16  and  C_12 
ROOT
ATOM      1  C   UNL d   1     -42.436-123.211 -50.568  0.00  0.00     0.269 A 
ATOM      2  N   UNL d   1     -42.635-123.143 -49.759  0.00  0.00    -0.239 N 
ATOM      3  C   UNL d   1     -41.982-122.546 -50.756  0.00  0.00     0.079 A 
ATOM      4  C   UNL d   1     -42.310-122.459 -49.473  0.00  0.00     0.267 A 
ATOM      5  C   UNL d   1     -41.904-122.082 -50.079  0.00  0.00     0.063 A 
ATOM      6  C   UNL d   1     -41.631-122.311 -51.461  0.00  0.00     0.089 A 
ATOM      7  O   UNL d   1     -42.648-123.817 -51.081  0.00  0.00    -0.267 OA
ATOM      8  O   UNL d   1     -42.378-122.182 -48.683  0.00  0.00    -0.267 OA
ATOM      9  C   UNL d   1     -43.087-123.684 -49.331  0.00  0.00     0.105 C 
ATOM     10  C   UNL d   1     -41.476-121.382 -50.106  0.00  0.00     0.005 A 
ATOM     11  C   UNL d   1     -41.200-121.607 -51.490  0.00  0.00     0.019 A 
ATOM     12  C   UNL d   1     -41.123-121.143 -50.813  0.00  0.00     0.002 A 
ENDROOT
BRANCH   6  13
ATOM     13  N   UNL d   1     -41.709-122.775 -52.138  0.00  0.00    -0.208 NA
ATOM     14  C   UNL d   1     -41.477-122.474 -52.869  0.00  0.00     0.279 C 
ATOM     15  O   UNL d   1     -41.168-121.714 -52.929  0.00  0.00    -0.265 OA
BRANCH  14  16
ATOM     16  C   UNL d   1     -41.555-122.939 -53.546  0.00  0.00     0.062 C 
BRANCH  16  17
ATOM     17  C   UNL d   1     -41.746-122.587 -54.267  0.00  0.00     0.005 A 
ATOM     18  C   UNL d   1     -41.156-122.452 -54.829  0.00  0.00     0.000 A 
ATOM     19  C   UNL d   1     -41.338-122.105 -55.543  0.00  0.00     0.000 A 
ATOM     20  C   UNL d   1     -42.121-121.886 -55.705  0.00  0.00     0.000 A 
ATOM     21  C   UNL d   1     -42.710-122.020 -55.144  0.00  0.00     0.000 A 
ATOM     22  C   UNL d   1     -42.519-122.373 -54.422  0.00  0.00     0.000 A 
ENDBRANCH  16  17
ENDBRANCH  14  16
ENDBRANCH   6  13
TORSDOF 3
ENDMDL
MODEL 3
REMARK VINA RESULT:      -3.0      1.469      4.778
REMARK  3 active torsions:
REMARK  status: ('A' for Active; 'I' for Inactive)
REMARK    1  A    between atoms: N_7  and  C_6 
REMARK       I    between atoms: C_8  and  N_7 
REMARK    2  A    between atoms: C_12  and  C_8 
REMARK    3  A    between atoms: C_16  and  C_12 
ROOT
ATOM      1  C   UNL d   1     -41.728-123.361 -49.583  0.00  0.00     0.269 A 
ATOM      2  N   UNL d   1     -41.983-123.354 -48.788  0.00  0.00    -0.239 N 
ATOM      3  C   UNL d   1     -42.202-122.820 -49.989  0.00  0.00     0.079 A 
ATOM      4  C   UNL d   1     -42.591-122.825 -48.719  0.00  0.00     0.267 A 
ATOM      5  C   UNL d   1     -42.736-122.488 -49.455  0.00  0.00     0.063 A 
ATOM      6  C   UNL d   1     -42.211-122.591 -50.778  0.00  0.00     0.089 A 
ATOM      7  O   UNL d   1     -41.123-123.817 -49.905  0.00  0.00    -0.267 OA
ATOM      8  O   UNL d   1     -43.006-122.649 -48.011  0.00  0.00    -0.267 OA
ATOM      9  C   UNL d   1     -41.665-123.811 -48.179  0.00  0.00     0.105 C 
ATOM     10  C   UNL d   1     -43.279-121.927 -49.710  0.00  0.00     0.005 A 
ATOM     11  C   UNL d   1     -42.756-122.027 -51.036  0.00  0.00     0.019 A 
ATOM     12  C   UNL d   1     -43.290-121.695 -50.501  0.00  0.00     0.002 A 
ENDROOT
BRANCH   6  13
ATOM     13  N   UNL d   1     -41.677-122.923 -51.312  0.00  0.00    -0.208 NA
ATOM     14  C   UNL d   1     -41.664-122.660 -52.092  0.00  0.00     0.279 C 
ATOM     15  O   UNL d   1     -42.179-122.069 -52.344  0.00  0.00    -0.265 OA
BRANCH  14  16
ATOM     16  C   UNL d   1     -41.130-122.992 -52.626  0.00  0.00     0.062 C 
BRANCH  16  17
ATOM     17  C   UNL d   1     -41.298-122.986 -53.434  0.00  0.00     0.005 A 
ATOM     18  C   UNL d   1     -41.253-122.281 -53.860  0.00  0.00     0.000 A 
ATOM     19  C   UNL d   1     -41.418-122.269 -54.657  0.00  0.00     0.000 A 
ATOM     20  C   UNL d   1     -41.632-122.971 -55.043  0.00  0.00     0.000 A 
ATOM     21  C   UNL d   1     -41.677-123.676 -54.618  0.00  0.00     0.000 A 
ATOM     22  C   UNL d   1     -41.509-123.681 -53.810  0.00  0.00     0.000 A 
ENDBRANCH  16  17
ENDBRANCH  14  16
ENDBRANCH   6  13
TORSDOF 3
ENDMDL
