MODEL 1
REMARK VINA RESULT:      29.0      0.000      0.000
REMARK  4 active torsions:
REMARK  status: ('A' for Active; 'I' for Inactive)
REMARK    1  A    between atoms: C_2  and  N_1 
REMARK    2  A    between atoms: C_12  and  C_5 
REMARK    3  A    between atoms: O_20  and  C_12 
REMARK    4  A    between atoms: C_21  and  C_13 
ROOT
ATOM      1  N   UNL d   1     -51.304  25.144  33.345  0.00  0.00    -0.237 N 
ATOM      2  C   UNL d   1     -51.300  24.308  33.329  0.00  0.00     0.263 A 
ATOM      3  C   UNL d   1     -52.096  25.398  33.351  0.00  0.00     0.263 A 
ATOM      4  C   UNL d   1     -52.579  24.727  33.339  0.00  0.00     0.039 A 
ATOM      5  C   UNL d   1     -52.084  24.052  33.325  0.00  0.00     0.039 A 
ATOM      6  C   UNL d   1     -53.413  24.639  33.338  0.00  0.00     0.049 A 
ATOM      7  C   UNL d   1     -52.420  23.283  33.311  0.00  0.00     0.049 A 
ATOM      8  C   UNL d   1     -53.744  23.859  33.324  0.00  0.00    -0.026 A 
ATOM      9  C   UNL d   1     -53.245  23.190  33.310  0.00  0.00    -0.026 A 
ATOM     10  C   UNL d   1     -52.704  24.284  33.331  0.00  0.00     0.018 A 
ATOM     11  O   UNL d   1     -52.330  26.153  33.366  0.00  0.00    -0.267 OA
ATOM     12  O   UNL d   1     -50.656  23.852  33.320  0.00  0.00    -0.267 OA
ENDROOT
BRANCH   1  13
ATOM     13  C   UNL d   1     -50.651  25.613  33.354  0.00  0.00     0.105 A 
ATOM     14  C   UNL d   1     -50.654  26.408  33.358  0.00  0.00     0.086 A 
ATOM     15  C   UNL d   1     -49.891  26.656  33.366  0.00  0.00     0.014 A 
ATOM     16  C   UNL d   1     -49.435  26.010  33.366  0.00  0.00     0.031 A 
ATOM     17  S   UNL d   1     -49.892  25.367  33.359  0.00  0.00    -0.069 SA
BRANCH  14  18
ATOM     18  C   UNL d   1     -51.300  26.874  33.355  0.00  0.00     0.298 C 
ATOM     19  O   UNL d   1     -52.030  26.552  33.390  0.00  0.00    -0.259 OA
BRANCH  18  20
ATOM     20  O   UNL d   1     -51.218  27.676  33.315  0.00  0.00    -0.296 OA
ATOM     21  C   UNL d   1     -51.912  28.054  33.307  0.00  0.00     0.185 C 
ENDBRANCH  18  20
ENDBRANCH  14  18
BRANCH  16  22
ATOM     22  C   UNL d   1     -48.638  26.093  33.374  0.00  0.00     0.006 C 
ATOM     23  C   UNL d   1     -48.264  26.419  34.020  0.00  0.00     0.001 C 
ENDBRANCH  16  22
ENDBRANCH   1  13
TORSDOF 4
ENDMDL
