MODEL 1
REMARK VINA RESULT:      -2.5      0.000      0.000
REMARK  5 active torsions:
REMARK  status: ('A' for Active; 'I' for Inactive)
REMARK       I    between atoms: C_3  and  N_1 
REMARK    1  A    between atoms: S_7  and  C_2 
REMARK    2  A    between atoms: C_6  and  C_3 
REMARK    3  A    between atoms: N_4  and  C_8 
REMARK    4  A    between atoms: C_17  and  S_7 
REMARK    5  A    between atoms: C_18  and  C_17 
ROOT
ATOM      1  N   UNL d   1      57.383  -0.397  30.925  0.00  0.00    -0.251 N 
ATOM      2  C   UNL d   1      57.857  -0.535  30.260  0.00  0.00     0.182 A 
ATOM      3  C   UNL d   1      57.262  -0.915  31.556  0.00  0.00     0.266 C 
ATOM      4  N   UNL d   1      57.812   0.128  29.779  0.00  0.00    -0.219 NA
ATOM      5  O   UNL d   1      57.633  -1.654  31.565  0.00  0.00    -0.267 OA
ATOM      6  C   UNL d   1      57.044   0.360  30.848  0.00  0.00     0.106 A 
ATOM      7  C   UNL d   1      57.315   0.682  30.134  0.00  0.00     0.120 A 
ENDROOT
BRANCH   2   8
ATOM      8  S   UNL d   1      58.291  -1.221  30.119  0.00  0.00    -0.049 SA
BRANCH   8   9
ATOM      9  C   UNL d   1      58.628  -1.345  29.385  0.00  0.00     0.038 C 
BRANCH   9  10
ATOM     10  C   UNL d   1      59.003  -2.055  29.219  0.00  0.00     0.007 A 
ATOM     11  C   UNL d   1      58.561  -2.699  28.935  0.00  0.00     0.002 A 
ATOM     12  C   UNL d   1      58.941  -3.416  28.767  0.00  0.00     0.024 A 
ATOM     13  C   UNL d   1      59.751  -3.483  28.884  0.00  0.00     0.127 A 
ATOM     14  C   UNL d   1      60.192  -2.851  29.164  0.00  0.00     0.024 A 
ATOM     15  C   UNL d   1      59.814  -2.137  29.331  0.00  0.00     0.002 A 
BRANCH  13  16
ATOM     16  N   UNL d   1      60.124  -4.205  28.714  0.00  0.00    -0.114 N 
ATOM     17  O   UNL d   1      60.924  -4.216  28.455  0.00  0.00    -0.532 OA
ATOM     18  O   UNL d   1      59.716  -4.926  28.797  0.00  0.00    -0.532 OA
ENDBRANCH  13  16
ENDBRANCH   9  10
ENDBRANCH   8   9
ENDBRANCH   2   8
BRANCH   3  19
ATOM     19  C   UNL d   1      56.768  -0.695  32.186  0.00  0.00     0.057 A 
ATOM     20  C   UNL d   1      56.093  -1.149  32.352  0.00  0.00     0.005 A 
ATOM     21  C   UNL d   1      55.611  -0.920  32.980  0.00  0.00     0.000 A 
ATOM     22  C   UNL d   1      54.937  -1.370  33.149  0.00  0.00     0.000 C 
ATOM     23  C   UNL d   1      55.795  -0.251  33.434  0.00  0.00     0.000 A 
ATOM     24  C   UNL d   1      56.463   0.192  33.263  0.00  0.00     0.000 A 
ATOM     25  C   UNL d   1      56.951  -0.030  32.638  0.00  0.00     0.005 A 
ENDBRANCH   3  19
TORSDOF 5
ENDMDL
MODEL 2
REMARK VINA RESULT:      -2.5      2.012      2.975
REMARK  5 active torsions:
REMARK  status: ('A' for Active; 'I' for Inactive)
REMARK       I    between atoms: C_3  and  N_1 
REMARK    1  A    between atoms: S_7  and  C_2 
REMARK    2  A    between atoms: C_6  and  C_3 
REMARK    3  A    between atoms: N_4  and  C_8 
REMARK    4  A    between atoms: C_17  and  S_7 
REMARK    5  A    between atoms: C_18  and  C_17 
ROOT
ATOM      1  N   UNL d   1      56.224  -0.675  32.747  0.00  0.00    -0.251 N 
ATOM      2  C   UNL d   1      56.663  -0.949  32.099  0.00  0.00     0.182 A 
ATOM      3  C   UNL d   1      56.218   0.096  33.042  0.00  0.00     0.266 C 
ATOM      4  N   UNL d   1      56.499  -1.748  32.006  0.00  0.00    -0.219 NA
ATOM      5  O   UNL d   1      56.680   0.682  32.686  0.00  0.00    -0.267 OA
ATOM      6  C   UNL d   1      55.787  -1.314  33.052  0.00  0.00     0.106 A 
ATOM      7  C   UNL d   1      55.961  -1.979  32.588  0.00  0.00     0.120 A 
ENDROOT
BRANCH   2   8
ATOM      8  S   UNL d   1      57.170  -0.492  31.640  0.00  0.00    -0.049 SA
BRANCH   8   9
ATOM      9  C   UNL d   1      57.206  -0.611  30.832  0.00  0.00     0.038 C 
BRANCH   9  10
ATOM     10  C   UNL d   1      57.911  -0.494  30.430  0.00  0.00     0.007 A 
ATOM     11  C   UNL d   1      58.303   0.236  30.485  0.00  0.00     0.002 A 
ATOM     12  C   UNL d   1      59.015   0.352  30.078  0.00  0.00     0.024 A 
ATOM     13  C   UNL d   1      59.327  -0.256  29.624  0.00  0.00     0.127 A 
ATOM     14  C   UNL d   1      58.944  -0.979  29.565  0.00  0.00     0.024 A 
ATOM     15  C   UNL d   1      58.235  -1.096  29.970  0.00  0.00     0.002 A 
BRANCH  13  16
ATOM     16  N   UNL d   1      60.040  -0.133  29.219  0.00  0.00    -0.114 N 
ATOM     17  O   UNL d   1      60.178   0.593  28.816  0.00  0.00    -0.532 OA
ATOM     18  O   UNL d   1      60.630  -0.721  29.204  0.00  0.00    -0.532 OA
ENDBRANCH  13  16
ENDBRANCH   9  10
ENDBRANCH   8   9
ENDBRANCH   2   8
BRANCH   3  19
ATOM     19  C   UNL d   1      55.746   0.285  33.698  0.00  0.00     0.057 A 
ATOM     20  C   UNL d   1      56.102   0.389  34.441  0.00  0.00     0.005 A 
ATOM     21  C   UNL d   1      55.623   0.577  35.084  0.00  0.00     0.000 A 
ATOM     22  C   UNL d   1      55.975   0.681  35.826  0.00  0.00     0.000 C 
ATOM     23  C   UNL d   1      54.803   0.661  34.991  0.00  0.00     0.000 A 
ATOM     24  C   UNL d   1      54.458   0.557  34.254  0.00  0.00     0.000 A 
ATOM     25  C   UNL d   1      54.931   0.369  33.606  0.00  0.00     0.005 A 
ENDBRANCH   3  19
TORSDOF 5
ENDMDL
MODEL 3
REMARK VINA RESULT:      -0.3      2.403      5.529
REMARK  5 active torsions:
REMARK  status: ('A' for Active; 'I' for Inactive)
REMARK       I    between atoms: C_3  and  N_1 
REMARK    1  A    between atoms: S_7  and  C_2 
REMARK    2  A    between atoms: C_6  and  C_3 
REMARK    3  A    between atoms: N_4  and  C_8 
REMARK    4  A    between atoms: C_17  and  S_7 
REMARK    5  A    between atoms: C_18  and  C_17 
ROOT
ATOM      1  N   UNL d   1      58.054  -0.662  30.418  0.00  0.00    -0.251 N 
ATOM      2  C   UNL d   1      57.429  -0.818  30.941  0.00  0.00     0.182 A 
ATOM      3  C   UNL d   1      58.477   0.043  30.360  0.00  0.00     0.266 C 
ATOM      4  N   UNL d   1      57.176  -1.587  30.805  0.00  0.00    -0.219 NA
ATOM      5  O   UNL d   1      58.293   0.682  30.851  0.00  0.00    -0.267 OA
ATOM      6  C   UNL d   1      58.183  -1.345  29.959  0.00  0.00     0.106 A 
ATOM      7  C   UNL d   1      57.634  -1.917  30.204  0.00  0.00     0.120 A 
ENDROOT
BRANCH   2   8
ATOM      8  S   UNL d   1      57.127  -0.288  31.492  0.00  0.00    -0.049 SA
BRANCH   8   9
ATOM      9  C   UNL d   1      57.242  -0.420  32.290  0.00  0.00     0.038 C 
BRANCH   9  10
ATOM     10  C   UNL d   1      56.674  -0.185  32.833  0.00  0.00     0.007 A 
ATOM     11  C   UNL d   1      55.868  -0.280  32.656  0.00  0.00     0.002 A 
ATOM     12  C   UNL d   1      55.296  -0.043  33.205  0.00  0.00     0.024 A 
ATOM     13  C   UNL d   1      55.531   0.285  33.920  0.00  0.00     0.127 A 
ATOM     14  C   UNL d   1      56.325   0.381  34.101  0.00  0.00     0.024 A 
ATOM     15  C   UNL d   1      56.896   0.144  33.554  0.00  0.00     0.002 A 
BRANCH  13  16
ATOM     16  N   UNL d   1      54.952   0.521  34.466  0.00  0.00    -0.114 N 
ATOM     17  O   UNL d   1      55.160   0.667  35.267  0.00  0.00    -0.532 OA
ATOM     18  O   UNL d   1      54.158   0.616  34.231  0.00  0.00    -0.532 OA
ENDBRANCH  13  16
ENDBRANCH   9  10
ENDBRANCH   8   9
ENDBRANCH   2   8
BRANCH   3  19
ATOM     19  C   UNL d   1      59.092   0.114  29.805  0.00  0.00     0.057 A 
ATOM     20  C   UNL d   1      59.796  -0.309  29.921  0.00  0.00     0.005 A 
ATOM     21  C   UNL d   1      60.398  -0.230  29.363  0.00  0.00     0.000 A 
ATOM     22  C   UNL d   1      61.102  -0.651  29.475  0.00  0.00     0.000 C 
ATOM     23  C   UNL d   1      60.301   0.261  28.703  0.00  0.00     0.000 A 
ATOM     24  C   UNL d   1      59.602   0.676  28.595  0.00  0.00     0.000 A 
ATOM     25  C   UNL d   1      58.996   0.603  29.148  0.00  0.00     0.005 A 
ENDBRANCH   3  19
TORSDOF 5
ENDMDL
