MODEL 1
REMARK VINA RESULT:      13.7      0.000      0.000
REMARK  1 active torsions:
REMARK  status: ('A' for Active; 'I' for Inactive)
REMARK    1  A    between atoms: C_2  and  C_1 
REMARK       I    between atoms: N_3  and  C_2 
ROOT
ATOM      1  C   UNL d   1     -51.681  25.053  33.327  0.00  0.00     0.109 A 
ATOM      2  C   UNL d   1     -50.936  24.750  33.312  0.00  0.00     0.026 A 
ATOM      3  C   UNL d   1     -52.261  24.509  33.339  0.00  0.00    -0.014 A 
ATOM      4  C   UNL d   1     -52.564  24.784  33.345  0.00  0.00    -0.014 A 
ATOM      5  C   UNL d   1     -50.980  23.862  33.312  0.00  0.00     0.045 A 
ATOM      6  C   UNL d   1     -52.606  24.046  33.345  0.00  0.00    -0.007 A 
ATOM      7  C   UNL d   1     -52.291  23.555  33.339  0.00  0.00    -0.007 A 
ATOM      8  C   UNL d   1     -53.173  23.286  33.356  0.00  0.00    -0.001 A 
ATOM      9  C   UNL d   1     -51.577  23.264  33.324  0.00  0.00    -0.022 A 
ATOM     10  C   UNL d   1     -51.659  23.596  33.326  0.00  0.00    -0.022 A 
ENDROOT
BRANCH   1  11
ATOM     11  C   UNL d   1     -51.725  26.101  33.329  0.00  0.00     0.248 C 
ATOM     12  N   UNL d   1     -50.876  26.705  33.318  0.00  0.00    -0.275 N 
ATOM     13  C   UNL d   1     -50.106  26.838  33.307  0.00  0.00     0.083 A 
ATOM     14  C   UNL d   1     -51.232  27.393  33.323  0.00  0.00     0.083 A 
ATOM     15  C   UNL d   1     -49.997  27.619  33.306  0.00  0.00     0.021 A 
ATOM     16  C   UNL d   1     -50.691  27.962  33.316  0.00  0.00     0.021 A 
ATOM     17  O   UNL d   1     -52.515  26.406  33.340  0.00  0.00    -0.271 OA
ENDBRANCH   1  11
TORSDOF 1
ENDMDL
