MODEL 1
REMARK VINA RESULT:      51.2      0.000      0.000
REMARK  4 active torsions:
REMARK  status: ('A' for Active; 'I' for Inactive)
REMARK    1  A    between atoms: C_12  and  C_2 
REMARK    2  A    between atoms: C_13  and  C_3 
REMARK    3  A    between atoms: N_8  and  C_6 
REMARK       I    between atoms: C_7  and  N_9 
REMARK    4  A    between atoms: N_9  and  N_8 
ROOT
ATOM      1  C   UNL d   1      61.099  48.489  51.836  0.00  0.00     0.196 A 
ATOM      2  C   UNL d   1      60.880  49.234  52.160  0.00  0.00     0.041 A 
ATOM      3  C   UNL d   1      60.693  48.165  51.227  0.00  0.00     0.041 A 
ATOM      4  C   UNL d   1      60.224  49.648  51.840  0.00  0.00     0.024 A 
ATOM      5  C   UNL d   1      60.045  48.562  50.902  0.00  0.00     0.024 A 
ATOM      6  C   UNL d   1      59.814  49.292  51.204  0.00  0.00     0.103 A 
ATOM      7  O   UNL d   1      61.765  48.042  52.143  0.00  0.00    -0.287 OA
ENDROOT
BRANCH   6   8
ATOM      8  N   UNL d   1      59.147  49.706  50.874  0.00  0.00    -0.144 NA
BRANCH   8   9
ATOM      9  N   UNL d   1      58.711  49.415  50.225  0.00  0.00    -0.087 NA
ATOM     10  C   UNL d   1      57.880  49.354  50.234  0.00  0.00     0.404 C 
ATOM     11  O   UNL d   1      57.465  49.592  50.915  0.00  0.00    -0.239 OA
ATOM     12  N   UNL d   1      57.470  49.058  49.570  0.00  0.00    -0.083 N 
ENDBRANCH   8   9
ENDBRANCH   6   8
BRANCH   3  13
ATOM     13  C   UNL d   1      60.935  47.432  50.934  0.00  0.00     0.003 C 
ATOM     14  C   UNL d   1      61.390  47.388  50.270  0.00  0.00     0.000 C 
ATOM     15  C   UNL d   1      60.707  46.742  51.327  0.00  0.00     0.000 C 
ENDBRANCH   3  13
BRANCH   2  16
ATOM     16  C   UNL d   1      61.297  49.551  52.774  0.00  0.00     0.003 C 
ATOM     17  C   UNL d   1      60.911  49.707  53.467  0.00  0.00     0.000 C 
ATOM     18  C   UNL d   1      62.076  49.708  52.701  0.00  0.00     0.000 C 
ENDBRANCH   2  16
TORSDOF 4
ENDMDL
MODEL 2
REMARK VINA RESULT:      51.4      2.075      3.432
REMARK  4 active torsions:
REMARK  status: ('A' for Active; 'I' for Inactive)
REMARK    1  A    between atoms: C_12  and  C_2 
REMARK    2  A    between atoms: C_13  and  C_3 
REMARK    3  A    between atoms: N_8  and  C_6 
REMARK       I    between atoms: C_7  and  N_9 
REMARK    4  A    between atoms: N_9  and  N_8 
ROOT
ATOM      1  C   UNL d   1      60.240  49.189  51.391  0.00  0.00     0.196 A 
ATOM      2  C   UNL d   1      59.955  48.956  50.634  0.00  0.00     0.041 A 
ATOM      3  C   UNL d   1      60.948  48.936  51.665  0.00  0.00     0.041 A 
ATOM      4  C   UNL d   1      60.421  48.449  50.155  0.00  0.00     0.024 A 
ATOM      5  C   UNL d   1      61.417  48.436  51.203  0.00  0.00     0.024 A 
ATOM      6  C   UNL d   1      61.157  48.196  50.460  0.00  0.00     0.103 A 
ATOM      7  O   UNL d   1      59.786  49.707  51.904  0.00  0.00    -0.287 OA
ENDROOT
BRANCH   6   8
ATOM      8  N   UNL d   1      61.635  47.681  49.978  0.00  0.00    -0.144 NA
BRANCH   8   9
ATOM      9  N   UNL d   1      61.455  46.873  49.866  0.00  0.00    -0.087 NA
ATOM     10  C   UNL d   1      61.993  46.338  49.522  0.00  0.00     0.404 C 
ATOM     11  O   UNL d   1      62.740  46.616  49.278  0.00  0.00    -0.239 OA
ATOM     12  N   UNL d   1      61.786  45.536  49.422  0.00  0.00    -0.083 N 
ENDBRANCH   8   9
ENDBRANCH   6   8
BRANCH   3  13
ATOM     13  C   UNL d   1      61.196  49.184  52.412  0.00  0.00     0.003 C 
ATOM     14  C   UNL d   1      60.730  49.063  53.058  0.00  0.00     0.000 C 
ATOM     15  C   UNL d   1      61.928  49.558  52.493  0.00  0.00     0.000 C 
ENDBRANCH   3  13
BRANCH   2  16
ATOM     16  C   UNL d   1      59.239  49.218  50.369  0.00  0.00     0.003 C 
ATOM     17  C   UNL d   1      58.571  48.984  50.757  0.00  0.00     0.000 C 
ATOM     18  C   UNL d   1      59.190  49.699  49.734  0.00  0.00     0.000 C 
ENDBRANCH   2  16
TORSDOF 4
ENDMDL
