MODEL 1
REMARK VINA RESULT:      -9.0      0.000      0.000
REMARK  3 active torsions:
REMARK  status: ('A' for Active; 'I' for Inactive)
REMARK    1  A    between atoms: N_4  and  C_1 
REMARK    2  A    between atoms: C_3  and  N_4 
REMARK    3  A    between atoms: C_8  and  C_5 
ROOT
ATOM      1  C   UNL d   1      53.631  32.132  53.351  0.00  0.00     0.750 A 
ATOM      2  N   UNL d   1      53.672  31.429  53.779  0.00  0.00    -0.059 NA
ATOM      3  C   UNL d   1      53.189  30.795  53.578  0.00  0.00     0.103 A 
ATOM      4  N   UNL d   1      53.115  32.207  52.727  0.00  0.00    -0.058 NA
ATOM      5  C   UNL d   1      52.663  30.866  52.945  0.00  0.00     0.041 A 
ATOM      6  C   UNL d   1      52.625  31.579  52.514  0.00  0.00     0.120 A 
ENDROOT
BRANCH   1   7
ATOM      7  N   UNL d   1      54.118  32.763  53.559  0.00  0.00    -0.059 NA
BRANCH   7   8
ATOM      8  C   UNL d   1      53.804  33.421  53.946  0.00  0.00     0.101 A 
ATOM      9  C   UNL d   1      53.134  33.799  53.647  0.00  0.00     0.041 A 
ATOM     10  C   UNL d   1      52.823  34.460  54.041  0.00  0.00     0.104 A 
ATOM     11  N   UNL d   1      52.153  34.838  53.743  0.00  0.00    -0.148 N 
ATOM     12  C   UNL d   1      53.182  34.739  54.728  0.00  0.00     0.021 A 
ATOM     13  C   UNL d   1      53.852  34.361  55.027  0.00  0.00     0.003 A 
ATOM     14  C   UNL d   1      54.163  33.705  54.638  0.00  0.00     0.018 A 
ATOM     15  C   UNL d   1      54.833  33.327  54.936  0.00  0.00     0.002 C 
ENDBRANCH   7   8
ENDBRANCH   1   7
BRANCH   3  16
ATOM     16  C   UNL d   1      53.230  30.094  54.005  0.00  0.00     0.037 A 
ATOM     17  C   UNL d   1      53.322  29.384  53.607  0.00  0.00     0.100 A 
ATOM     18  N   UNL d   1      53.365  28.674  54.026  0.00  0.00    -0.242 NA
ATOM     19  C   UNL d   1      53.313  28.683  54.855  0.00  0.00     0.099 A 
ATOM     20  C   UNL d   1      53.219  29.404  55.255  0.00  0.00     0.021 A 
ATOM     21  C   UNL d   1      53.178  30.104  54.828  0.00  0.00     0.005 A 
ENDBRANCH   3  16
TORSDOF 3
ENDMDL
MODEL 2
REMARK VINA RESULT:      -9.0      0.941      1.363
REMARK  3 active torsions:
REMARK  status: ('A' for Active; 'I' for Inactive)
REMARK    1  A    between atoms: N_4  and  C_1 
REMARK    2  A    between atoms: C_3  and  N_4 
REMARK    3  A    between atoms: C_8  and  C_5 
ROOT
ATOM      1  C   UNL d   1      53.682  32.673  54.125  0.00  0.00     0.750 A 
ATOM      2  N   UNL d   1      53.344  31.920  54.114  0.00  0.00    -0.059 NA
ATOM      3  C   UNL d   1      53.676  31.326  53.652  0.00  0.00     0.103 A 
ATOM      4  N   UNL d   1      54.344  32.835  53.682  0.00  0.00    -0.058 NA
ATOM      5  C   UNL d   1      54.348  31.487  53.200  0.00  0.00     0.041 A 
ATOM      6  C   UNL d   1      54.687  32.249  53.214  0.00  0.00     0.120 A 
ENDROOT
BRANCH   1   7
ATOM      7  N   UNL d   1      53.343  33.262  54.590  0.00  0.00    -0.059 NA
BRANCH   7   8
ATOM      8  C   UNL d   1      52.985  33.916  54.236  0.00  0.00     0.101 A 
ATOM      9  C   UNL d   1      52.484  33.817  53.587  0.00  0.00     0.041 A 
ATOM     10  C   UNL d   1      52.127  34.479  53.236  0.00  0.00     0.104 A 
ATOM     11  N   UNL d   1      51.627  34.379  52.587  0.00  0.00    -0.148 N 
ATOM     12  C   UNL d   1      52.272  35.233  53.534  0.00  0.00     0.021 A 
ATOM     13  C   UNL d   1      52.772  35.332  54.183  0.00  0.00     0.003 A 
ATOM     14  C   UNL d   1      53.127  34.677  54.533  0.00  0.00     0.018 A 
ATOM     15  C   UNL d   1      53.628  34.777  55.181  0.00  0.00     0.002 C 
ENDBRANCH   7   8
ENDBRANCH   1   7
BRANCH   3  16
ATOM     16  C   UNL d   1      53.340  30.577  53.641  0.00  0.00     0.037 A 
ATOM     17  C   UNL d   1      52.778  30.395  53.073  0.00  0.00     0.100 A 
ATOM     18  N   UNL d   1      52.433  29.646  53.052  0.00  0.00    -0.242 NA
ATOM     19  C   UNL d   1      52.659  29.075  53.612  0.00  0.00     0.099 A 
ATOM     20  C   UNL d   1      53.229  29.262  54.186  0.00  0.00     0.021 A 
ATOM     21  C   UNL d   1      53.565  30.011  54.197  0.00  0.00     0.005 A 
ENDBRANCH   3  16
TORSDOF 3
ENDMDL
MODEL 3
REMARK VINA RESULT:      -8.5      1.221      4.197
REMARK  3 active torsions:
REMARK  status: ('A' for Active; 'I' for Inactive)
REMARK    1  A    between atoms: N_4  and  C_1 
REMARK    2  A    between atoms: C_3  and  N_4 
REMARK    3  A    between atoms: C_8  and  C_5 
ROOT
ATOM      1  C   UNL d   1      53.583  32.043  53.660  0.00  0.00     0.750 A 
ATOM      2  N   UNL d   1      52.928  32.423  53.332  0.00  0.00    -0.059 NA
ATOM      3  C   UNL d   1      52.657  33.129  53.655  0.00  0.00     0.103 A 
ATOM      4  N   UNL d   1      53.966  32.361  54.303  0.00  0.00    -0.058 NA
ATOM      5  C   UNL d   1      53.042  33.454  54.309  0.00  0.00     0.041 A 
ATOM      6  C   UNL d   1      53.704  33.068  54.637  0.00  0.00     0.120 A 
ENDROOT
BRANCH   1   7
ATOM      7  N   UNL d   1      53.849  31.337  53.331  0.00  0.00    -0.059 NA
BRANCH   7   8
ATOM      8  C   UNL d   1      53.512  30.618  53.560  0.00  0.00     0.101 A 
ATOM      9  C   UNL d   1      53.525  30.386  54.352  0.00  0.00     0.041 A 
ATOM     10  C   UNL d   1      53.185  29.663  54.576  0.00  0.00     0.104 A 
ATOM     11  N   UNL d   1      53.198  29.431  55.367  0.00  0.00    -0.148 N 
ATOM     12  C   UNL d   1      52.835  29.178  54.009  0.00  0.00     0.021 A 
ATOM     13  C   UNL d   1      52.822  29.410  53.217  0.00  0.00     0.003 A 
ATOM     14  C   UNL d   1      53.159  30.127  52.993  0.00  0.00     0.018 A 
ATOM     15  C   UNL d   1      53.146  30.359  52.201  0.00  0.00     0.002 C 
ENDBRANCH   7   8
ENDBRANCH   1   7
BRANCH   3  16
ATOM     16  C   UNL d   1      52.005  33.507  53.329  0.00  0.00     0.037 A 
ATOM     17  C   UNL d   1      51.253  33.312  53.590  0.00  0.00     0.100 A 
ATOM     18  N   UNL d   1      50.591  33.686  53.269  0.00  0.00    -0.242 NA
ATOM     19  C   UNL d   1      50.690  34.261  52.678  0.00  0.00     0.099 A 
ATOM     20  C   UNL d   1      51.453  34.456  52.416  0.00  0.00     0.021 A 
ATOM     21  C   UNL d   1      52.105  34.078  52.742  0.00  0.00     0.005 A 
ENDBRANCH   3  16
TORSDOF 3
ENDMDL
MODEL 4
REMARK VINA RESULT:      -8.5      1.771      3.315
REMARK  3 active torsions:
REMARK  status: ('A' for Active; 'I' for Inactive)
REMARK    1  A    between atoms: N_4  and  C_1 
REMARK    2  A    between atoms: C_3  and  N_4 
REMARK    3  A    between atoms: C_8  and  C_5 
ROOT
ATOM      1  C   UNL d   1      53.237  32.208  53.966  0.00  0.00     0.750 A 
ATOM      2  N   UNL d   1      52.679  32.786  53.779  0.00  0.00    -0.059 NA
ATOM      3  C   UNL d   1      52.159  32.669  53.152  0.00  0.00     0.103 A 
ATOM      4  N   UNL d   1      53.279  31.520  53.536  0.00  0.00    -0.058 NA
ATOM      5  C   UNL d   1      52.199  31.971  52.713  0.00  0.00     0.041 A 
ATOM      6  C   UNL d   1      52.764  31.389  52.905  0.00  0.00     0.120 A 
ENDROOT
BRANCH   1   7
ATOM      7  N   UNL d   1      53.754  32.333  54.595  0.00  0.00    -0.059 NA
BRANCH   7   8
ATOM      8  C   UNL d   1      54.406  32.831  54.504  0.00  0.00     0.101 A 
ATOM      9  C   UNL d   1      54.831  32.836  53.797  0.00  0.00     0.041 A 
ATOM     10  C   UNL d   1      55.486  33.339  53.713  0.00  0.00     0.104 A 
ATOM     11  N   UNL d   1      55.911  33.344  53.006  0.00  0.00    -0.148 N 
ATOM     12  C   UNL d   1      55.710  33.833  54.333  0.00  0.00     0.021 A 
ATOM     13  C   UNL d   1      55.285  33.828  55.040  0.00  0.00     0.003 A 
ATOM     14  C   UNL d   1      54.635  33.330  55.126  0.00  0.00     0.018 A 
ATOM     15  C   UNL d   1      54.210  33.325  55.833  0.00  0.00     0.002 C 
ENDBRANCH   7   8
ENDBRANCH   1   7
BRANCH   3  16
ATOM     16  C   UNL d   1      51.603  33.244  52.966  0.00  0.00     0.037 A 
ATOM     17  C   UNL d   1      50.877  33.243  53.345  0.00  0.00     0.100 A 
ATOM     18  N   UNL d   1      50.311  33.816  53.166  0.00  0.00    -0.242 NA
ATOM     19  C   UNL d   1      50.482  34.396  52.597  0.00  0.00     0.099 A 
ATOM     20  C   UNL d   1      51.218  34.395  52.214  0.00  0.00     0.021 A 
ATOM     21  C   UNL d   1      51.774  33.820  52.400  0.00  0.00     0.005 A 
ENDBRANCH   3  16
TORSDOF 3
ENDMDL
MODEL 5
REMARK VINA RESULT:      -8.4      1.713      3.187
REMARK  3 active torsions:
REMARK  status: ('A' for Active; 'I' for Inactive)
REMARK    1  A    between atoms: N_4  and  C_1 
REMARK    2  A    between atoms: C_3  and  N_4 
REMARK    3  A    between atoms: C_8  and  C_5 
ROOT
ATOM      1  C   UNL d   1      52.914  32.522  52.829  0.00  0.00     0.750 A 
ATOM      2  N   UNL d   1      53.387  32.927  53.369  0.00  0.00    -0.059 NA
ATOM      3  C   UNL d   1      53.825  32.509  53.927  0.00  0.00     0.103 A 
ATOM      4  N   UNL d   1      52.874  31.710  52.841  0.00  0.00    -0.058 NA
ATOM      5  C   UNL d   1      53.787  31.685  53.943  0.00  0.00     0.041 A 
ATOM      6  C   UNL d   1      53.307  31.279  53.395  0.00  0.00     0.120 A 
ENDROOT
BRANCH   1   7
ATOM      7  N   UNL d   1      52.479  32.947  52.274  0.00  0.00    -0.059 NA
BRANCH   7   8
ATOM      8  C   UNL d   1      51.820  33.386  52.509  0.00  0.00     0.101 A 
ATOM      9  C   UNL d   1      51.254  33.052  53.009  0.00  0.00     0.041 A 
ATOM     10  C   UNL d   1      50.594  33.499  53.242  0.00  0.00     0.104 A 
ATOM     11  N   UNL d   1      50.029  33.165  53.742  0.00  0.00    -0.148 N 
ATOM     12  C   UNL d   1      50.504  34.273  52.974  0.00  0.00     0.021 A 
ATOM     13  C   UNL d   1      51.070  34.606  52.475  0.00  0.00     0.003 A 
ATOM     14  C   UNL d   1      51.725  34.165  52.242  0.00  0.00     0.018 A 
ATOM     15  C   UNL d   1      52.291  34.499  51.742  0.00  0.00     0.002 C 
ENDBRANCH   7   8
ENDBRANCH   1   7
BRANCH   3  16
ATOM     16  C   UNL d   1      54.297  32.912  54.465  0.00  0.00     0.037 A 
ATOM     17  C   UNL d   1      54.106  32.894  55.262  0.00  0.00     0.100 A 
ATOM     18  N   UNL d   1      54.573  33.295  55.811  0.00  0.00    -0.242 NA
ATOM     19  C   UNL d   1      55.239  33.719  55.553  0.00  0.00     0.099 A 
ATOM     20  C   UNL d   1      55.429  33.736  54.745  0.00  0.00     0.021 A 
ATOM     21  C   UNL d   1      54.958  33.333  54.207  0.00  0.00     0.005 A 
ENDBRANCH   3  16
TORSDOF 3
ENDMDL
MODEL 6
REMARK VINA RESULT:      -8.0      2.039      4.294
REMARK  3 active torsions:
REMARK  status: ('A' for Active; 'I' for Inactive)
REMARK    1  A    between atoms: N_4  and  C_1 
REMARK    2  A    between atoms: C_3  and  N_4 
REMARK    3  A    between atoms: C_8  and  C_5 
ROOT
ATOM      1  C   UNL d   1      52.493  33.698  53.665  0.00  0.00     0.750 A 
ATOM      2  N   UNL d   1      51.710  33.775  53.418  0.00  0.00    -0.059 NA
ATOM      3  C   UNL d   1      51.508  34.341  52.857  0.00  0.00     0.103 A 
ATOM      4  N   UNL d   1      53.072  34.179  53.357  0.00  0.00    -0.058 NA
ATOM      5  C   UNL d   1      52.093  34.831  52.542  0.00  0.00     0.041 A 
ATOM      6  C   UNL d   1      52.884  34.750  52.793  0.00  0.00     0.120 A 
ENDROOT
BRANCH   1   7
ATOM      7  N   UNL d   1      52.687  33.129  54.228  0.00  0.00    -0.059 NA
BRANCH   7   8
ATOM      8  C   UNL d   1      53.038  32.418  53.996  0.00  0.00     0.101 A 
ATOM      9  C   UNL d   1      52.697  31.960  53.400  0.00  0.00     0.041 A 
ATOM     10  C   UNL d   1      53.054  31.247  53.172  0.00  0.00     0.104 A 
ATOM     11  N   UNL d   1      52.714  30.789  52.576  0.00  0.00    -0.148 N 
ATOM     12  C   UNL d   1      53.748  30.996  53.540  0.00  0.00     0.021 A 
ATOM     13  C   UNL d   1      54.088  31.453  54.136  0.00  0.00     0.003 A 
ATOM     14  C   UNL d   1      53.736  32.162  54.364  0.00  0.00     0.018 A 
ATOM     15  C   UNL d   1      54.076  32.619  54.960  0.00  0.00     0.002 C 
ENDBRANCH   7   8
ENDBRANCH   1   7
BRANCH   3  16
ATOM     16  C   UNL d   1      50.728  34.418  52.611  0.00  0.00     0.037 A 
ATOM     17  C   UNL d   1      50.172  34.729  53.126  0.00  0.00     0.100 A 
ATOM     18  N   UNL d   1      49.385  34.810  52.890  0.00  0.00    -0.242 NA
ATOM     19  C   UNL d   1      49.159  34.575  52.127  0.00  0.00     0.099 A 
ATOM     20  C   UNL d   1      49.725  34.259  51.607  0.00  0.00     0.021 A 
ATOM     21  C   UNL d   1      50.505  34.183  51.853  0.00  0.00     0.005 A 
ENDBRANCH   3  16
TORSDOF 3
ENDMDL
MODEL 7
REMARK VINA RESULT:      -7.8      1.185      4.122
REMARK  3 active torsions:
REMARK  status: ('A' for Active; 'I' for Inactive)
REMARK    1  A    between atoms: N_4  and  C_1 
REMARK    2  A    between atoms: C_3  and  N_4 
REMARK    3  A    between atoms: C_8  and  C_5 
ROOT
ATOM      1  C   UNL d   1      52.518  32.471  52.867  0.00  0.00     0.750 A 
ATOM      2  N   UNL d   1      52.850  33.086  53.306  0.00  0.00    -0.059 NA
ATOM      3  C   UNL d   1      52.373  33.690  53.596  0.00  0.00     0.103 A 
ATOM      4  N   UNL d   1      51.720  32.456  52.717  0.00  0.00    -0.058 NA
ATOM      5  C   UNL d   1      51.561  33.677  53.446  0.00  0.00     0.041 A 
ATOM      6  C   UNL d   1      51.229  33.054  53.002  0.00  0.00     0.120 A 
ENDROOT
BRANCH   1   7
ATOM      7  N   UNL d   1      53.003  31.870  52.580  0.00  0.00    -0.059 NA
BRANCH   7   8
ATOM      8  C   UNL d   1      53.046  31.147  52.976  0.00  0.00     0.101 A 
ATOM      9  C   UNL d   1      52.366  30.694  53.092  0.00  0.00     0.041 A 
ATOM     10  C   UNL d   1      52.417  29.968  53.491  0.00  0.00     0.104 A 
ATOM     11  N   UNL d   1      51.737  29.515  53.607  0.00  0.00    -0.148 N 
ATOM     12  C   UNL d   1      53.144  29.700  53.770  0.00  0.00     0.021 A 
ATOM     13  C   UNL d   1      53.824  30.152  53.654  0.00  0.00     0.003 A 
ATOM     14  C   UNL d   1      53.777  30.873  53.259  0.00  0.00     0.018 A 
ATOM     15  C   UNL d   1      54.457  31.326  53.143  0.00  0.00     0.002 C 
ENDBRANCH   7   8
ENDBRANCH   1   7
BRANCH   3  16
ATOM     16  C   UNL d   1      52.703  34.302  54.033  0.00  0.00     0.037 A 
ATOM     17  C   UNL d   1      52.975  34.155  54.792  0.00  0.00     0.100 A 
ATOM     18  N   UNL d   1      53.309  34.762  55.240  0.00  0.00    -0.242 NA
ATOM     19  C   UNL d   1      53.369  35.525  54.917  0.00  0.00     0.099 A 
ATOM     20  C   UNL d   1      53.093  35.671  54.147  0.00  0.00     0.021 A 
ATOM     21  C   UNL d   1      52.763  35.059  53.711  0.00  0.00     0.005 A 
ENDBRANCH   3  16
TORSDOF 3
ENDMDL
