MODEL 1
REMARK VINA RESULT:      -3.1      0.000      0.000
REMARK  5 active torsions:
REMARK  status: ('A' for Active; 'I' for Inactive)
REMARK    1  A    between atoms: C_2  and  S_1 
REMARK    2  A    between atoms: N_3  and  S_1 
REMARK    3  A    between atoms: C_14  and  N_3 
REMARK    4  A    between atoms: C_15  and  C_14 
REMARK    5  A    between atoms: O_18  and  C_16 
ROOT
ATOM      1  S   UNL d   1      32.452  16.851 -24.445  0.00  0.00     0.285 S 
ATOM      2  O   UNL d   1      32.238  16.098 -24.705  0.00  0.00    -0.198 OA
ATOM      3  O   UNL d   1      33.240  16.662 -24.548  0.00  0.00    -0.198 OA
ENDROOT
BRANCH   1   4
ATOM      4  C   UNL d   1      32.659  17.606 -24.184  0.00  0.00     0.107 A 
ATOM      5  C   UNL d   1      32.751  17.760 -23.377  0.00  0.00     0.037 A 
ATOM      6  C   UNL d   1      32.958  18.517 -23.123  0.00  0.00     0.095 A 
ATOM      7  C   UNL d   1      33.073  19.121 -23.678  0.00  0.00     0.024 A 
ATOM      8  C   UNL d   1      32.980  18.965 -24.481  0.00  0.00     0.003 A 
ATOM      9  C   UNL d   1      32.774  18.208 -24.735  0.00  0.00     0.013 A 
BRANCH   6  10
ATOM     10  O   UNL d   1      33.050  18.673 -22.321  0.00  0.00    -0.328 OA
ATOM     11  C   UNL d   1      33.206  19.442 -22.064  0.00  0.00     0.181 C 
ENDBRANCH   6  10
ENDBRANCH   1   4
BRANCH   1  12
ATOM     12  N   UNL d   1      31.655  17.038 -24.342  0.00  0.00    -0.157 NA
BRANCH  12  13
ATOM     13  C   UNL d   1      31.071  16.512 -24.612  0.00  0.00     0.112 C 
BRANCH  13  14
ATOM     14  C   UNL d   1      30.279  16.643 -24.422  0.00  0.00     0.022 A 
ATOM     15  C   UNL d   1      29.923  16.193 -23.830  0.00  0.00     0.028 A 
ATOM     16  C   UNL d   1      29.131  16.324 -23.640  0.00  0.00     0.119 A 
ATOM     17  O   UNL d   1      28.637  15.970 -23.087  0.00  0.00    -0.300 OA
ATOM     18  C   UNL d   1      28.693  16.900 -24.036  0.00  0.00     0.119 A 
ATOM     19  C   UNL d   1      27.892  16.324 -23.137  0.00  0.00     0.304 A 
ATOM     20  O   UNL d   1      27.940  16.901 -23.732  0.00  0.00    -0.300 OA
ATOM     21  C   UNL d   1      29.059  17.348 -24.631  0.00  0.00     0.026 A 
ATOM     22  C   UNL d   1      29.851  17.222 -24.826  0.00  0.00     0.004 A 
ENDBRANCH  13  14
ENDBRANCH  12  13
ENDBRANCH   1  12
TORSDOF 5
ENDMDL
MODEL 2
REMARK VINA RESULT:      -2.5      0.894      4.105
REMARK  5 active torsions:
REMARK  status: ('A' for Active; 'I' for Inactive)
REMARK    1  A    between atoms: C_2  and  S_1 
REMARK    2  A    between atoms: N_3  and  S_1 
REMARK    3  A    between atoms: C_14  and  N_3 
REMARK    4  A    between atoms: C_15  and  C_14 
REMARK    5  A    between atoms: O_18  and  C_16 
ROOT
ATOM      1  S   UNL d   1      31.603  16.232 -23.654  0.00  0.00     0.285 S 
ATOM      2  O   UNL d   1      32.350  16.083 -23.337  0.00  0.00    -0.198 OA
ATOM      3  O   UNL d   1      31.393  15.453 -23.527  0.00  0.00    -0.198 OA
ENDROOT
BRANCH   1   4
ATOM      4  C   UNL d   1      30.858  16.390 -23.971  0.00  0.00     0.107 A 
ATOM      5  C   UNL d   1      30.181  16.338 -23.498  0.00  0.00     0.037 A 
ATOM      6  C   UNL d   1      29.440  16.496 -23.822  0.00  0.00     0.095 A 
ATOM      7  C   UNL d   1      29.374  16.707 -24.620  0.00  0.00     0.024 A 
ATOM      8  C   UNL d   1      30.049  16.757 -25.089  0.00  0.00     0.003 A 
ATOM      9  C   UNL d   1      30.791  16.599 -24.764  0.00  0.00     0.013 A 
BRANCH   6  10
ATOM     10  O   UNL d   1      28.765  16.445 -23.354  0.00  0.00    -0.328 OA
ATOM     11  C   UNL d   1      28.111  16.922 -23.517  0.00  0.00     0.181 C 
ENDBRANCH   6  10
ENDBRANCH   1   4
BRANCH   1  12
ATOM     12  N   UNL d   1      31.818  17.019 -23.780  0.00  0.00    -0.157 NA
BRANCH  12  13
ATOM     13  C   UNL d   1      32.591  17.268 -23.600  0.00  0.00     0.112 C 
BRANCH  13  14
ATOM     14  C   UNL d   1      32.761  18.073 -23.541  0.00  0.00     0.022 A 
ATOM     15  C   UNL d   1      32.753  18.438 -22.802  0.00  0.00     0.028 A 
ATOM     16  C   UNL d   1      32.923  19.243 -22.744  0.00  0.00     0.119 A 
ATOM     17  O   UNL d   1      32.956  19.748 -22.096  0.00  0.00    -0.300 OA
ATOM     18  C   UNL d   1      33.100  19.685 -23.417  0.00  0.00     0.119 A 
ATOM     19  C   UNL d   1      33.154  20.504 -22.364  0.00  0.00     0.304 A 
ATOM     20  O   UNL d   1      33.241  20.452 -23.188  0.00  0.00    -0.300 OA
ATOM     21  C   UNL d   1      33.106  19.311 -24.157  0.00  0.00     0.026 A 
ATOM     22  C   UNL d   1      32.937  18.505 -24.222  0.00  0.00     0.004 A 
ENDBRANCH  13  14
ENDBRANCH  12  13
ENDBRANCH   1  12
TORSDOF 5
ENDMDL
MODEL 3
REMARK VINA RESULT:      -1.6      1.950      4.677
REMARK  5 active torsions:
REMARK  status: ('A' for Active; 'I' for Inactive)
REMARK    1  A    between atoms: C_2  and  S_1 
REMARK    2  A    between atoms: N_3  and  S_1 
REMARK    3  A    between atoms: C_14  and  N_3 
REMARK    4  A    between atoms: C_15  and  C_14 
REMARK    5  A    between atoms: O_18  and  C_16 
ROOT
ATOM      1  S   UNL d   1      32.889  18.133 -22.823  0.00  0.00     0.285 S 
ATOM      2  O   UNL d   1      33.231  18.091 -22.074  0.00  0.00    -0.198 OA
ATOM      3  O   UNL d   1      32.823  17.319 -22.839  0.00  0.00    -0.198 OA
ENDROOT
BRANCH   1   4
ATOM      4  C   UNL d   1      32.548  18.184 -23.573  0.00  0.00     0.107 A 
ATOM      5  C   UNL d   1      31.733  18.083 -23.669  0.00  0.00     0.037 A 
ATOM      6  C   UNL d   1      31.398  18.135 -24.422  0.00  0.00     0.095 A 
ATOM      7  C   UNL d   1      31.879  18.288 -25.077  0.00  0.00     0.024 A 
ATOM      8  C   UNL d   1      32.691  18.387 -24.978  0.00  0.00     0.003 A 
ATOM      9  C   UNL d   1      33.025  18.336 -24.226  0.00  0.00     0.013 A 
BRANCH   6  10
ATOM     10  O   UNL d   1      30.587  18.035 -24.521  0.00  0.00    -0.328 OA
ATOM     11  C   UNL d   1      30.301  17.440 -25.015  0.00  0.00     0.181 C 
ENDBRANCH   6  10
ENDBRANCH   1   4
BRANCH   1  12
ATOM     12  N   UNL d   1      32.957  18.955 -22.803  0.00  0.00    -0.157 NA
BRANCH  12  13
ATOM     13  C   UNL d   1      33.240  19.328 -22.116  0.00  0.00     0.112 C 
BRANCH  13  14
ATOM     14  C   UNL d   1      32.992  20.092 -21.930  0.00  0.00     0.022 A 
ATOM     15  C   UNL d   1      33.239  20.725 -22.397  0.00  0.00     0.028 A 
ATOM     16  C   UNL d   1      32.991  21.489 -22.212  0.00  0.00     0.119 A 
ATOM     17  O   UNL d   1      33.144  22.214 -22.568  0.00  0.00    -0.300 OA
ATOM     18  C   UNL d   1      32.499  21.627 -21.565  0.00  0.00     0.119 A 
ATOM     19  C   UNL d   1      32.748  22.803 -22.145  0.00  0.00     0.304 A 
ATOM     20  O   UNL d   1      32.350  22.424 -21.522  0.00  0.00    -0.300 OA
ATOM     21  C   UNL d   1      32.254  20.984 -21.100  0.00  0.00     0.026 A 
ATOM     22  C   UNL d   1      32.499  20.217 -21.280  0.00  0.00     0.004 A 
ENDBRANCH  13  14
ENDBRANCH  12  13
ENDBRANCH   1  12
TORSDOF 5
ENDMDL
