MODEL 1
REMARK VINA RESULT:      29.1      0.000      0.000
REMARK  2 active torsions:
REMARK  status: ('A' for Active; 'I' for Inactive)
REMARK    1  A    between atoms: N_14  and  C_4 
REMARK    2  A    between atoms: C_9  and  C_5 
ROOT
ATOM      1  C   UNL d   1      14.236  13.163  -2.163  0.00  0.00     0.060 A 
ATOM      2  C   UNL d   1      13.910  12.466  -2.459  0.00  0.00     0.197 A 
ATOM      3  C   UNL d   1      14.196  13.867  -2.593  0.00  0.00     0.043 A 
ATOM      4  C   UNL d   1      14.612  13.174  -1.422  0.00  0.00     0.090 A 
ATOM      5  C   UNL d   1      14.938  13.872  -1.126  0.00  0.00     0.082 A 
ATOM      6  C   UNL d   1      13.830  13.893  -3.331  0.00  0.00     0.196 A 
ATOM      7  C   UNL d   1      13.544  12.491  -3.198  0.00  0.00     0.042 A 
ATOM      8  C   UNL d   1      13.504  13.195  -3.628  0.00  0.00     0.042 A 
ATOM      9  C   UNL d   1      14.533  14.576  -2.279  0.00  0.00     0.004 A 
ATOM     10  C   UNL d   1      14.901  14.525  -1.525  0.00  0.00     0.008 A 
ATOM     11  O   UNL d   1      13.961  11.779  -2.016  0.00  0.00    -0.286 OA
ATOM     12  O   UNL d   1      13.800  14.627  -3.757  0.00  0.00    -0.287 OA
ATOM     13  C   UNL d   1      13.205  11.780  -3.516  0.00  0.00     0.003 A 
ATOM     14  C   UNL d   1      13.124  13.207  -4.388  0.00  0.00     0.003 A 
ATOM     15  C   UNL d   1      12.798  12.509  -4.685  0.00  0.00     0.000 A 
ATOM     16  C   UNL d   1      12.838  11.805  -4.255  0.00  0.00     0.000 A 
ENDROOT
BRANCH   5  17
ATOM     17  C   UNL d   1      15.315  13.921  -0.402  0.00  0.00     0.212 C 
ATOM     18  O   UNL d   1      15.432  14.647  -0.019  0.00  0.00    -0.644 OA
ATOM     19  O   UNL d   1      15.600  13.252  -0.014  0.00  0.00    -0.644 OA
ENDBRANCH   5  17
BRANCH   4  20
ATOM     20  N   UNL d   1      14.668  12.466  -0.958  0.00  0.00    -0.242 NA
ATOM     21  C   UNL d   1      14.104  12.273  -0.406  0.00  0.00     0.119 C 
ENDBRANCH   4  20
TORSDOF 2
ENDMDL
MODEL 2
REMARK VINA RESULT:      30.9      0.967      1.937
REMARK  2 active torsions:
REMARK  status: ('A' for Active; 'I' for Inactive)
REMARK    1  A    between atoms: N_14  and  C_4 
REMARK    2  A    between atoms: C_9  and  C_5 
ROOT
ATOM      1  C   UNL d   1      14.146  13.185  -2.420  0.00  0.00     0.060 A 
ATOM      2  C   UNL d   1      14.095  13.900  -2.829  0.00  0.00     0.197 A 
ATOM      3  C   UNL d   1      13.772  12.506  -2.704  0.00  0.00     0.043 A 
ATOM      4  C   UNL d   1      14.575  13.133  -1.711  0.00  0.00     0.090 A 
ATOM      5  C   UNL d   1      14.626  12.417  -1.302  0.00  0.00     0.082 A 
ATOM      6  C   UNL d   1      13.337  12.522  -3.405  0.00  0.00     0.196 A 
ATOM      7  C   UNL d   1      13.659  13.917  -3.530  0.00  0.00     0.042 A 
ATOM      8  C   UNL d   1      13.286  13.237  -3.814  0.00  0.00     0.042 A 
ATOM      9  C   UNL d   1      13.831  11.779  -2.277  0.00  0.00     0.004 A 
ATOM     10  C   UNL d   1      14.280  11.787  -1.566  0.00  0.00     0.008 A 
ATOM     11  O   UNL d   1      14.473  14.562  -2.529  0.00  0.00    -0.286 OA
ATOM     12  O   UNL d   1      12.961  11.812  -3.679  0.00  0.00    -0.287 OA
ATOM     13  C   UNL d   1      13.598  14.646  -3.961  0.00  0.00     0.003 A 
ATOM     14  C   UNL d   1      12.841  13.269  -4.537  0.00  0.00     0.003 A 
ATOM     15  C   UNL d   1      12.790  13.983  -4.946  0.00  0.00     0.000 A 
ATOM     16  C   UNL d   1      13.163  14.663  -4.662  0.00  0.00     0.000 A 
ENDROOT
BRANCH   5  17
ATOM     17  C   UNL d   1      15.040  12.327  -0.603  0.00  0.00     0.212 C 
ATOM     18  O   UNL d   1      15.733  12.757  -0.447  0.00  0.00    -0.644 OA
ATOM     19  O   UNL d   1      14.792  11.807  -0.014  0.00  0.00    -0.644 OA
ENDBRANCH   5  17
BRANCH   4  20
ATOM     20  N   UNL d   1      14.969  13.815  -1.396  0.00  0.00    -0.242 NA
ATOM     21  C   UNL d   1      14.757  14.137  -0.681  0.00  0.00     0.119 C 
ENDBRANCH   4  20
TORSDOF 2
ENDMDL
