MODEL 1
REMARK VINA RESULT:       9.9      0.000      0.000
REMARK  5 active torsions:
REMARK  status: ('A' for Active; 'I' for Inactive)
REMARK    1  A    between atoms: C_4  and  C_1 
REMARK    2  A    between atoms: C_10  and  C_2 
REMARK    3  A    between atoms: C_8  and  C_4 
REMARK    4  A    between atoms: C_9  and  C_4 
REMARK    5  A    between atoms: N_5  and  C_9 
ROOT
ATOM      1  C   UNL d   1     -41.905-122.578 -50.838  0.00  0.00     0.023 A 
ATOM      2  C   UNL d   1     -41.558-123.173 -51.308  0.00  0.00     0.081 A 
ATOM      3  N   UNL d   1     -41.216-123.724 -50.810  0.00  0.00    -0.246 NA
ATOM      4  C   UNL d   1     -41.771-122.772 -50.047  0.00  0.00     0.019 A 
ATOM      5  C   UNL d   1     -41.344-123.482 -50.023  0.00  0.00     0.081 A 
ATOM      6  C   UNL d   1     -41.981-122.397 -49.344  0.00  0.00     0.002 A 
ATOM      7  C   UNL d   1     -41.127-123.817 -49.307  0.00  0.00     0.019 A 
ATOM      8  C   UNL d   1     -41.764-122.732 -48.623  0.00  0.00     0.000 A 
ATOM      9  C   UNL d   1     -41.343-123.432 -48.599  0.00  0.00     0.002 A 
ENDROOT
BRANCH   1  10
ATOM     10  C   UNL d   1     -42.313-121.909 -51.110  0.00  0.00     0.048 C 
BRANCH  10  11
ATOM     11  C   UNL d   1     -43.108-121.810 -50.938  0.00  0.00     0.102 A 
ATOM     12  O   UNL d   1     -43.542-122.218 -50.361  0.00  0.00    -0.305 OA
ATOM     13  C   UNL d   1     -44.312-121.938 -50.386  0.00  0.00     0.123 A 
ATOM     14  C   UNL d   1     -44.365-121.352 -50.980  0.00  0.00     0.029 A 
ATOM     15  C   UNL d   1     -43.622-121.282 -51.311  0.00  0.00     0.027 A 
ENDBRANCH  10  11
BRANCH  10  16
ATOM     16  C   UNL d   1     -41.908-121.340 -51.559  0.00  0.00     0.150 C 
BRANCH  16  17
ATOM     17  N   UNL d   1     -41.642-120.649 -51.194  0.00  0.00    -0.112 N 
ATOM     18  O   UNL d   1     -41.821-120.490 -50.403  0.00  0.00    -0.532 OA
ATOM     19  O   UNL d   1     -41.181-120.091 -51.622  0.00  0.00    -0.532 OA
ENDBRANCH  16  17
ENDBRANCH  10  16
ENDBRANCH   1  10
BRANCH   2  20
ATOM     20  C   UNL d   1     -41.561-123.198 -52.133  0.00  0.00     0.018 A 
ATOM     21  C   UNL d   1     -42.008-123.776 -52.534  0.00  0.00     0.002 A 
ATOM     22  C   UNL d   1     -42.013-123.805 -53.359  0.00  0.00     0.000 A 
ATOM     23  C   UNL d   1     -41.572-123.256 -53.793  0.00  0.00     0.000 A 
ATOM     24  C   UNL d   1     -41.124-122.677 -53.400  0.00  0.00     0.000 A 
ATOM     25  C   UNL d   1     -41.578-123.285 -54.613  0.00  0.00     0.000 C 
ATOM     26  C   UNL d   1     -41.124-122.654 -52.567  0.00  0.00     0.002 A 
ENDBRANCH   2  20
TORSDOF 5
ENDMDL
MODEL 2
REMARK VINA RESULT:      10.5      1.266      1.769
REMARK  5 active torsions:
REMARK  status: ('A' for Active; 'I' for Inactive)
REMARK    1  A    between atoms: C_4  and  C_1 
REMARK    2  A    between atoms: C_10  and  C_2 
REMARK    3  A    between atoms: C_8  and  C_4 
REMARK    4  A    between atoms: C_9  and  C_4 
REMARK    5  A    between atoms: N_5  and  C_9 
ROOT
ATOM      1  C   UNL d   1     -42.333-122.973 -49.502  0.00  0.00     0.023 A 
ATOM      2  C   UNL d   1     -41.657-123.225 -49.920  0.00  0.00     0.081 A 
ATOM      3  N   UNL d   1     -41.123-123.527 -49.380  0.00  0.00    -0.246 NA
ATOM      4  C   UNL d   1     -42.206-123.124 -48.701  0.00  0.00     0.019 A 
ATOM      5  C   UNL d   1     -41.456-123.468 -48.618  0.00  0.00     0.081 A 
ATOM      6  C   UNL d   1     -42.672-122.995 -48.034  0.00  0.00     0.002 A 
ATOM      7  C   UNL d   1     -41.171-123.682 -47.880  0.00  0.00     0.019 A 
ATOM      8  C   UNL d   1     -42.388-123.209 -47.291  0.00  0.00     0.000 A 
ATOM      9  C   UNL d   1     -41.649-123.548 -47.209  0.00  0.00     0.002 A 
ENDROOT
BRANCH   1  10
ATOM     10  C   UNL d   1     -43.015-122.631 -49.827  0.00  0.00     0.048 C 
BRANCH  10  11
ATOM     11  C   UNL d   1     -43.735-123.019 -49.784  0.00  0.00     0.102 A 
ATOM     12  O   UNL d   1     -43.960-123.578 -49.213  0.00  0.00    -0.305 OA
ATOM     13  C   UNL d   1     -44.724-123.817 -49.388  0.00  0.00     0.123 A 
ATOM     14  C   UNL d   1     -44.983-123.409 -50.072  0.00  0.00     0.029 A 
ATOM     15  C   UNL d   1     -44.370-122.924 -50.304  0.00  0.00     0.027 A 
ENDBRANCH  10  11
BRANCH  10  16
ATOM     16  C   UNL d   1     -42.961-121.890 -50.198  0.00  0.00     0.150 C 
BRANCH  16  17
ATOM     17  N   UNL d   1     -43.636-121.418 -50.261  0.00  0.00    -0.112 N 
ATOM     18  O   UNL d   1     -43.984-121.081 -49.592  0.00  0.00    -0.532 OA
ATOM     19  O   UNL d   1     -43.984-121.270 -51.012  0.00  0.00    -0.532 OA
ENDBRANCH  16  17
ENDBRANCH  10  16
ENDBRANCH   1  10
BRANCH   2  20
ATOM     20  C   UNL d   1     -41.549-123.177 -50.737  0.00  0.00     0.018 A 
ATOM     21  C   UNL d   1     -41.759-123.817 -51.227  0.00  0.00     0.002 A 
ATOM     22  C   UNL d   1     -41.653-123.773 -52.044  0.00  0.00     0.000 A 
ATOM     23  C   UNL d   1     -41.335-123.088 -52.381  0.00  0.00     0.000 A 
ATOM     24  C   UNL d   1     -41.123-122.445 -51.899  0.00  0.00     0.000 A 
ATOM     25  C   UNL d   1     -41.229-123.044 -53.194  0.00  0.00     0.000 C 
ATOM     26  C   UNL d   1     -41.233-122.497 -51.075  0.00  0.00     0.002 A 
ENDBRANCH   2  20
TORSDOF 5
ENDMDL
MODEL 3
REMARK VINA RESULT:      12.4      1.040      1.750
REMARK  5 active torsions:
REMARK  status: ('A' for Active; 'I' for Inactive)
REMARK    1  A    between atoms: C_4  and  C_1 
REMARK    2  A    between atoms: C_10  and  C_2 
REMARK    3  A    between atoms: C_8  and  C_4 
REMARK    4  A    between atoms: C_9  and  C_4 
REMARK    5  A    between atoms: N_5  and  C_9 
ROOT
ATOM      1  C   UNL d   1     -41.811-122.496 -51.565  0.00  0.00     0.023 A 
ATOM      2  C   UNL d   1     -41.476-123.090 -52.044  0.00  0.00     0.081 A 
ATOM      3  N   UNL d   1     -41.170-123.669 -51.554  0.00  0.00    -0.246 NA
ATOM      4  C   UNL d   1     -41.706-122.717 -50.778  0.00  0.00     0.019 A 
ATOM      5  C   UNL d   1     -41.309-123.445 -50.764  0.00  0.00     0.081 A 
ATOM      6  C   UNL d   1     -41.918-122.355 -50.069  0.00  0.00     0.002 A 
ATOM      7  C   UNL d   1     -41.124-123.809 -50.053  0.00  0.00     0.019 A 
ATOM      8  C   UNL d   1     -41.734-122.719 -49.353  0.00  0.00     0.000 A 
ATOM      9  C   UNL d   1     -41.343-123.436 -49.339  0.00  0.00     0.002 A 
ENDROOT
BRANCH   1  10
ATOM     10  C   UNL d   1     -42.184-121.803 -51.827  0.00  0.00     0.048 C 
BRANCH  10  11
ATOM     11  C   UNL d   1     -41.819-121.075 -51.737  0.00  0.00     0.102 A 
ATOM     12  O   UNL d   1     -41.795-120.463 -52.297  0.00  0.00    -0.305 OA
ATOM     13  C   UNL d   1     -41.372-119.843 -51.968  0.00  0.00     0.123 A 
ATOM     14  C   UNL d   1     -41.127-120.063 -51.199  0.00  0.00     0.029 A 
ATOM     15  C   UNL d   1     -41.406-120.819 -51.069  0.00  0.00     0.027 A 
ENDBRANCH  10  11
BRANCH  10  16
ATOM     16  C   UNL d   1     -42.932-121.854 -52.184  0.00  0.00     0.150 C 
BRANCH  16  17
ATOM     17  N   UNL d   1     -43.605-121.676 -51.740  0.00  0.00    -0.112 N 
ATOM     18  O   UNL d   1     -43.687-121.947 -50.964  0.00  0.00    -0.532 OA
ATOM     19  O   UNL d   1     -44.224-121.213 -52.071  0.00  0.00    -0.532 OA
ENDBRANCH  16  17
ENDBRANCH  10  16
ENDBRANCH   1  10
BRANCH   2  20
ATOM     20  C   UNL d   1     -41.458-123.092 -52.869  0.00  0.00     0.018 A 
ATOM     21  C   UNL d   1     -41.435-123.812 -53.288  0.00  0.00     0.002 A 
ATOM     22  C   UNL d   1     -41.417-123.818 -54.113  0.00  0.00     0.000 A 
ATOM     23  C   UNL d   1     -41.423-123.104 -54.530  0.00  0.00     0.000 A 
ATOM     24  C   UNL d   1     -41.446-122.381 -54.119  0.00  0.00     0.000 A 
ATOM     25  C   UNL d   1     -41.405-123.109 -55.351  0.00  0.00     0.000 C 
ATOM     26  C   UNL d   1     -41.464-122.383 -53.286  0.00  0.00     0.002 A 
ENDBRANCH   2  20
TORSDOF 5
ENDMDL
