MODEL 1
REMARK VINA RESULT:      -2.6      0.000      0.000
REMARK  5 active torsions:
REMARK  status: ('A' for Active; 'I' for Inactive)
REMARK    1  A    between atoms: C_5  and  N_1 
REMARK    2  A    between atoms: C_6  and  C_5 
REMARK       I    between atoms: N_9  and  C_6 
REMARK    3  A    between atoms: C_13  and  N_9 
REMARK    4  A    between atoms: O_19  and  C_14 
REMARK    5  A    between atoms: C_21  and  O_19 
ROOT
ATOM      1  C   UNL d   1      32.520  18.129 -23.571  0.00  0.00     0.297 C 
ATOM      2  N   UNL d   1      32.517  17.402 -23.960  0.00  0.00    -0.207 NA
ATOM      3  O   UNL d   1      31.811  18.457 -23.303  0.00  0.00    -0.264 OA
ENDROOT
BRANCH   1   4
ATOM      4  C   UNL d   1      33.227  18.528 -23.449  0.00  0.00     0.148 C 
BRANCH   4   5
ATOM      5  N   UNL d   1      33.229  19.263 -23.074  0.00  0.00    -0.235 N 
ATOM      6  C   UNL d   1      33.232  19.301 -22.241  0.00  0.00     0.273 A 
ATOM      7  C   UNL d   1      33.234  20.036 -21.866  0.00  0.00     0.086 A 
ATOM      8  O   UNL d   1      33.234  18.600 -21.796  0.00  0.00    -0.266 OA
ATOM      9  C   UNL d   1      33.238  20.082 -21.040  0.00  0.00     0.012 C 
ATOM     10  S   UNL d   1      33.233  20.733 -22.323  0.00  0.00    -0.077 SA
ATOM     11  C   UNL d   1      33.229  20.686 -23.140  0.00  0.00     0.097 A 
ATOM     12  C   UNL d   1      33.228  19.951 -23.515  0.00  0.00     0.274 A 
ATOM     13  O   UNL d   1      33.224  19.905 -24.352  0.00  0.00    -0.266 OA
ENDBRANCH   4   5
ENDBRANCH   1   4
BRANCH   2  14
ATOM     14  C   UNL d   1      31.804  17.003 -24.082  0.00  0.00     0.085 A 
ATOM     15  C   UNL d   1      31.498  16.528 -23.493  0.00  0.00     0.021 A 
ATOM     16  C   UNL d   1      30.799  16.133 -23.603  0.00  0.00     0.026 A 
ATOM     17  C   UNL d   1      30.390  16.212 -24.325  0.00  0.00     0.100 A 
ATOM     18  C   UNL d   1      30.697  16.686 -24.913  0.00  0.00     0.026 A 
ATOM     19  C   UNL d   1      31.416  17.087 -24.787  0.00  0.00     0.021 A 
BRANCH  17  20
ATOM     20  O   UNL d   1      29.668  15.803 -24.438  0.00  0.00    -0.305 OA
BRANCH  20  21
ATOM     21  C   UNL d   1      29.008  15.979 -23.976  0.00  0.00     0.123 C 
ATOM     22  C   UNL d   1      28.291  15.606 -24.123  0.00  0.00     0.029 C 
ENDBRANCH  20  21
ENDBRANCH  17  20
ENDBRANCH   2  14
TORSDOF 5
ENDMDL
MODEL 2
REMARK VINA RESULT:      -2.4      1.736      4.750
REMARK  5 active torsions:
REMARK  status: ('A' for Active; 'I' for Inactive)
REMARK    1  A    between atoms: C_5  and  N_1 
REMARK    2  A    between atoms: C_6  and  C_5 
REMARK       I    between atoms: N_9  and  C_6 
REMARK    3  A    between atoms: C_13  and  N_9 
REMARK    4  A    between atoms: O_19  and  C_14 
REMARK    5  A    between atoms: C_21  and  O_19 
ROOT
ATOM      1  C   UNL d   1      32.001  17.669 -23.970  0.00  0.00     0.297 C 
ATOM      2  N   UNL d   1      32.733  17.833 -23.626  0.00  0.00    -0.207 NA
ATOM      3  O   UNL d   1      31.397  18.231 -23.944  0.00  0.00    -0.264 OA
ENDROOT
BRANCH   1   4
ATOM      4  C   UNL d   1      31.872  16.947 -24.339  0.00  0.00     0.148 C 
BRANCH   4   5
ATOM      5  N   UNL d   1      31.207  16.497 -24.149  0.00  0.00    -0.235 N 
ATOM      6  C   UNL d   1      30.482  16.651 -24.529  0.00  0.00     0.273 A 
ATOM      7  C   UNL d   1      29.817  16.202 -24.339  0.00  0.00     0.086 A 
ATOM      8  O   UNL d   1      30.434  17.256 -25.096  0.00  0.00    -0.266 OA
ATOM      9  C   UNL d   1      29.093  16.349 -24.712  0.00  0.00     0.012 C 
ATOM     10  S   UNL d   1      29.877  15.597 -23.768  0.00  0.00    -0.077 SA
ATOM     11  C   UNL d   1      30.592  15.453 -23.399  0.00  0.00     0.097 A 
ATOM     12  C   UNL d   1      31.257  15.902 -23.590  0.00  0.00     0.274 A 
ATOM     13  O   UNL d   1      31.990  15.753 -23.211  0.00  0.00    -0.266 OA
ENDBRANCH   4   5
ENDBRANCH   1   4
BRANCH   2  14
ATOM     14  C   UNL d   1      32.860  18.560 -23.256  0.00  0.00     0.085 A 
ATOM     15  C   UNL d   1      32.929  19.239 -23.703  0.00  0.00     0.021 A 
ATOM     16  C   UNL d   1      33.054  19.956 -23.349  0.00  0.00     0.026 A 
ATOM     17  C   UNL d   1      33.112  20.001 -22.518  0.00  0.00     0.100 A 
ATOM     18  C   UNL d   1      33.042  19.322 -22.071  0.00  0.00     0.026 A 
ATOM     19  C   UNL d   1      32.914  18.591 -22.449  0.00  0.00     0.021 A 
BRANCH  17  20
ATOM     20  O   UNL d   1      33.241  20.743 -22.152  0.00  0.00    -0.305 OA
BRANCH  20  21
ATOM     21  C   UNL d   1      32.874  20.928 -21.437  0.00  0.00     0.123 C 
ATOM     22  C   UNL d   1      32.942  21.684 -21.123  0.00  0.00     0.029 C 
ENDBRANCH  20  21
ENDBRANCH  17  20
ENDBRANCH   2  14
TORSDOF 5
ENDMDL
MODEL 3
REMARK VINA RESULT:      -0.3      1.654      2.734
REMARK  5 active torsions:
REMARK  status: ('A' for Active; 'I' for Inactive)
REMARK    1  A    between atoms: C_5  and  N_1 
REMARK    2  A    between atoms: C_6  and  C_5 
REMARK       I    between atoms: N_9  and  C_6 
REMARK    3  A    between atoms: C_13  and  N_9 
REMARK    4  A    between atoms: O_19  and  C_14 
REMARK    5  A    between atoms: C_21  and  O_19 
ROOT
ATOM      1  C   UNL d   1      32.826  19.998 -22.276  0.00  0.00     0.297 C 
ATOM      2  N   UNL d   1      33.240  19.422 -22.696  0.00  0.00    -0.207 NA
ATOM      3  O   UNL d   1      32.005  20.044 -22.338  0.00  0.00    -0.264 OA
ENDROOT
BRANCH   1   4
ATOM      4  C   UNL d   1      33.230  20.527 -21.795  0.00  0.00     0.148 C 
BRANCH   4   5
ATOM      5  N   UNL d   1      32.875  21.237 -21.571  0.00  0.00    -0.235 N 
ATOM      6  C   UNL d   1      32.880  21.885 -22.096  0.00  0.00     0.273 A 
ATOM      7  C   UNL d   1      32.525  22.595 -21.872  0.00  0.00     0.086 A 
ATOM      8  O   UNL d   1      33.241  21.809 -22.839  0.00  0.00    -0.266 OA
ATOM      9  C   UNL d   1      32.525  23.242 -22.388  0.00  0.00     0.012 C 
ATOM     10  S   UNL d   1      32.165  22.659 -21.123  0.00  0.00    -0.077 SA
ATOM     11  C   UNL d   1      32.165  22.019 -20.614  0.00  0.00     0.097 A 
ATOM     12  C   UNL d   1      32.520  21.308 -20.838  0.00  0.00     0.274 A 
ATOM     13  O   UNL d   1      32.519  20.653 -20.315  0.00  0.00    -0.266 OA
ENDBRANCH   4   5
ENDBRANCH   1   4
BRANCH   2  14
ATOM     14  C   UNL d   1      32.832  18.891 -23.179  0.00  0.00     0.085 A 
ATOM     15  C   UNL d   1      32.710  19.068 -23.966  0.00  0.00     0.021 A 
ATOM     16  C   UNL d   1      32.310  18.554 -24.448  0.00  0.00     0.026 A 
ATOM     17  C   UNL d   1      32.022  17.837 -24.136  0.00  0.00     0.100 A 
ATOM     18  C   UNL d   1      32.145  17.659 -23.349  0.00  0.00     0.026 A 
ATOM     19  C   UNL d   1      32.557  18.198 -22.865  0.00  0.00     0.021 A 
BRANCH  17  20
ATOM     20  O   UNL d   1      31.609  17.305 -24.634  0.00  0.00    -0.305 OA
BRANCH  20  21
ATOM     21  C   UNL d   1      31.003  16.832 -24.334  0.00  0.00     0.123 C 
ATOM     22  C   UNL d   1      30.513  16.418 -24.846  0.00  0.00     0.029 C 
ENDBRANCH  20  21
ENDBRANCH  17  20
ENDBRANCH   2  14
TORSDOF 5
ENDMDL
MODEL 4
REMARK VINA RESULT:       0.1      1.359      2.217
REMARK  5 active torsions:
REMARK  status: ('A' for Active; 'I' for Inactive)
REMARK    1  A    between atoms: C_5  and  N_1 
REMARK    2  A    between atoms: C_6  and  C_5 
REMARK       I    between atoms: N_9  and  C_6 
REMARK    3  A    between atoms: C_13  and  N_9 
REMARK    4  A    between atoms: O_19  and  C_14 
REMARK    5  A    between atoms: C_21  and  O_19 
ROOT
ATOM      1  C   UNL d   1      31.421  16.847 -24.173  0.00  0.00     0.297 C 
ATOM      2  N   UNL d   1      30.986  16.377 -24.694  0.00  0.00    -0.207 NA
ATOM      3  O   UNL d   1      31.087  17.085 -23.457  0.00  0.00    -0.264 OA
ENDROOT
BRANCH   1   4
ATOM      4  C   UNL d   1      32.184  17.079 -24.366  0.00  0.00     0.148 C 
BRANCH   4   5
ATOM      5  N   UNL d   1      32.536  17.714 -23.974  0.00  0.00    -0.235 N 
ATOM      6  C   UNL d   1      32.531  18.470 -24.324  0.00  0.00     0.273 A 
ATOM      7  C   UNL d   1      32.882  19.105 -23.931  0.00  0.00     0.086 A 
ATOM      8  O   UNL d   1      32.171  18.579 -25.064  0.00  0.00    -0.266 OA
ATOM      9  C   UNL d   1      32.881  19.859 -24.273  0.00  0.00     0.012 C 
ATOM     10  S   UNL d   1      33.240  18.984 -23.188  0.00  0.00    -0.077 SA
ATOM     11  C   UNL d   1      33.241  18.238 -22.852  0.00  0.00     0.097 A 
ATOM     12  C   UNL d   1      32.889  17.603 -23.244  0.00  0.00     0.274 A 
ATOM     13  O   UNL d   1      32.891  16.840 -22.898  0.00  0.00    -0.266 OA
ENDBRANCH   4   5
ENDBRANCH   1   4
BRANCH   2  14
ATOM     14  C   UNL d   1      30.219  16.146 -24.498  0.00  0.00     0.085 A 
ATOM     15  C   UNL d   1      29.911  16.335 -23.767  0.00  0.00     0.021 A 
ATOM     16  C   UNL d   1      29.158  16.112 -23.565  0.00  0.00     0.026 A 
ATOM     17  C   UNL d   1      28.695  15.685 -24.111  0.00  0.00     0.100 A 
ATOM     18  C   UNL d   1      29.004  15.495 -24.842  0.00  0.00     0.026 A 
ATOM     19  C   UNL d   1      29.779  15.731 -25.036  0.00  0.00     0.021 A 
BRANCH  17  20
ATOM     20  O   UNL d   1      27.918  15.454 -23.902  0.00  0.00    -0.305 OA
BRANCH  20  21
ATOM     21  C   UNL d   1      27.359  16.017 -23.674  0.00  0.00     0.123 C 
ATOM     22  C   UNL d   1      26.706  15.792 -23.231  0.00  0.00     0.029 C 
ENDBRANCH  20  21
ENDBRANCH  17  20
ENDBRANCH   2  14
TORSDOF 5
ENDMDL
