MODEL 1
REMARK VINA RESULT:      39.9      0.000      0.000
REMARK  9 active torsions:
REMARK  status: ('A' for Active; 'I' for Inactive)
REMARK    1  A    between atoms: C_6  and  N_1 
REMARK    2  A    between atoms: C_2  and  O_5 
REMARK    3  A    between atoms: C_8  and  C_3 
REMARK    4  A    between atoms: C_4  and  C_9 
REMARK    5  A    between atoms: O_5  and  C_4 
REMARK    6  A    between atoms: C_7  and  C_8 
REMARK    7  A    between atoms: C_13  and  C_7 
REMARK    8  A    between atoms: C_10  and  C_13 
REMARK    9  A    between atoms: O_25  and  C_23 
ROOT
ATOM      1  C   UNL d   1      13.365  13.052  -3.761  0.00  0.00     0.108 A 
ATOM      2  C   UNL d   1      13.362  13.801  -4.109  0.00  0.00     0.062 A 
ATOM      3  C   UNL d   1      13.259  12.375  -4.235  0.00  0.00     0.049 A 
ATOM      4  C   UNL d   1      13.252  13.875  -4.932  0.00  0.00     0.007 A 
ATOM      5  C   UNL d   1      13.151  12.453  -5.050  0.00  0.00     0.096 A 
ATOM      6  C   UNL d   1      13.148  13.202  -5.398  0.00  0.00     0.024 A 
ENDROOT
BRANCH   1   7
ATOM      7  O   UNL d   1      13.474  12.971  -2.945  0.00  0.00    -0.273 OA
BRANCH   7   8
ATOM      8  C   UNL d   1      13.884  12.317  -2.649  0.00  0.00     0.300 C 
ATOM      9  O   UNL d   1      14.248  11.786  -3.162  0.00  0.00    -0.259 OA
BRANCH   8  10
ATOM     10  C   UNL d   1      13.928  12.201  -1.834  0.00  0.00     0.065 A 
ATOM     11  C   UNL d   1      14.623  12.392  -1.437  0.00  0.00     0.029 A 
ATOM     12  C   UNL d   1      14.668  12.277  -0.626  0.00  0.00     0.127 A 
ATOM     13  C   UNL d   1      14.020  11.972  -0.213  0.00  0.00     0.024 A 
ATOM     14  C   UNL d   1      13.333  11.786  -0.618  0.00  0.00     0.002 A 
ATOM     15  C   UNL d   1      13.286  11.900  -1.426  0.00  0.00     0.005 A 
BRANCH  12  16
ATOM     16  N   UNL d   1      15.365  12.468  -0.224  0.00  0.00    -0.114 N 
ATOM     17  O   UNL d   1      15.517  13.250  -0.015  0.00  0.00    -0.532 OA
ATOM     18  O   UNL d   1      15.915  11.870  -0.029  0.00  0.00    -0.532 OA
ENDBRANCH  12  16
ENDBRANCH   8  10
ENDBRANCH   7   8
ENDBRANCH   1   7
BRANCH   2  19
ATOM     19  C   UNL d   1      13.467  14.476  -3.640  0.00  0.00     0.198 C 
ATOM     20  O   UNL d   1      12.903  14.675  -3.070  0.00  0.00    -0.286 OA
BRANCH  19  21
ATOM     21  C   UNL d   1      14.135  14.950  -3.743  0.00  0.00     0.043 C 
BRANCH  21  22
ATOM     22  C   UNL d   1      14.141  15.720  -3.447  0.00  0.00     0.010 C 
BRANCH  22  23
ATOM     23  C   UNL d   1      14.663  16.276  -3.764  0.00  0.00     0.030 A 
ATOM     24  S   UNL d   1      15.150  16.793  -3.341  0.00  0.00    -0.086 SA
ATOM     25  C   UNL d   1      15.579  17.251  -3.877  0.00  0.00     0.035 A 
ATOM     26  C   UNL d   1      15.360  17.022  -4.639  0.00  0.00     0.007 A 
ATOM     27  C   UNL d   1      14.794  16.420  -4.571  0.00  0.00     0.007 A 
ENDBRANCH  22  23
ENDBRANCH  21  22
ENDBRANCH  19  21
ENDBRANCH   2  19
BRANCH   5  28
ATOM     28  O   UNL d   1      13.047  11.780  -5.516  0.00  0.00    -0.328 OA
ATOM     29  C   UNL d   1      13.193  11.814  -6.331  0.00  0.00     0.181 C 
ENDBRANCH   5  28
TORSDOF 9
ENDMDL
MODEL 2
REMARK VINA RESULT:      41.3      1.726      3.851
REMARK  9 active torsions:
REMARK  status: ('A' for Active; 'I' for Inactive)
REMARK    1  A    between atoms: C_6  and  N_1 
REMARK    2  A    between atoms: C_2  and  O_5 
REMARK    3  A    between atoms: C_8  and  C_3 
REMARK    4  A    between atoms: C_4  and  C_9 
REMARK    5  A    between atoms: O_5  and  C_4 
REMARK    6  A    between atoms: C_7  and  C_8 
REMARK    7  A    between atoms: C_13  and  C_7 
REMARK    8  A    between atoms: C_10  and  C_13 
REMARK    9  A    between atoms: O_25  and  C_23 
ROOT
ATOM      1  C   UNL d   1      13.447  13.175  -3.857  0.00  0.00     0.108 A 
ATOM      2  C   UNL d   1      13.295  12.466  -3.462  0.00  0.00     0.062 A 
ATOM      3  C   UNL d   1      13.418  13.200  -4.690  0.00  0.00     0.049 A 
ATOM      4  C   UNL d   1      13.113  11.780  -3.898  0.00  0.00     0.007 A 
ATOM      5  C   UNL d   1      13.239  12.517  -5.118  0.00  0.00     0.096 A 
ATOM      6  C   UNL d   1      13.086  11.808  -4.723  0.00  0.00     0.024 A 
ENDROOT
BRANCH   1   7
ATOM      7  O   UNL d   1      13.627  13.861  -3.431  0.00  0.00    -0.273 OA
BRANCH   7   8
ATOM      8  C   UNL d   1      13.458  14.602  -3.756  0.00  0.00     0.300 C 
ATOM      9  O   UNL d   1      12.781  14.713  -4.211  0.00  0.00    -0.259 OA
BRANCH   8  10
ATOM     10  C   UNL d   1      13.972  15.232  -3.619  0.00  0.00     0.065 A 
ATOM     11  C   UNL d   1      14.134  15.458  -2.844  0.00  0.00     0.029 A 
ATOM     12  C   UNL d   1      14.645  16.084  -2.706  0.00  0.00     0.127 A 
ATOM     13  C   UNL d   1      14.995  16.483  -3.341  0.00  0.00     0.024 A 
ATOM     14  C   UNL d   1      14.827  16.250  -4.107  0.00  0.00     0.002 A 
ATOM     15  C   UNL d   1      14.317  15.626  -4.247  0.00  0.00     0.005 A 
BRANCH  12  16
ATOM     16  N   UNL d   1      14.810  16.315  -1.929  0.00  0.00    -0.114 N 
ATOM     17  O   UNL d   1      14.910  17.112  -1.749  0.00  0.00    -0.532 OA
ATOM     18  O   UNL d   1      14.875  15.740  -1.326  0.00  0.00    -0.532 OA
ENDBRANCH  12  16
ENDBRANCH   8  10
ENDBRANCH   7   8
ENDBRANCH   1   7
BRANCH   2  19
ATOM     19  C   UNL d   1      13.322  12.439  -2.634  0.00  0.00     0.198 C 
ATOM     20  O   UNL d   1      12.770  12.862  -2.189  0.00  0.00    -0.286 OA
BRANCH  19  21
ATOM     21  C   UNL d   1      13.902  11.990  -2.256  0.00  0.00     0.043 C 
BRANCH  21  22
ATOM     22  C   UNL d   1      13.898  11.924  -1.433  0.00  0.00     0.010 C 
BRANCH  22  23
ATOM     23  C   UNL d   1      14.606  11.985  -1.014  0.00  0.00     0.030 A 
ATOM     24  S   UNL d   1      15.369  11.880  -1.315  0.00  0.00    -0.086 SA
ATOM     25  C   UNL d   1      15.912  11.993  -0.704  0.00  0.00     0.035 A 
ATOM     26  C   UNL d   1      15.490  12.168  -0.017  0.00  0.00     0.007 A 
ATOM     27  C   UNL d   1      14.683  12.164  -0.206  0.00  0.00     0.007 A 
ENDBRANCH  22  23
ENDBRANCH  21  22
ENDBRANCH  19  21
ENDBRANCH   2  19
BRANCH   5  28
ATOM     28  O   UNL d   1      13.212  12.546  -5.942  0.00  0.00    -0.328 OA
ATOM     29  C   UNL d   1      13.824  12.209  -6.388  0.00  0.00     0.181 C 
ENDBRANCH   5  28
TORSDOF 9
ENDMDL
