MODEL 1
REMARK VINA RESULT:       7.8      0.000      0.000
REMARK  2 active torsions:
REMARK  status: ('A' for Active; 'I' for Inactive)
REMARK    1  A    between atoms: C_6  and  C_1 
REMARK    2  A    between atoms: C_7  and  C_5 
ROOT
ATOM      1  C   UNL d   1      45.290 -12.970  43.886  0.00  0.00     0.085 A 
ATOM      2  C   UNL d   1      45.751 -12.827  44.556  0.00  0.00     0.137 A 
ATOM      3  C   UNL d   1      45.107 -13.760  43.847  0.00  0.00     0.013 A 
ATOM      4  S   UNL d   1      45.851 -13.550  44.934  0.00  0.00    -0.066 SA
ATOM      5  C   UNL d   1      45.462 -14.117  44.507  0.00  0.00     0.031 A 
ATOM      6  N   UNL d   1      46.040 -12.084  44.774  0.00  0.00    -0.141 N 
ENDROOT
BRANCH   5   7
ATOM      7  C   UNL d   1      45.398 -14.918  44.656  0.00  0.00     0.006 A 
ATOM      8  C   UNL d   1      46.065 -15.379  44.665  0.00  0.00     0.001 A 
ATOM      9  C   UNL d   1      46.008 -16.191  44.815  0.00  0.00     0.000 A 
ATOM     10  C   UNL d   1      45.278 -16.530  44.955  0.00  0.00     0.000 A 
ATOM     11  C   UNL d   1      44.599 -16.063  44.947  0.00  0.00     0.000 A 
ATOM     12  C   UNL d   1      44.662 -15.261  44.798  0.00  0.00     0.001 A 
ENDBRANCH   5   7
BRANCH   1  13
ATOM     13  C   UNL d   1      45.040 -12.397  43.321  0.00  0.00     0.299 C 
ATOM     14  O   UNL d   1      45.547 -12.161  42.731  0.00  0.00    -0.264 OA
ATOM     15  N   UNL d   1      44.283 -12.086  43.379  0.00  0.00    -0.102 N 
ENDBRANCH   1  13
TORSDOF 2
ENDMDL
MODEL 2
REMARK VINA RESULT:      10.3      7.427      7.984
REMARK  2 active torsions:
REMARK  status: ('A' for Active; 'I' for Inactive)
REMARK    1  A    between atoms: C_6  and  C_1 
REMARK    2  A    between atoms: C_7  and  C_5 
ROOT
ATOM      1  C   UNL d   1      45.677 -14.750  36.918  0.00  0.00     0.085 A 
ATOM      2  C   UNL d   1      45.864 -15.459  36.537  0.00  0.00     0.137 A 
ATOM      3  C   UNL d   1      44.872 -14.701  37.019  0.00  0.00     0.013 A 
ATOM      4  S   UNL d   1      45.153 -15.851  36.404  0.00  0.00    -0.066 SA
ATOM      5  C   UNL d   1      44.551 -15.395  36.694  0.00  0.00     0.031 A 
ATOM      6  N   UNL d   1      46.631 -15.696  36.343  0.00  0.00    -0.141 N 
ENDROOT
BRANCH   5   7
ATOM      7  C   UNL d   1      43.748 -15.544  36.694  0.00  0.00     0.006 A 
ATOM      8  C   UNL d   1      43.240 -15.003  37.021  0.00  0.00     0.001 A 
ATOM      9  C   UNL d   1      42.425 -15.147  37.024  0.00  0.00     0.000 A 
ATOM     10  C   UNL d   1      42.130 -15.836  36.698  0.00  0.00     0.000 A 
ATOM     11  C   UNL d   1      42.646 -16.387  36.365  0.00  0.00     0.000 A 
ATOM     12  C   UNL d   1      43.450 -16.238  36.365  0.00  0.00     0.001 A 
ENDBRANCH   5   7
BRANCH   1  13
ATOM     13  C   UNL d   1      46.223 -14.160  37.168  0.00  0.00     0.299 C 
ATOM     14  O   UNL d   1      46.327 -13.487  36.723  0.00  0.00    -0.264 OA
ATOM     15  N   UNL d   1      46.644 -14.277  37.863  0.00  0.00    -0.102 N 
ENDBRANCH   1  13
TORSDOF 2
ENDMDL
