MODEL 1
REMARK VINA RESULT:      -7.9      0.000      0.000
REMARK  8 active torsions:
REMARK  status: ('A' for Active; 'I' for Inactive)
REMARK    1  A    between atoms: C_11  and  C_3 
REMARK    2  A    between atoms: C_10  and  C_4 
REMARK    3  A    between atoms: O_18  and  C_10 
REMARK    4  A    between atoms: N_17  and  C_11 
REMARK    5  A    between atoms: C_12  and  C_15 
REMARK    6  A    between atoms: C_15  and  C_23 
REMARK    7  A    between atoms: C_23  and  N_17 
REMARK    8  A    between atoms: C_24  and  O_18 
ROOT
ATOM      1  C   UNL d   1     -47.779  13.076  23.086  0.00  0.00     0.035 A 
ATOM      2  C   UNL d   1     -48.574  13.289  22.984  0.00  0.00     0.100 A 
ATOM      3  C   UNL d   1     -47.583  12.308  23.323  0.00  0.00     0.060 A 
ATOM      4  C   UNL d   1     -47.316  13.725  22.917  0.00  0.00     0.088 A 
ATOM      5  O   UNL d   1     -48.587  14.051  22.758  0.00  0.00    -0.307 OA
ATOM      6  C   UNL d   1     -47.833  14.328  22.713  0.00  0.00     0.105 A 
ATOM      7  C   UNL d   1     -48.184  11.759  23.456  0.00  0.00     0.197 A 
ATOM      8  C   UNL d   1     -49.146  12.737  23.119  0.00  0.00     0.026 A 
ATOM      9  C   UNL d   1     -48.950  11.970  23.356  0.00  0.00     0.041 A 
ATOM     10  O   UNL d   1     -47.983  10.974  23.698  0.00  0.00    -0.286 OA
ATOM     11  C   UNL d   1     -47.599  15.086  22.501  0.00  0.00     0.027 C 
ATOM     12  C   UNL d   1     -49.941  12.950  23.017  0.00  0.00     0.002 A 
ATOM     13  C   UNL d   1     -49.551  11.420  23.489  0.00  0.00     0.003 A 
ATOM     14  C   UNL d   1     -50.335  11.626  23.389  0.00  0.00     0.000 A 
ATOM     15  C   UNL d   1     -50.531  12.394  23.153  0.00  0.00     0.000 A 
ENDROOT
BRANCH   3  16
ATOM     16  C   UNL d   1     -46.762  12.084  23.430  0.00  0.00     0.102 C 
BRANCH  16  17
ATOM     17  N   UNL d   1     -46.537  11.275  23.407  0.00  0.00    -0.242 NA
BRANCH  17  18
ATOM     18  C   UNL d   1     -45.826  11.038  23.698  0.00  0.00     0.105 C 
BRANCH  18  19
ATOM     19  C   UNL d   1     -45.454  10.362  23.405  0.00  0.00     0.091 C 
BRANCH  19  20
ATOM     20  C   UNL d   1     -44.648  10.231  23.555  0.00  0.00     0.213 C 
ATOM     21  O   UNL d   1     -44.360   9.461  23.628  0.00  0.00    -0.644 OA
ATOM     22  O   UNL d   1     -44.142  10.874  23.630  0.00  0.00    -0.644 OA
ENDBRANCH  19  20
ENDBRANCH  18  19
ENDBRANCH  17  18
ENDBRANCH  16  17
ENDBRANCH   3  16
BRANCH   4  23
ATOM     23  C   UNL d   1     -46.489  13.805  22.934  0.00  0.00     0.302 C 
ATOM     24  O   UNL d   1     -46.105  14.023  23.646  0.00  0.00    -0.259 OA
BRANCH  23  25
ATOM     25  O   UNL d   1     -46.042  13.676  22.266  0.00  0.00    -0.271 OA
BRANCH  25  26
ATOM     26  C   UNL d   1     -45.309  14.015  22.199  0.00  0.00     0.126 C 
ATOM     27  C   UNL d   1     -44.748  13.616  21.768  0.00  0.00     0.029 C 
ENDBRANCH  25  26
ENDBRANCH  23  25
ENDBRANCH   4  23
TORSDOF 8
ENDMDL
MODEL 2
REMARK VINA RESULT:      -5.6      5.618      8.554
REMARK  8 active torsions:
REMARK  status: ('A' for Active; 'I' for Inactive)
REMARK    1  A    between atoms: C_11  and  C_3 
REMARK    2  A    between atoms: C_10  and  C_4 
REMARK    3  A    between atoms: O_18  and  C_10 
REMARK    4  A    between atoms: N_17  and  C_11 
REMARK    5  A    between atoms: C_12  and  C_15 
REMARK    6  A    between atoms: C_15  and  C_23 
REMARK    7  A    between atoms: C_23  and  N_17 
REMARK    8  A    between atoms: C_24  and  O_18 
ROOT
ATOM      1  C   UNL d   1     -39.744  14.917  19.936  0.00  0.00     0.035 A 
ATOM      2  C   UNL d   1     -39.341  15.263  19.299  0.00  0.00     0.100 A 
ATOM      3  C   UNL d   1     -40.416  14.455  19.799  0.00  0.00     0.060 A 
ATOM      4  C   UNL d   1     -39.359  15.122  20.624  0.00  0.00     0.088 A 
ATOM      5  O   UNL d   1     -38.726  15.668  19.600  0.00  0.00    -0.307 OA
ATOM      6  C   UNL d   1     -38.725  15.592  20.401  0.00  0.00     0.105 A 
ATOM      7  C   UNL d   1     -40.681  14.343  19.027  0.00  0.00     0.197 A 
ATOM      8  C   UNL d   1     -39.616  15.141  18.551  0.00  0.00     0.026 A 
ATOM      9  C   UNL d   1     -40.288  14.679  18.414  0.00  0.00     0.041 A 
ATOM     10  O   UNL d   1     -41.368  13.871  18.887  0.00  0.00    -0.286 OA
ATOM     11  C   UNL d   1     -38.186  15.922  20.926  0.00  0.00     0.027 C 
ATOM     12  C   UNL d   1     -39.213  15.487  17.914  0.00  0.00     0.002 A 
ATOM     13  C   UNL d   1     -40.553  14.567  17.641  0.00  0.00     0.003 A 
ATOM     14  C   UNL d   1     -40.159  14.906  17.011  0.00  0.00     0.000 A 
ATOM     15  C   UNL d   1     -39.487  15.368  17.148  0.00  0.00     0.000 A 
ENDROOT
BRANCH   3  16
ATOM     16  C   UNL d   1     -40.835  14.096  20.455  0.00  0.00     0.102 C 
BRANCH  16  17
ATOM     17  N   UNL d   1     -41.615  13.803  20.351  0.00  0.00    -0.242 NA
BRANCH  17  18
ATOM     18  C   UNL d   1     -42.004  13.443  20.956  0.00  0.00     0.105 C 
BRANCH  18  19
ATOM     19  C   UNL d   1     -42.804  13.249  20.888  0.00  0.00     0.091 C 
BRANCH  19  20
ATOM     20  C   UNL d   1     -43.191  12.858  21.509  0.00  0.00     0.213 C 
ATOM     21  O   UNL d   1     -42.859  12.179  21.842  0.00  0.00    -0.644 OA
ATOM     22  O   UNL d   1     -43.906  13.152  21.789  0.00  0.00    -0.644 OA
ENDBRANCH  19  20
ENDBRANCH  18  19
ENDBRANCH  17  18
ENDBRANCH  16  17
ENDBRANCH   3  16
BRANCH   4  23
ATOM     23  C   UNL d   1     -39.536  14.921  21.412  0.00  0.00     0.302 C 
ATOM     24  O   UNL d   1     -40.078  15.386  21.850  0.00  0.00    -0.259 OA
BRANCH  23  25
ATOM     25  O   UNL d   1     -39.189  14.276  21.766  0.00  0.00    -0.271 OA
BRANCH  25  26
ATOM     26  C   UNL d   1     -39.123  14.246  22.574  0.00  0.00     0.126 C 
ATOM     27  C   UNL d   1     -38.829  13.564  22.903  0.00  0.00     0.029 C 
ENDBRANCH  25  26
ENDBRANCH  23  25
ENDBRANCH   4  23
TORSDOF 8
ENDMDL
