MODEL 1
REMARK VINA RESULT:      -4.5      0.000      0.000
REMARK  6 active torsions:
REMARK  status: ('A' for Active; 'I' for Inactive)
REMARK    1  A    between atoms: C_9  and  C_2 
REMARK    2  A    between atoms: N_3  and  C_7 
REMARK       I    between atoms: C_8  and  N_14 
REMARK    3  A    between atoms: C_10  and  C_8 
REMARK    4  A    between atoms: C_13  and  C_10 
REMARK    5  A    between atoms: C_19  and  C_13 
REMARK    6  A    between atoms: N_14  and  C_20 
ROOT
ATOM      1  C   UNL d   1      56.441  -0.007  32.580  0.00  0.00     0.041 A 
ATOM      2  C   UNL d   1      56.286  -0.671  32.126  0.00  0.00     0.005 A 
ATOM      3  C   UNL d   1      57.072   0.488  32.434  0.00  0.00     0.005 A 
ATOM      4  C   UNL d   1      57.424  -0.344  31.351  0.00  0.00     0.085 A 
ATOM      5  C   UNL d   1      56.809  -0.823  31.496  0.00  0.00     0.019 A 
ATOM      6  C   UNL d   1      57.576   0.318  31.807  0.00  0.00     0.019 A 
ENDROOT
BRANCH   4   7
ATOM      7  N   UNL d   1      57.915  -0.536  30.717  0.00  0.00    -0.208 NA
ATOM      8  C   UNL d   1      57.917  -0.057  30.039  0.00  0.00     0.279 C 
ATOM      9  O   UNL d   1      57.427   0.598  30.020  0.00  0.00    -0.265 OA
BRANCH   8  10
ATOM     10  C   UNL d   1      58.407  -0.246  29.401  0.00  0.00     0.062 C 
BRANCH  10  11
ATOM     11  C   UNL d   1      59.168   0.048  29.348  0.00  0.00     0.005 C 
BRANCH  11  12
ATOM     12  C   UNL d   1      59.813  -0.434  29.095  0.00  0.00     0.002 A 
ATOM     13  C   UNL d   1      59.774  -1.254  29.186  0.00  0.00     0.024 A 
ATOM     14  C   UNL d   1      60.425  -1.732  28.930  0.00  0.00     0.127 A 
ATOM     15  C   UNL d   1      61.087  -1.364  28.594  0.00  0.00     0.024 A 
ATOM     16  C   UNL d   1      61.104  -0.544  28.514  0.00  0.00     0.002 A 
ATOM     17  C   UNL d   1      60.471  -0.071  28.762  0.00  0.00     0.000 A 
BRANCH  14  18
ATOM     18  N   UNL d   1      60.403  -2.547  29.013  0.00  0.00    -0.114 N 
ATOM     19  O   UNL d   1      60.722  -2.987  29.655  0.00  0.00    -0.532 OA
ATOM     20  O   UNL d   1      60.055  -3.052  28.457  0.00  0.00    -0.532 OA
ENDBRANCH  14  18
ENDBRANCH  11  12
ENDBRANCH  10  11
ENDBRANCH   8  10
ENDBRANCH   4   7
BRANCH   1  21
ATOM     21  C   UNL d   1      55.925   0.153  33.210  0.00  0.00     0.182 A 
ATOM     22  N   UNL d   1      55.101   0.246  33.272  0.00  0.00    -0.220 NA
ATOM     23  C   UNL d   1      54.920   0.400  34.055  0.00  0.00     0.106 A 
ATOM     24  C   UNL d   1      55.626   0.403  34.477  0.00  0.00     0.119 A 
ATOM     25  C   UNL d   1      54.197   0.539  34.441  0.00  0.00     0.021 A 
ATOM     26  C   UNL d   1      55.614   0.544  35.285  0.00  0.00     0.026 A 
ATOM     27  O   UNL d   1      56.221   0.255  33.966  0.00  0.00    -0.288 OA
ATOM     28  C   UNL d   1      54.919   0.682  35.680  0.00  0.00     0.002 A 
ATOM     29  C   UNL d   1      54.192   0.682  35.262  0.00  0.00     0.002 A 
ENDBRANCH   1  21
TORSDOF 6
ENDMDL
