MODEL 1
REMARK VINA RESULT:      10.7      0.000      0.000
REMARK  7 active torsions:
REMARK  status: ('A' for Active; 'I' for Inactive)
REMARK    1  A    between atoms: C_11  and  C_3 
REMARK    2  A    between atoms: C_10  and  C_4 
REMARK    3  A    between atoms: O_16  and  C_10 
REMARK    4  A    between atoms: N_15  and  C_11 
REMARK    5  A    between atoms: C_21  and  N_15 
REMARK    6  A    between atoms: C_23  and  O_16 
REMARK    7  A    between atoms: C_18  and  C_21 
ROOT
ATOM      1  C   UNL d   1     -41.619-121.347 -52.837  0.00  0.00     0.035 A 
ATOM      2  C   UNL d   1     -41.603-120.561 -53.083  0.00  0.00     0.100 A 
ATOM      3  C   UNL d   1     -41.479-121.543 -52.047  0.00  0.00     0.060 A 
ATOM      4  C   UNL d   1     -41.788-121.815 -53.500  0.00  0.00     0.088 A 
ATOM      5  O   UNL d   1     -41.760-120.546 -53.885  0.00  0.00    -0.307 OA
ATOM      6  C   UNL d   1     -41.868-121.300 -54.116  0.00  0.00     0.105 A 
ATOM      7  C   UNL d   1     -41.321-120.953 -51.496  0.00  0.00     0.197 A 
ATOM      8  C   UNL d   1     -41.445-119.977 -52.528  0.00  0.00     0.026 A 
ATOM      9  C   UNL d   1     -41.305-120.173 -51.739  0.00  0.00     0.041 A 
ATOM     10  O   UNL d   1     -41.182-121.147 -50.711  0.00  0.00    -0.286 OA
ATOM     11  C   UNL d   1     -42.044-121.537 -54.909  0.00  0.00     0.027 C 
ATOM     12  C   UNL d   1     -41.428-119.186 -52.773  0.00  0.00     0.002 A 
ATOM     13  C   UNL d   1     -41.147-119.578 -51.186  0.00  0.00     0.003 A 
ATOM     14  C   UNL d   1     -41.131-118.798 -51.430  0.00  0.00     0.000 A 
ATOM     15  C   UNL d   1     -41.271-118.602 -52.219  0.00  0.00     0.000 A 
ENDROOT
BRANCH   3  16
ATOM     16  C   UNL d   1     -41.493-122.352 -51.783  0.00  0.00     0.102 C 
BRANCH  16  17
ATOM     17  N   UNL d   1     -41.508-122.542 -50.970  0.00  0.00    -0.241 NA
BRANCH  17  18
ATOM     18  C   UNL d   1     -41.933-123.190 -50.717  0.00  0.00     0.118 C 
BRANCH  18  19
ATOM     19  C   UNL d   1     -42.012-123.337 -49.895  0.00  0.00     0.101 A 
ATOM     20  N   UNL d   1     -41.351-123.376 -49.411  0.00  0.00    -0.242 NA
ATOM     21  C   UNL d   1     -41.428-123.520 -48.603  0.00  0.00     0.099 A 
ATOM     22  C   UNL d   1     -42.167-123.627 -48.269  0.00  0.00     0.021 A 
ATOM     23  C   UNL d   1     -42.833-123.589 -48.749  0.00  0.00     0.003 A 
ATOM     24  C   UNL d   1     -42.756-123.445 -49.558  0.00  0.00     0.021 A 
ENDBRANCH  18  19
ENDBRANCH  17  18
ENDBRANCH  16  17
ENDBRANCH   3  16
BRANCH   4  25
ATOM     25  C   UNL d   1     -41.869-122.663 -53.556  0.00  0.00     0.302 C 
ATOM     26  O   UNL d   1     -42.611-123.001 -53.439  0.00  0.00    -0.259 OA
BRANCH  25  27
ATOM     27  O   UNL d   1     -41.234-123.114 -53.718  0.00  0.00    -0.271 OA
BRANCH  27  28
ATOM     28  C   UNL d   1     -41.310-123.816 -54.141  0.00  0.00     0.126 C 
ATOM     29  C   UNL d   1     -41.355-123.805 -54.971  0.00  0.00     0.029 C 
ENDBRANCH  27  28
ENDBRANCH  25  27
ENDBRANCH   4  25
TORSDOF 7
ENDMDL
MODEL 2
REMARK VINA RESULT:      11.7      1.265      4.300
REMARK  7 active torsions:
REMARK  status: ('A' for Active; 'I' for Inactive)
REMARK    1  A    between atoms: C_11  and  C_3 
REMARK    2  A    between atoms: C_10  and  C_4 
REMARK    3  A    between atoms: O_16  and  C_10 
REMARK    4  A    between atoms: N_15  and  C_11 
REMARK    5  A    between atoms: C_21  and  N_15 
REMARK    6  A    between atoms: C_23  and  O_16 
REMARK    7  A    between atoms: C_18  and  C_21 
ROOT
ATOM      1  C   UNL d   1     -41.413-121.653 -51.372  0.00  0.00     0.035 A 
ATOM      2  C   UNL d   1     -41.464-121.664 -50.549  0.00  0.00     0.100 A 
ATOM      3  C   UNL d   1     -41.467-122.353 -51.805  0.00  0.00     0.060 A 
ATOM      4  C   UNL d   1     -41.309-120.865 -51.607  0.00  0.00     0.088 A 
ATOM      5  O   UNL d   1     -41.392-120.893 -50.284  0.00  0.00    -0.307 OA
ATOM      6  C   UNL d   1     -41.301-120.433 -50.926  0.00  0.00     0.105 A 
ATOM      7  C   UNL d   1     -41.572-123.072 -51.419  0.00  0.00     0.197 A 
ATOM      8  C   UNL d   1     -41.569-122.383 -50.170  0.00  0.00     0.026 A 
ATOM      9  C   UNL d   1     -41.623-123.084 -50.603  0.00  0.00     0.041 A 
ATOM     10  O   UNL d   1     -41.626-123.768 -51.849  0.00  0.00    -0.286 OA
ATOM     11  C   UNL d   1     -41.206-119.592 -50.902  0.00  0.00     0.027 C 
ATOM     12  C   UNL d   1     -41.621-122.396 -49.343  0.00  0.00     0.002 A 
ATOM     13  C   UNL d   1     -41.729-123.805 -50.213  0.00  0.00     0.003 A 
ATOM     14  C   UNL d   1     -41.780-123.816 -49.397  0.00  0.00     0.000 A 
ATOM     15  C   UNL d   1     -41.726-123.116 -48.964  0.00  0.00     0.000 A 
ENDROOT
BRANCH   3  16
ATOM     16  C   UNL d   1     -41.415-122.353 -52.655  0.00  0.00     0.102 C 
BRANCH  16  17
ATOM     17  N   UNL d   1     -41.947-122.796 -53.121  0.00  0.00    -0.241 NA
BRANCH  17  18
ATOM     18  C   UNL d   1     -41.716-123.052 -53.861  0.00  0.00     0.118 C 
BRANCH  18  19
ATOM     19  C   UNL d   1     -42.079-122.725 -54.542  0.00  0.00     0.101 A 
ATOM     20  N   UNL d   1     -42.878-122.540 -54.543  0.00  0.00    -0.242 NA
ATOM     21  C   UNL d   1     -43.236-122.218 -55.213  0.00  0.00     0.099 A 
ATOM     22  C   UNL d   1     -42.799-122.079 -55.891  0.00  0.00     0.021 A 
ATOM     23  C   UNL d   1     -41.997-122.264 -55.896  0.00  0.00     0.003 A 
ATOM     24  C   UNL d   1     -41.639-122.585 -55.225  0.00  0.00     0.021 A 
ENDBRANCH  18  19
ENDBRANCH  17  18
ENDBRANCH  16  17
ENDBRANCH   3  16
BRANCH   4  25
ATOM     25  C   UNL d   1     -41.224-120.543 -52.394  0.00  0.00     0.302 C 
ATOM     26  O   UNL d   1     -41.249-121.055 -53.038  0.00  0.00    -0.259 OA
BRANCH  25  27
ATOM     27  O   UNL d   1     -41.123-119.760 -52.496  0.00  0.00    -0.271 OA
BRANCH  27  28
ATOM     28  C   UNL d   1     -41.443-119.374 -53.149  0.00  0.00     0.126 C 
ATOM     29  C   UNL d   1     -41.222-118.591 -53.325  0.00  0.00     0.029 C 
ENDBRANCH  27  28
ENDBRANCH  25  27
ENDBRANCH   4  25
TORSDOF 7
ENDMDL
