MODEL 1
REMARK VINA RESULT:      39.6      0.000      0.000
REMARK  6 active torsions:
REMARK  status: ('A' for Active; 'I' for Inactive)
REMARK    1  A    between atoms: C_2  and  S_1 
REMARK    2  A    between atoms: N_3  and  S_1 
REMARK    3  A    between atoms: C_10  and  N_3 
REMARK    4  A    between atoms: O_15  and  C_5 
REMARK    5  A    between atoms: C_13  and  C_10 
REMARK    6  A    between atoms: C_17  and  O_15 
ROOT
ATOM      1  S   UNL d   1     -50.695  24.728  33.476  0.00  0.00     0.285 S 
ATOM      2  O   UNL d   1     -49.941  24.381  33.468  0.00  0.00    -0.198 OA
ATOM      3  O   UNL d   1     -51.444  25.073  33.484  0.00  0.00    -0.198 OA
ENDROOT
BRANCH   1   4
ATOM      4  C   UNL d   1     -50.355  25.462  33.639  0.00  0.00     0.107 A 
ATOM      5  C   UNL d   1     -50.835  26.133  33.707  0.00  0.00     0.038 A 
ATOM      6  C   UNL d   1     -50.492  26.875  33.871  0.00  0.00     0.111 A 
ATOM      7  C   UNL d   1     -49.672  26.938  33.966  0.00  0.00     0.081 A 
ATOM      8  C   UNL d   1     -49.198  26.270  33.898  0.00  0.00     0.014 A 
ATOM      9 CL   UNL d   1     -49.333  27.672  34.129  0.00  0.00    -0.080 Cl
ATOM     10  C   UNL d   1     -49.540  25.528  33.734  0.00  0.00     0.014 A 
BRANCH   6  11
ATOM     11  O   UNL d   1     -50.968  27.544  33.939  0.00  0.00    -0.304 OA
BRANCH  11  12
ATOM     12  C   UNL d   1     -51.023  28.072  33.311  0.00  0.00     0.123 C 
ATOM     13  C   UNL d   1     -51.597  28.663  33.321  0.00  0.00     0.029 C 
ENDBRANCH  11  12
ENDBRANCH   6  11
ENDBRANCH   1   4
BRANCH   1  14
ATOM     14  N   UNL d   1     -51.035  23.994  33.313  0.00  0.00    -0.155 NA
BRANCH  14  15
ATOM     15  C   UNL d   1     -51.411  23.572  33.916  0.00  0.00     0.131 C 
BRANCH  15  16
ATOM     16  C   UNL d   1     -52.235  23.564  33.961  0.00  0.00     0.101 A 
ATOM     17  N   UNL d   1     -52.617  23.922  34.597  0.00  0.00    -0.242 NA
ATOM     18  C   UNL d   1     -53.441  23.914  34.641  0.00  0.00     0.099 A 
ATOM     19  C   UNL d   1     -53.882  23.549  34.050  0.00  0.00     0.021 A 
ATOM     20  C   UNL d   1     -53.501  23.189  33.411  0.00  0.00     0.003 A 
ATOM     21  C   UNL d   1     -52.677  23.196  33.366  0.00  0.00     0.021 A 
ENDBRANCH  15  16
ENDBRANCH  14  15
ENDBRANCH   1  14
TORSDOF 6
ENDMDL
