MODEL 1
REMARK VINA RESULT:      50.0      0.000      0.000
REMARK  3 active torsions:
REMARK  status: ('A' for Active; 'I' for Inactive)
REMARK    1  A    between atoms: C_8  and  N_2 
REMARK    2  A    between atoms: C_14  and  C_8 
REMARK    3  A    between atoms: N_13  and  C_14 
ROOT
ATOM      1  C   UNL d   1     -57.970 -98.758 -44.948  0.00  0.00     0.166 A 
ATOM      2  N   UNL d   1     -57.438 -98.757 -44.285  0.00  0.00    -0.288 N 
ATOM      3  C   UNL d   1     -58.783 -98.758 -44.697  0.00  0.00     0.117 A 
ATOM      4  C   UNL d   1     -58.744 -98.757 -43.873  0.00  0.00     0.037 A 
ATOM      5  C   UNL d   1     -57.905 -98.756 -43.626  0.00  0.00     0.067 A 
ATOM      6  N   UNL d   1     -57.821 -98.758 -45.735  0.00  0.00    -0.225 NA
ATOM      7  N   UNL d   1     -59.436 -98.758 -45.234  0.00  0.00    -0.241 NA
ATOM      8  C   UNL d   1     -58.488 -98.759 -46.277  0.00  0.00     0.101 A 
ATOM      9  C   UNL d   1     -59.295 -98.759 -46.028  0.00  0.00     0.099 A 
ATOM     10  C   UNL d   1     -57.703 -98.756 -42.819  0.00  0.00     0.018 A 
ATOM     11  C   UNL d   1     -59.361 -98.757 -43.326  0.00  0.00     0.003 A 
ATOM     12  C   UNL d   1     -59.147 -98.756 -42.525  0.00  0.00     0.000 A 
ATOM     13  C   UNL d   1     -58.320 -98.755 -42.271  0.00  0.00     0.002 A 
ATOM     14  C   UNL d   1     -58.346 -98.759 -47.076  0.00  0.00     0.021 A 
ATOM     15  C   UNL d   1     -59.946 -98.759 -46.570  0.00  0.00     0.021 A 
ATOM     16  C   UNL d   1     -59.744 -98.756 -41.956  0.00  0.00     0.000 C 
ATOM     17  C   UNL d   1     -58.999 -98.760 -47.613  0.00  0.00     0.002 A 
ATOM     18  C   UNL d   1     -59.808 -98.760 -47.356  0.00  0.00     0.002 A 
ENDROOT
BRANCH   2  19
ATOM     19  C   UNL d   1     -56.632 -98.757 -44.263  0.00  0.00     0.101 C 
BRANCH  19  20
ATOM     20  C   UNL d   1     -56.249 -99.173 -43.686  0.00  0.00     0.100 C 
BRANCH  20  21
ATOM     21  N   UNL d   1     -55.787 -99.689 -44.079  0.00  0.00    -0.298 N 
ATOM     22  C   UNL d   1     -55.188 -99.427 -44.525  0.00  0.00     0.107 A 
ATOM     23  C   UNL d   1     -54.723 -99.941 -44.921  0.00  0.00     0.142 A 
ATOM     24  O   UNL d   1     -54.868-100.734 -44.863  0.00  0.00    -0.300 OA
ATOM     25  C   UNL d   1     -55.471-100.997 -44.414  0.00  0.00     0.142 A 
ATOM     26  C   UNL d   1     -55.930-100.479 -44.023  0.00  0.00     0.107 A 
ENDBRANCH  20  21
ENDBRANCH  19  20
ENDBRANCH   2  19
TORSDOF 3
ENDMDL
