MODEL 1
REMARK VINA RESULT:      47.6      0.000      0.000
REMARK  1 active torsions:
REMARK  status: ('A' for Active; 'I' for Inactive)
REMARK    1  A    between atoms: C_14  and  C_5 
ROOT
ATOM      1  C   UNL d   1     -58.316 -98.863 -43.382  0.00  0.00     0.111 A 
ATOM      2  C   UNL d   1     -57.230 -98.818 -44.329  0.00  0.00     0.062 A 
ATOM      3  C   UNL d   1     -57.702 -98.883 -42.747  0.00  0.00     0.213 A 
ATOM      4  C   UNL d   1     -56.688 -98.837 -43.741  0.00  0.00     0.101 A 
ATOM      5  C   UNL d   1     -58.046 -98.832 -44.149  0.00  0.00     0.018 A 
ATOM      6  O   UNL d   1     -56.925 -98.869 -42.952  0.00  0.00    -0.288 OA
ATOM      7  C   UNL d   1     -56.995 -98.786 -45.128  0.00  0.00     0.194 A 
ATOM      8  C   UNL d   1     -59.121 -98.876 -43.204  0.00  0.00     0.105 C 
ATOM      9  N   UNL d   1     -59.938 -98.889 -43.046  0.00  0.00    -0.191 NA
ATOM     10  C   UNL d   1     -55.884 -98.824 -43.919  0.00  0.00     0.002 A 
ATOM     11  C   UNL d   1     -55.613 -98.792 -44.686  0.00  0.00     0.042 A 
ATOM     12  C   UNL d   1     -56.217 -98.772 -45.322  0.00  0.00     0.019 A 
ATOM     13  O   UNL d   1     -57.580 -98.766 -45.757  0.00  0.00    -0.287 OA
ATOM     14  N   UNL d   1     -57.906 -98.917 -41.915  0.00  0.00    -0.120 N 
ATOM     15  C   UNL d   1     -54.820 -98.796 -44.427  0.00  0.00     0.009 C 
ATOM     16  C   UNL d   1     -55.198 -98.762 -45.388  0.00  0.00     0.009 C 
ENDROOT
BRANCH   5  17
ATOM     17  C   UNL d   1     -58.588 -98.813 -44.741  0.00  0.00     0.001 A 
ATOM     18  C   UNL d   1     -59.369 -98.829 -44.551  0.00  0.00     0.000 A 
ATOM     19  C   UNL d   1     -59.948 -98.810 -45.157  0.00  0.00     0.000 A 
ATOM     20  C   UNL d   1     -59.722 -98.776 -45.925  0.00  0.00     0.000 A 
ATOM     21  C   UNL d   1     -58.911 -98.759 -46.118  0.00  0.00     0.000 A 
ATOM     22  C   UNL d   1     -58.342 -98.778 -45.516  0.00  0.00     0.000 A 
ENDBRANCH   5  17
TORSDOF 1
ENDMDL
