MODEL 1
REMARK VINA RESULT:      48.0      0.000      0.000
REMARK  4 active torsions:
REMARK  status: ('A' for Active; 'I' for Inactive)
REMARK    1  A    between atoms: C_5  and  C_1 
REMARK    2  A    between atoms: O_8  and  C_5 
REMARK    3  A    between atoms: C_11  and  O_8 
REMARK    4  A    between atoms: C_12  and  C_11 
ROOT
ATOM      1  C   UNL d   1     -50.601  26.304  33.601  0.00  0.00     0.127 A 
ATOM      2  C   UNL d   1     -50.044  25.734  33.557  0.00  0.00     0.305 A 
ATOM      3  C   UNL d   1     -51.406  26.126  33.563  0.00  0.00     0.013 A 
ATOM      4  O   UNL d   1     -50.246  24.939  33.470  0.00  0.00    -0.273 OA
ATOM      5  C   UNL d   1     -51.608  25.331  33.476  0.00  0.00     0.023 A 
ATOM      6  C   UNL d   1     -51.051  24.761  33.431  0.00  0.00     0.103 A 
ATOM      7  O   UNL d   1     -49.239  25.912  33.595  0.00  0.00    -0.259 OA
ATOM      8  C   UNL d   1     -52.413  25.153  33.437  0.00  0.00     0.002 A 
ATOM      9  C   UNL d   1     -51.254  23.965  33.344  0.00  0.00     0.025 A 
ATOM     10  C   UNL d   1     -52.058  23.788  33.306  0.00  0.00     0.002 A 
ATOM     11  C   UNL d   1     -52.615  24.358  33.350  0.00  0.00     0.000 A 
ENDROOT
BRANCH   1  12
ATOM     12  C   UNL d   1     -50.398  27.099  33.688  0.00  0.00     0.305 C 
ATOM     13  O   UNL d   1     -50.829  27.704  33.306  0.00  0.00    -0.259 OA
BRANCH  12  14
ATOM     14  O   UNL d   1     -49.770  27.294  34.154  0.00  0.00    -0.271 OA
BRANCH  14  15
ATOM     15  C   UNL d   1     -49.780  27.957  34.613  0.00  0.00     0.126 C 
BRANCH  15  16
ATOM     16  C   UNL d   1     -49.095  28.315  34.846  0.00  0.00     0.025 A 
ATOM     17  C   UNL d   1     -48.690  28.026  35.515  0.00  0.00     0.002 A 
ATOM     18  C   UNL d   1     -47.979  28.409  35.744  0.00  0.00     0.000 A 
ATOM     19  C   UNL d   1     -47.679  29.041  35.342  0.00  0.00     0.000 A 
ATOM     20  C   UNL d   1     -48.085  29.330  34.673  0.00  0.00     0.000 A 
ATOM     21  C   UNL d   1     -48.770  28.973  34.439  0.00  0.00     0.002 A 
ENDBRANCH  15  16
ENDBRANCH  14  15
ENDBRANCH  12  14
ENDBRANCH   1  12
TORSDOF 4
ENDMDL
MODEL 2
REMARK VINA RESULT:      50.3      1.076      4.843
REMARK  4 active torsions:
REMARK  status: ('A' for Active; 'I' for Inactive)
REMARK    1  A    between atoms: C_5  and  C_1 
REMARK    2  A    between atoms: O_8  and  C_5 
REMARK    3  A    between atoms: C_11  and  O_8 
REMARK    4  A    between atoms: C_12  and  C_11 
ROOT
ATOM      1  C   UNL d   1     -50.522  25.736  33.607  0.00  0.00     0.127 A 
ATOM      2  C   UNL d   1     -51.032  26.347  33.666  0.00  0.00     0.305 A 
ATOM      3  C   UNL d   1     -49.709  25.842  33.704  0.00  0.00     0.013 A 
ATOM      4  O   UNL d   1     -50.773  27.113  33.825  0.00  0.00    -0.273 OA
ATOM      5  C   UNL d   1     -49.449  26.609  33.863  0.00  0.00     0.023 A 
ATOM      6  C   UNL d   1     -49.960  27.219  33.922  0.00  0.00     0.103 A 
ATOM      7  O   UNL d   1     -51.845  26.241  33.569  0.00  0.00    -0.259 OA
ATOM      8  C   UNL d   1     -48.637  26.715  33.960  0.00  0.00     0.002 A 
ATOM      9  C   UNL d   1     -49.700  27.986  34.081  0.00  0.00     0.025 A 
ATOM     10  C   UNL d   1     -48.888  28.092  34.178  0.00  0.00     0.002 A 
ATOM     11  C   UNL d   1     -48.377  27.481  34.119  0.00  0.00     0.000 A 
ENDROOT
BRANCH   1  12
ATOM     12  C   UNL d   1     -50.781  24.969  33.448  0.00  0.00     0.305 C 
ATOM     13  O   UNL d   1     -50.252  24.324  33.430  0.00  0.00    -0.259 OA
BRANCH  12  14
ATOM     14  O   UNL d   1     -51.565  24.844  33.306  0.00  0.00    -0.271 OA
BRANCH  14  15
ATOM     15  C   UNL d   1     -51.892  24.111  33.388  0.00  0.00     0.126 C 
BRANCH  15  16
ATOM     16  C   UNL d   1     -52.684  24.018  33.510  0.00  0.00     0.025 A 
ATOM     17  C   UNL d   1     -53.192  24.672  33.416  0.00  0.00     0.002 A 
ATOM     18  C   UNL d   1     -54.013  24.558  33.546  0.00  0.00     0.000 A 
ATOM     19  C   UNL d   1     -54.323  23.844  33.757  0.00  0.00     0.000 A 
ATOM     20  C   UNL d   1     -53.815  23.189  33.850  0.00  0.00     0.000 A 
ATOM     21  C   UNL d   1     -53.023  23.282  33.729  0.00  0.00     0.002 A 
ENDBRANCH  15  16
ENDBRANCH  14  15
ENDBRANCH  12  14
ENDBRANCH   1  12
TORSDOF 4
ENDMDL
