MODEL 1
REMARK VINA RESULT:      -0.7      0.000      0.000
REMARK  5 active torsions:
REMARK  status: ('A' for Active; 'I' for Inactive)
REMARK    1  A    between atoms: C_6  and  N_1 
REMARK    2  A    between atoms: C_5  and  C_3 
REMARK    3  A    between atoms: C_11  and  C_4 
REMARK    4  A    between atoms: N_13  and  C_6 
REMARK    5  A    between atoms: O_23  and  C_19 
ROOT
ATOM      1  N   UNL d   1      32.304  17.525 -23.742  0.00  0.00    -0.203 N 
ATOM      2  N   UNL d   1      32.770  18.130 -23.394  0.00  0.00    -0.163 NA
ATOM      3  C   UNL d   1      31.538  17.777 -23.825  0.00  0.00     0.088 A 
ATOM      4  C   UNL d   1      32.263  18.758 -23.268  0.00  0.00     0.103 A 
ATOM      5  C   UNL d   1      31.514  18.549 -23.528  0.00  0.00     0.040 A 
ENDROOT
BRANCH   3   6
ATOM      6  C   UNL d   1      30.913  17.378 -24.130  0.00  0.00     0.029 A 
ATOM      7  C   UNL d   1      30.497  17.690 -24.773  0.00  0.00     0.060 A 
ATOM      8  C   UNL d   1      29.870  17.286 -25.075  0.00  0.00     0.023 A 
ATOM      9 CL   UNL d   1      30.736  18.417 -25.095  0.00  0.00    -0.082 Cl
ATOM     10  C   UNL d   1      29.635  16.561 -24.750  0.00  0.00     0.059 A 
ATOM     11  C   UNL d   1      30.031  16.262 -24.136  0.00  0.00     0.011 A 
ATOM     12 CL   UNL d   1      28.994  16.142 -25.054  0.00  0.00    -0.082 Cl
ATOM     13  C   UNL d   1      30.680  16.670 -23.815  0.00  0.00     0.003 A 
ENDBRANCH   3   6
BRANCH   1  14
ATOM     14  C   UNL d   1      32.611  16.772 -23.964  0.00  0.00     0.222 C 
ATOM     15  S   UNL d   1      32.953  16.669 -24.720  0.00  0.00    -0.037 SA
BRANCH  14  16
ATOM     16  N   UNL d   1      32.570  16.148 -23.436  0.00  0.00    -0.214 NA
ATOM     17  C   UNL d   1      33.164  15.566 -23.418  0.00  0.00     0.122 C 
ENDBRANCH  14  16
ENDBRANCH   1  14
BRANCH   4  18
ATOM     18  C   UNL d   1      32.503  19.453 -22.938  0.00  0.00     0.019 A 
ATOM     19  C   UNL d   1      32.337  19.610 -22.145  0.00  0.00     0.004 A 
ATOM     20  C   UNL d   1      32.573  20.312 -21.791  0.00  0.00     0.024 A 
ATOM     21  C   UNL d   1      32.992  20.879 -22.254  0.00  0.00     0.094 A 
ATOM     22  C   UNL d   1      33.158  20.722 -23.046  0.00  0.00     0.024 A 
ATOM     23  C   UNL d   1      32.914  20.009 -23.391  0.00  0.00     0.004 A 
BRANCH  21  24
ATOM     24  O   UNL d   1      33.240  21.604 -21.905  0.00  0.00    -0.328 OA
ATOM     25  C   UNL d   1      32.682  22.136 -21.610  0.00  0.00     0.181 C 
ENDBRANCH  21  24
ENDBRANCH   4  18
TORSDOF 5
ENDMDL
MODEL 2
REMARK VINA RESULT:       1.2      1.443      1.716
REMARK  5 active torsions:
REMARK  status: ('A' for Active; 'I' for Inactive)
REMARK    1  A    between atoms: C_6  and  N_1 
REMARK    2  A    between atoms: C_5  and  C_3 
REMARK    3  A    between atoms: C_11  and  C_4 
REMARK    4  A    between atoms: N_13  and  C_6 
REMARK    5  A    between atoms: O_23  and  C_19 
ROOT
ATOM      1  N   UNL d   1      31.602  16.915 -24.055  0.00  0.00    -0.203 N 
ATOM      2  N   UNL d   1      32.173  17.530 -24.078  0.00  0.00    -0.163 NA
ATOM      3  C   UNL d   1      30.878  17.200 -24.282  0.00  0.00     0.088 A 
ATOM      4  C   UNL d   1      31.774  18.197 -24.326  0.00  0.00     0.103 A 
ATOM      5  C   UNL d   1      30.988  18.002 -24.452  0.00  0.00     0.040 A 
ENDROOT
BRANCH   3   6
ATOM      6  C   UNL d   1      30.183  16.805 -24.340  0.00  0.00     0.029 A 
ATOM      7  C   UNL d   1      29.564  16.980 -23.820  0.00  0.00     0.060 A 
ATOM      8  C   UNL d   1      28.868  16.580 -23.882  0.00  0.00     0.023 A 
ATOM      9 CL   UNL d   1      29.674  17.565 -23.243  0.00  0.00    -0.082 Cl
ATOM     10  C   UNL d   1      28.763  15.996 -24.460  0.00  0.00     0.059 A 
ATOM     11  C   UNL d   1      29.353  15.828 -24.958  0.00  0.00     0.011 A 
ATOM     12 CL   UNL d   1      28.053  15.584 -24.530  0.00  0.00    -0.082 Cl
ATOM     13  C   UNL d   1      30.076  16.234 -24.903  0.00  0.00     0.003 A 
ENDBRANCH   3   6
BRANCH   1  14
ATOM     14  C   UNL d   1      31.780  16.123 -23.826  0.00  0.00     0.222 C 
ATOM     15  S   UNL d   1      31.827  15.523 -24.406  0.00  0.00    -0.037 SA
BRANCH  14  16
ATOM     16  N   UNL d   1      31.904  15.951 -23.036  0.00  0.00    -0.214 NA
ATOM     17  C   UNL d   1      32.554  15.488 -22.799  0.00  0.00     0.122 C 
ENDBRANCH  14  16
ENDBRANCH   1  14
BRANCH   4  18
ATOM     18  C   UNL d   1      32.134  18.912 -24.420  0.00  0.00     0.019 A 
ATOM     19  C   UNL d   1      31.779  19.492 -24.887  0.00  0.00     0.004 A 
ATOM     20  C   UNL d   1      32.131  20.227 -24.994  0.00  0.00     0.024 A 
ATOM     21  C   UNL d   1      32.868  20.383 -24.616  0.00  0.00     0.094 A 
ATOM     22  C   UNL d   1      33.222  19.803 -24.149  0.00  0.00     0.024 A 
ATOM     23  C   UNL d   1      32.857  19.065 -24.049  0.00  0.00     0.004 A 
BRANCH  21  24
ATOM     24  O   UNL d   1      33.240  21.131 -24.717  0.00  0.00    -0.328 OA
ATOM     25  C   UNL d   1      33.195  21.701 -24.122  0.00  0.00     0.181 C 
ENDBRANCH  21  24
ENDBRANCH   4  18
TORSDOF 5
ENDMDL
