MODEL 1
REMARK VINA RESULT:      -7.5      0.000      0.000
REMARK  4 active torsions:
REMARK  status: ('A' for Active; 'I' for Inactive)
REMARK    1  A    between atoms: S_9  and  C_1 
REMARK    2  A    between atoms: N_3  and  C_7 
REMARK    3  A    between atoms: C_13  and  S_9 
REMARK    4  A    between atoms: C_14  and  C_13 
ROOT
ATOM      1  S   UNL d   1     -47.870  13.835  22.608  0.00  0.00    -0.042 SA
ENDROOT
BRANCH   1   2
ATOM      2  C   UNL d   1     -48.580  14.164  22.852  0.00  0.00     0.215 A 
ATOM      3  N   UNL d   1     -48.712  14.967  22.940  0.00  0.00    -0.214 NA
ATOM      4  C   UNL d   1     -49.476  15.056  23.186  0.00  0.00     0.107 A 
ATOM      5  C   UNL d   1     -49.921  15.727  23.366  0.00  0.00     0.021 A 
ATOM      6  C   UNL d   1     -49.819  14.315  23.252  0.00  0.00     0.120 A 
ATOM      7  C   UNL d   1     -50.707  15.665  23.611  0.00  0.00     0.002 A 
ATOM      8  C   UNL d   1     -51.051  14.925  23.677  0.00  0.00     0.002 A 
ATOM      9  C   UNL d   1     -50.604  14.255  23.497  0.00  0.00     0.026 A 
ATOM     10  O   UNL d   1     -49.273  13.758  23.048  0.00  0.00    -0.283 OA
ENDBRANCH   1   2
BRANCH   1  11
ATOM     11  C   UNL d   1     -47.315  13.642  23.187  0.00  0.00     0.039 C 
BRANCH  11  12
ATOM     12  C   UNL d   1     -46.603  13.315  22.964  0.00  0.00     0.007 A 
ATOM     13  C   UNL d   1     -46.088  13.737  22.512  0.00  0.00     0.002 A 
ATOM     14  C   UNL d   1     -45.356  13.401  22.283  0.00  0.00     0.024 A 
ATOM     15  C   UNL d   1     -45.154  12.650  22.510  0.00  0.00     0.127 A 
ATOM     16  C   UNL d   1     -45.689  12.193  22.988  0.00  0.00     0.024 A 
ATOM     17  C   UNL d   1     -46.416  12.549  23.206  0.00  0.00     0.002 A 
BRANCH  15  18
ATOM     18  N   UNL d   1     -44.431  12.366  22.263  0.00  0.00    -0.114 N 
ATOM     19  O   UNL d   1     -44.110  12.713  21.613  0.00  0.00    -0.532 OA
ATOM     20  O   UNL d   1     -44.047  11.741  22.672  0.00  0.00    -0.532 OA
ENDBRANCH  15  18
ENDBRANCH  11  12
ENDBRANCH   1  11
TORSDOF 4
ENDMDL
MODEL 2
REMARK VINA RESULT:      -7.0      1.246      1.733
REMARK  4 active torsions:
REMARK  status: ('A' for Active; 'I' for Inactive)
REMARK    1  A    between atoms: S_9  and  C_1 
REMARK    2  A    between atoms: N_3  and  C_7 
REMARK    3  A    between atoms: C_13  and  S_9 
REMARK    4  A    between atoms: C_14  and  C_13 
ROOT
ATOM      1  S   UNL d   1     -47.735  13.006  22.468  0.00  0.00    -0.042 SA
ENDROOT
BRANCH   1   2
ATOM      2  C   UNL d   1     -48.452  13.401  22.436  0.00  0.00     0.215 A 
ATOM      3  N   UNL d   1     -49.076  13.191  21.948  0.00  0.00    -0.214 NA
ATOM      4  C   UNL d   1     -49.672  13.716  22.086  0.00  0.00     0.107 A 
ATOM      5  C   UNL d   1     -50.429  13.787  21.765  0.00  0.00     0.021 A 
ATOM      6  C   UNL d   1     -49.426  14.251  22.655  0.00  0.00     0.120 A 
ATOM      7  C   UNL d   1     -50.942  14.386  22.006  0.00  0.00     0.002 A 
ATOM      8  C   UNL d   1     -50.696  14.921  22.575  0.00  0.00     0.002 A 
ATOM      9  C   UNL d   1     -49.939  14.850  22.896  0.00  0.00     0.026 A 
ATOM     10  O   UNL d   1     -48.673  14.065  22.878  0.00  0.00    -0.283 OA
ENDBRANCH   1   2
BRANCH   1  11
ATOM     11  C   UNL d   1     -47.418  12.840  23.211  0.00  0.00     0.039 C 
BRANCH  11  12
ATOM     12  C   UNL d   1     -46.783  12.334  23.270  0.00  0.00     0.007 A 
ATOM     13  C   UNL d   1     -46.866  11.621  23.633  0.00  0.00     0.002 A 
ATOM     14  C   UNL d   1     -46.212  11.100  23.694  0.00  0.00     0.024 A 
ATOM     15  C   UNL d   1     -45.490  11.303  23.389  0.00  0.00     0.127 A 
ATOM     16  C   UNL d   1     -45.388  12.054  23.002  0.00  0.00     0.024 A 
ATOM     17  C   UNL d   1     -46.055  12.559  22.953  0.00  0.00     0.002 A 
BRANCH  15  18
ATOM     18  N   UNL d   1     -44.884  10.763  23.472  0.00  0.00    -0.114 N 
ATOM     19  O   UNL d   1     -45.090  10.021  23.698  0.00  0.00    -0.532 OA
ATOM     20  O   UNL d   1     -44.087  10.981  23.325  0.00  0.00    -0.532 OA
ENDBRANCH  15  18
ENDBRANCH  11  12
ENDBRANCH   1  11
TORSDOF 4
ENDMDL
MODEL 3
REMARK VINA RESULT:      -6.7      1.566      5.146
REMARK  4 active torsions:
REMARK  status: ('A' for Active; 'I' for Inactive)
REMARK    1  A    between atoms: S_9  and  C_1 
REMARK    2  A    between atoms: N_3  and  C_7 
REMARK    3  A    between atoms: C_13  and  S_9 
REMARK    4  A    between atoms: C_14  and  C_13 
ROOT
ATOM      1  S   UNL d   1     -46.743  12.697  23.302  0.00  0.00    -0.042 SA
ENDROOT
BRANCH   1   2
ATOM      2  C   UNL d   1     -46.134  12.149  23.319  0.00  0.00     0.215 A 
ATOM      3  N   UNL d   1     -46.209  11.381  23.593  0.00  0.00    -0.214 NA
ATOM      4  C   UNL d   1     -45.487  11.030  23.515  0.00  0.00     0.107 A 
ATOM      5  C   UNL d   1     -45.222  10.269  23.695  0.00  0.00     0.021 A 
ATOM      6  C   UNL d   1     -44.963  11.572  23.194  0.00  0.00     0.120 A 
ATOM      7  C   UNL d   1     -44.440  10.045  23.558  0.00  0.00     0.002 A 
ATOM      8  C   UNL d   1     -43.916  10.587  23.238  0.00  0.00     0.002 A 
ATOM      9  C   UNL d   1     -44.181  11.347  23.058  0.00  0.00     0.026 A 
ATOM     10  O   UNL d   1     -45.354  12.266  23.070  0.00  0.00    -0.283 OA
ENDBRANCH   1   2
BRANCH   1  11
ATOM     11  C   UNL d   1     -46.908  13.069  22.585  0.00  0.00     0.039 C 
BRANCH  11  12
ATOM     12  C   UNL d   1     -47.581  13.522  22.516  0.00  0.00     0.007 A 
ATOM     13  C   UNL d   1     -47.612  14.255  22.846  0.00  0.00     0.002 A 
ATOM     14  C   UNL d   1     -48.305  14.720  22.775  0.00  0.00     0.024 A 
ATOM     15  C   UNL d   1     -48.952  14.443  22.375  0.00  0.00     0.127 A 
ATOM     16  C   UNL d   1     -48.934  13.670  22.021  0.00  0.00     0.024 A 
ATOM     17  C   UNL d   1     -48.230  13.222  22.104  0.00  0.00     0.002 A 
BRANCH  15  18
ATOM     18  N   UNL d   1     -49.603  14.932  22.332  0.00  0.00    -0.114 N 
ATOM     19  O   UNL d   1     -50.262  14.627  21.989  0.00  0.00    -0.532 OA
ATOM     20  O   UNL d   1     -49.579  15.715  22.635  0.00  0.00    -0.532 OA
ENDBRANCH  15  18
ENDBRANCH  11  12
ENDBRANCH   1  11
TORSDOF 4
ENDMDL
MODEL 4
REMARK VINA RESULT:      -5.7      1.196      1.612
REMARK  4 active torsions:
REMARK  status: ('A' for Active; 'I' for Inactive)
REMARK    1  A    between atoms: S_9  and  C_1 
REMARK    2  A    between atoms: N_3  and  C_7 
REMARK    3  A    between atoms: C_13  and  S_9 
REMARK    4  A    between atoms: C_14  and  C_13 
ROOT
ATOM      1  S   UNL d   1     -47.434  12.974  23.375  0.00  0.00    -0.042 SA
ENDROOT
BRANCH   1   2
ATOM      2  C   UNL d   1     -48.248  12.895  23.423  0.00  0.00     0.215 A 
ATOM      3  N   UNL d   1     -48.778  13.519  23.385  0.00  0.00    -0.214 NA
ATOM      4  C   UNL d   1     -49.519  13.206  23.454  0.00  0.00     0.107 A 
ATOM      5  C   UNL d   1     -50.266  13.555  23.455  0.00  0.00     0.021 A 
ATOM      6  C   UNL d   1     -49.455  12.393  23.536  0.00  0.00     0.120 A 
ATOM      7  C   UNL d   1     -50.950  13.102  23.536  0.00  0.00     0.002 A 
ATOM      8  C   UNL d   1     -50.887  12.289  23.618  0.00  0.00     0.002 A 
ATOM      9  C   UNL d   1     -50.139  11.940  23.617  0.00  0.00     0.026 A 
ATOM     10  O   UNL d   1     -48.674  12.191  23.518  0.00  0.00    -0.283 OA
ENDBRANCH   1   2
BRANCH   1  11
ATOM     11  C   UNL d   1     -47.102  13.100  22.631  0.00  0.00     0.039 C 
BRANCH  11  12
ATOM     12  C   UNL d   1     -46.323  12.903  22.503  0.00  0.00     0.007 A 
ATOM     13  C   UNL d   1     -46.055  12.169  22.695  0.00  0.00     0.002 A 
ATOM     14  C   UNL d   1     -45.252  11.966  22.563  0.00  0.00     0.024 A 
ATOM     15  C   UNL d   1     -44.736  12.501  22.242  0.00  0.00     0.127 A 
ATOM     16  C   UNL d   1     -45.006  13.281  22.035  0.00  0.00     0.024 A 
ATOM     17  C   UNL d   1     -45.812  13.462  22.175  0.00  0.00     0.002 A 
BRANCH  15  18
ATOM     18  N   UNL d   1     -43.965  12.257  22.133  0.00  0.00    -0.114 N 
ATOM     19  O   UNL d   1     -43.568  12.585  21.517  0.00  0.00    -0.532 OA
ATOM     20  O   UNL d   1     -43.612  11.692  22.643  0.00  0.00    -0.532 OA
ENDBRANCH  15  18
ENDBRANCH  11  12
ENDBRANCH   1  11
TORSDOF 4
ENDMDL
MODEL 5
REMARK VINA RESULT:      -5.4      8.572      9.242
REMARK  4 active torsions:
REMARK  status: ('A' for Active; 'I' for Inactive)
REMARK    1  A    between atoms: S_9  and  C_1 
REMARK    2  A    between atoms: N_3  and  C_7 
REMARK    3  A    between atoms: C_13  and  S_9 
REMARK    4  A    between atoms: C_14  and  C_13 
ROOT
ATOM      1  S   UNL d   1     -39.491  14.151  19.502  0.00  0.00    -0.042 SA
ENDROOT
BRANCH   1   2
ATOM      2  C   UNL d   1     -39.738  14.541  18.825  0.00  0.00     0.215 A 
ATOM      3  N   UNL d   1     -40.515  14.573  18.566  0.00  0.00    -0.214 NA
ATOM      4  C   UNL d   1     -40.520  15.007  17.886  0.00  0.00     0.107 A 
ATOM      5  C   UNL d   1     -41.132  15.227  17.378  0.00  0.00     0.021 A 
ATOM      6  C   UNL d   1     -39.755  15.247  17.720  0.00  0.00     0.120 A 
ATOM      7  C   UNL d   1     -40.987  15.683  16.705  0.00  0.00     0.002 A 
ATOM      8  C   UNL d   1     -40.222  15.922  16.539  0.00  0.00     0.002 A 
ATOM      9  C   UNL d   1     -39.610  15.702  17.048  0.00  0.00     0.026 A 
ATOM     10  O   UNL d   1     -39.264  14.964  18.295  0.00  0.00    -0.283 OA
ENDBRANCH   1   2
BRANCH   1  11
ATOM     11  C   UNL d   1     -39.344  14.602  20.176  0.00  0.00     0.039 C 
BRANCH  11  12
ATOM     12  C   UNL d   1     -39.130  14.228  20.867  0.00  0.00     0.007 A 
ATOM     13  C   UNL d   1     -39.669  14.126  21.455  0.00  0.00     0.002 A 
ATOM     14  C   UNL d   1     -39.450  13.742  22.167  0.00  0.00     0.024 A 
ATOM     15  C   UNL d   1     -38.696  13.467  22.275  0.00  0.00     0.127 A 
ATOM     16  C   UNL d   1     -38.115  13.568  21.661  0.00  0.00     0.024 A 
ATOM     17  C   UNL d   1     -38.357  13.956  20.958  0.00  0.00     0.002 A 
BRANCH  15  18
ATOM     18  N   UNL d   1     -38.529  13.100  22.983  0.00  0.00    -0.114 N 
ATOM     19  O   UNL d   1     -37.940  12.554  22.976  0.00  0.00    -0.532 OA
ATOM     20  O   UNL d   1     -38.956  13.288  23.681  0.00  0.00    -0.532 OA
ENDBRANCH  15  18
ENDBRANCH  11  12
ENDBRANCH   1  11
TORSDOF 4
ENDMDL
MODEL 6
REMARK VINA RESULT:      -4.8      8.907     10.456
REMARK  4 active torsions:
REMARK  status: ('A' for Active; 'I' for Inactive)
REMARK    1  A    between atoms: S_9  and  C_1 
REMARK    2  A    between atoms: N_3  and  C_7 
REMARK    3  A    between atoms: C_13  and  S_9 
REMARK    4  A    between atoms: C_14  and  C_13 
ROOT
ATOM      1  S   UNL d   1     -38.616  14.167  19.017  0.00  0.00    -0.042 SA
ENDROOT
BRANCH   1   2
ATOM      2  C   UNL d   1     -38.645  13.993  19.817  0.00  0.00     0.215 A 
ATOM      3  N   UNL d   1     -39.243  14.234  20.323  0.00  0.00    -0.214 NA
ATOM      4  C   UNL d   1     -39.062  13.950  21.056  0.00  0.00     0.107 A 
ATOM      5  C   UNL d   1     -39.451  14.012  21.781  0.00  0.00     0.021 A 
ATOM      6  C   UNL d   1     -38.358  13.534  21.012  0.00  0.00     0.120 A 
ATOM      7  C   UNL d   1     -39.143  13.663  22.463  0.00  0.00     0.002 A 
ATOM      8  C   UNL d   1     -38.439  13.247  22.418  0.00  0.00     0.002 A 
ATOM      9  C   UNL d   1     -38.051  13.185  21.693  0.00  0.00     0.026 A 
ATOM     10  O   UNL d   1     -38.093  13.555  20.250  0.00  0.00    -0.283 OA
ENDBRANCH   1   2
BRANCH   1  11
ATOM     11  C   UNL d   1     -38.787  13.561  18.484  0.00  0.00     0.039 C 
BRANCH  11  12
ATOM     12  C   UNL d   1     -38.606  13.661  17.696  0.00  0.00     0.007 A 
ATOM     13  C   UNL d   1     -38.878  14.304  17.297  0.00  0.00     0.002 A 
ATOM     14  C   UNL d   1     -38.692  14.407  16.486  0.00  0.00     0.024 A 
ATOM     15  C   UNL d   1     -38.240  13.863  16.092  0.00  0.00     0.127 A 
ATOM     16  C   UNL d   1     -37.946  13.178  16.502  0.00  0.00     0.024 A 
ATOM     17  C   UNL d   1     -38.144  13.096  17.312  0.00  0.00     0.002 A 
BRANCH  15  18
ATOM     18  N   UNL d   1     -38.085  14.006  15.304  0.00  0.00    -0.114 N 
ATOM     19  O   UNL d   1     -37.945  14.769  15.096  0.00  0.00    -0.532 OA
ATOM     20  O   UNL d   1     -38.075  13.380  14.744  0.00  0.00    -0.532 OA
ENDBRANCH  15  18
ENDBRANCH  11  12
ENDBRANCH   1  11
TORSDOF 4
ENDMDL
MODEL 7
REMARK VINA RESULT:      -4.7      8.089     10.015
REMARK  4 active torsions:
REMARK  status: ('A' for Active; 'I' for Inactive)
REMARK    1  A    between atoms: S_9  and  C_1 
REMARK    2  A    between atoms: N_3  and  C_7 
REMARK    3  A    between atoms: C_13  and  S_9 
REMARK    4  A    between atoms: C_14  and  C_13 
ROOT
ATOM      1  S   UNL d   1     -39.303  15.393  18.268  0.00  0.00    -0.042 SA
ENDROOT
BRANCH   1   2
ATOM      2  C   UNL d   1     -39.586  15.515  19.027  0.00  0.00     0.215 A 
ATOM      3  N   UNL d   1     -39.114  15.578  19.694  0.00  0.00    -0.214 NA
ATOM      4  C   UNL d   1     -39.606  15.695  20.322  0.00  0.00     0.107 A 
ATOM      5  C   UNL d   1     -39.455  15.797  21.127  0.00  0.00     0.021 A 
ATOM      6  C   UNL d   1     -40.379  15.705  20.054  0.00  0.00     0.120 A 
ATOM      7  C   UNL d   1     -40.070  15.909  21.667  0.00  0.00     0.002 A 
ATOM      8  C   UNL d   1     -40.843  15.918  21.398  0.00  0.00     0.002 A 
ATOM      9  C   UNL d   1     -40.993  15.816  20.593  0.00  0.00     0.026 A 
ATOM     10  O   UNL d   1     -40.378  15.594  19.255  0.00  0.00    -0.283 OA
ENDBRANCH   1   2
BRANCH   1  11
ATOM     11  C   UNL d   1     -39.009  14.645  18.081  0.00  0.00     0.039 C 
BRANCH  11  12
ATOM     12  C   UNL d   1     -38.771  14.490  17.318  0.00  0.00     0.007 A 
ATOM     13  C   UNL d   1     -38.731  13.731  17.053  0.00  0.00     0.002 A 
ATOM     14  C   UNL d   1     -38.486  13.571  16.268  0.00  0.00     0.024 A 
ATOM     15  C   UNL d   1     -38.287  14.173  15.764  0.00  0.00     0.127 A 
ATOM     16  C   UNL d   1     -38.324  14.980  16.031  0.00  0.00     0.024 A 
ATOM     17  C   UNL d   1     -38.572  15.117  16.820  0.00  0.00     0.002 A 
BRANCH  15  18
ATOM     18  N   UNL d   1     -38.054  13.969  15.010  0.00  0.00    -0.114 N 
ATOM     19  O   UNL d   1     -37.940  14.572  14.492  0.00  0.00    -0.532 OA
ATOM     20  O   UNL d   1     -37.943  13.165  14.793  0.00  0.00    -0.532 OA
ENDBRANCH  15  18
ENDBRANCH  11  12
ENDBRANCH   1  11
TORSDOF 4
ENDMDL
MODEL 8
REMARK VINA RESULT:      -4.5      7.960     10.572
REMARK  4 active torsions:
REMARK  status: ('A' for Active; 'I' for Inactive)
REMARK    1  A    between atoms: S_9  and  C_1 
REMARK    2  A    between atoms: N_3  and  C_7 
REMARK    3  A    between atoms: C_13  and  S_9 
REMARK    4  A    between atoms: C_14  and  C_13 
ROOT
ATOM      1  S   UNL d   1     -39.191  14.139  17.976  0.00  0.00    -0.042 SA
ENDROOT
BRANCH   1   2
ATOM      2  C   UNL d   1     -38.900  14.128  17.211  0.00  0.00     0.215 A 
ATOM      3  N   UNL d   1     -38.742  13.446  16.785  0.00  0.00    -0.214 NA
ATOM      4  C   UNL d   1     -38.466  13.677  16.062  0.00  0.00     0.107 A 
ATOM      5  C   UNL d   1     -38.218  13.244  15.404  0.00  0.00     0.021 A 
ATOM      6  C   UNL d   1     -38.451  14.495  16.034  0.00  0.00     0.120 A 
ATOM      7  C   UNL d   1     -37.956  13.622  14.719  0.00  0.00     0.002 A 
ATOM      8  C   UNL d   1     -37.941  14.440  14.691  0.00  0.00     0.002 A 
ATOM      9  C   UNL d   1     -38.188  14.871  15.349  0.00  0.00     0.026 A 
ATOM     10  O   UNL d   1     -38.717  14.783  16.739  0.00  0.00    -0.283 OA
ENDBRANCH   1   2
BRANCH   1  11
ATOM     11  C   UNL d   1     -39.937  14.467  18.101  0.00  0.00     0.039 C 
BRANCH  11  12
ATOM     12  C   UNL d   1     -40.132  14.744  18.842  0.00  0.00     0.007 A 
ATOM     13  C   UNL d   1     -40.480  14.255  19.378  0.00  0.00     0.002 A 
ATOM     14  C   UNL d   1     -40.680  14.540  20.140  0.00  0.00     0.024 A 
ATOM     15  C   UNL d   1     -40.529  15.307  20.350  0.00  0.00     0.127 A 
ATOM     16  C   UNL d   1     -40.161  15.835  19.793  0.00  0.00     0.024 A 
ATOM     17  C   UNL d   1     -39.969  15.529  19.037  0.00  0.00     0.002 A 
BRANCH  15  18
ATOM     18  N   UNL d   1     -40.742  15.538  21.102  0.00  0.00    -0.114 N 
ATOM     19  O   UNL d   1     -40.199  15.423  21.682  0.00  0.00    -0.532 OA
ATOM     20  O   UNL d   1     -41.494  15.880  21.255  0.00  0.00    -0.532 OA
ENDBRANCH  15  18
ENDBRANCH  11  12
ENDBRANCH   1  11
TORSDOF 4
ENDMDL
