MODEL 1
REMARK VINA RESULT:      -6.1      0.000      0.000
REMARK  6 active torsions:
REMARK  status: ('A' for Active; 'I' for Inactive)
REMARK    1  A    between atoms: C_4  and  N_1 
REMARK    2  A    between atoms: C_7  and  C_3 
REMARK    3  A    between atoms: N_13  and  C_4 
REMARK    4  A    between atoms: C_16  and  N_13 
REMARK    5  A    between atoms: C_20  and  C_16 
REMARK    6  A    between atoms: C_17  and  C_20 
ROOT
ATOM      1  N   UNL d   1     -47.784  13.892  22.824  0.00  0.00    -0.281 N 
ATOM      2  C   UNL d   1     -49.189  14.017  22.686  0.00  0.00     0.080 A 
ATOM      3  C   UNL d   1     -48.527  13.547  22.793  0.00  0.00     0.084 A 
ATOM      4  N   UNL d   1     -49.109  14.831  22.608  0.00  0.00    -0.301 N 
ATOM      5  C   UNL d   1     -47.703  14.712  22.746  0.00  0.00     0.101 A 
ATOM      6  C   UNL d   1     -49.992  13.833  22.633  0.00  0.00     0.021 A 
ATOM      7  C   UNL d   1     -49.860  15.157  22.507  0.00  0.00     0.080 A 
ATOM      8  C   UNL d   1     -48.372  15.177  22.638  0.00  0.00     0.100 A 
ATOM      9  C   UNL d   1     -50.410  14.542  22.522  0.00  0.00     0.021 A 
ENDROOT
BRANCH   1  10
ATOM     10  C   UNL d   1     -47.109  13.426  22.933  0.00  0.00     0.184 C 
ATOM     11  S   UNL d   1     -46.904  13.189  23.688  0.00  0.00    -0.040 SA
BRANCH  10  12
ATOM     12  N   UNL d   1     -46.651  13.203  22.291  0.00  0.00    -0.330 N 
ATOM     13  H   UNL d   1     -47.007  13.046  21.564  0.00  0.00     0.168 HD
BRANCH  12  14
ATOM     14  C   UNL d   1     -45.836  13.136  22.372  0.00  0.00     0.074 C 
BRANCH  14  15
ATOM     15  C   UNL d   1     -45.387  12.931  21.748  0.00  0.00     0.018 C 
BRANCH  15  16
ATOM     16  C   UNL d   1     -44.572  12.785  21.757  0.00  0.00     0.002 A 
ATOM     17  C   UNL d   1     -44.278  12.126  22.174  0.00  0.00     0.000 A 
ATOM     18  C   UNL d   1     -43.467  11.978  22.185  0.00  0.00     0.000 A 
ATOM     19  C   UNL d   1     -42.946  12.483  21.784  0.00  0.00     0.000 A 
ATOM     20  C   UNL d   1     -43.239  13.142  21.366  0.00  0.00     0.000 A 
ATOM     21  C   UNL d   1     -44.055  13.285  21.359  0.00  0.00     0.000 A 
ENDBRANCH  15  16
ENDBRANCH  14  15
ENDBRANCH  12  14
ENDBRANCH  10  12
ENDBRANCH   1  10
BRANCH   3  22
ATOM     22  C   UNL d   1     -48.605  12.730  22.871  0.00  0.00     0.037 A 
ATOM     23  C   UNL d   1     -48.614  12.250  22.202  0.00  0.00     0.100 A 
ATOM     24  N   UNL d   1     -48.692  11.436  22.288  0.00  0.00    -0.242 NA
ATOM     25  C   UNL d   1     -48.760  11.099  23.020  0.00  0.00     0.099 A 
ATOM     26  C   UNL d   1     -48.751  11.575  23.697  0.00  0.00     0.021 A 
ATOM     27  C   UNL d   1     -48.673  12.392  23.619  0.00  0.00     0.005 A 
ENDBRANCH   3  22
TORSDOF 6
ENDMDL
MODEL 2
REMARK VINA RESULT:      -6.0      1.106      2.368
REMARK  6 active torsions:
REMARK  status: ('A' for Active; 'I' for Inactive)
REMARK    1  A    between atoms: C_4  and  N_1 
REMARK    2  A    between atoms: C_7  and  C_3 
REMARK    3  A    between atoms: N_13  and  C_4 
REMARK    4  A    between atoms: C_16  and  N_13 
REMARK    5  A    between atoms: C_20  and  C_16 
REMARK    6  A    between atoms: C_17  and  C_20 
ROOT
ATOM      1  N   UNL d   1     -48.716  12.666  22.358  0.00  0.00    -0.281 N 
ATOM      2  C   UNL d   1     -49.949  12.698  23.056  0.00  0.00     0.080 A 
ATOM      3  C   UNL d   1     -49.329  13.093  22.693  0.00  0.00     0.084 A 
ATOM      4  N   UNL d   1     -49.955  11.878  23.085  0.00  0.00    -0.301 N 
ATOM      5  C   UNL d   1     -48.721  11.838  22.386  0.00  0.00     0.101 A 
ATOM      6  C   UNL d   1     -50.630  12.972  23.435  0.00  0.00     0.021 A 
ATOM      7  C   UNL d   1     -50.639  11.637  23.479  0.00  0.00     0.080 A 
ATOM      8  C   UNL d   1     -49.347  11.449  22.752  0.00  0.00     0.100 A 
ATOM      9  C   UNL d   1     -51.059  12.311  23.698  0.00  0.00     0.021 A 
ENDROOT
BRANCH   1  10
ATOM     10  C   UNL d   1     -48.086  13.055  21.989  0.00  0.00     0.184 C 
ATOM     11  S   UNL d   1     -48.158  13.278  21.206  0.00  0.00    -0.040 SA
BRANCH  10  12
ATOM     12  N   UNL d   1     -47.398  13.216  22.403  0.00  0.00    -0.330 N 
ATOM     13  H   UNL d   1     -47.435  13.593  23.136  0.00  0.00     0.168 HD
BRANCH  12  14
ATOM     14  C   UNL d   1     -46.670  13.002  22.089  0.00  0.00     0.074 C 
BRANCH  14  15
ATOM     15  C   UNL d   1     -45.996  13.216  22.454  0.00  0.00     0.018 C 
BRANCH  15  16
ATOM     16  C   UNL d   1     -45.243  12.900  22.320  0.00  0.00     0.002 A 
ATOM     17  C   UNL d   1     -45.023  12.191  22.698  0.00  0.00     0.000 A 
ATOM     18  C   UNL d   1     -44.273  11.873  22.567  0.00  0.00     0.000 A 
ATOM     19  C   UNL d   1     -43.741  12.257  22.061  0.00  0.00     0.000 A 
ATOM     20  C   UNL d   1     -43.960  12.966  21.682  0.00  0.00     0.000 A 
ATOM     21  C   UNL d   1     -44.715  13.280  21.819  0.00  0.00     0.000 A 
ENDBRANCH  15  16
ENDBRANCH  14  15
ENDBRANCH  12  14
ENDBRANCH  10  12
ENDBRANCH   1  10
BRANCH   3  22
ATOM     22  C   UNL d   1     -49.321  13.917  22.664  0.00  0.00     0.037 A 
ATOM     23  C   UNL d   1     -49.110  14.352  23.331  0.00  0.00     0.100 A 
ATOM     24  N   UNL d   1     -49.104  15.173  23.294  0.00  0.00    -0.242 NA
ATOM     25  C   UNL d   1     -49.303  15.561  22.612  0.00  0.00     0.099 A 
ATOM     26  C   UNL d   1     -49.516  15.130  21.938  0.00  0.00     0.021 A 
ATOM     27  C   UNL d   1     -49.524  14.306  21.967  0.00  0.00     0.005 A 
ENDBRANCH   3  22
TORSDOF 6
ENDMDL
MODEL 3
REMARK VINA RESULT:      -4.7      8.291      9.586
REMARK  6 active torsions:
REMARK  status: ('A' for Active; 'I' for Inactive)
REMARK    1  A    between atoms: C_4  and  N_1 
REMARK    2  A    between atoms: C_7  and  C_3 
REMARK    3  A    between atoms: N_13  and  C_4 
REMARK    4  A    between atoms: C_16  and  N_13 
REMARK    5  A    between atoms: C_20  and  C_16 
REMARK    6  A    between atoms: C_17  and  C_20 
ROOT
ATOM      1  N   UNL d   1     -38.855  14.318  18.858  0.00  0.00    -0.281 N 
ATOM      2  C   UNL d   1     -38.802  13.559  17.663  0.00  0.00     0.080 A 
ATOM      3  C   UNL d   1     -39.124  14.173  18.098  0.00  0.00     0.084 A 
ATOM      4  N   UNL d   1     -38.210  13.090  17.987  0.00  0.00    -0.301 N 
ATOM      5  C   UNL d   1     -38.259  13.846  19.186  0.00  0.00     0.101 A 
ATOM      6  C   UNL d   1     -38.956  13.283  16.900  0.00  0.00     0.021 A 
ATOM      7  C   UNL d   1     -37.994  12.521  17.429  0.00  0.00     0.080 A 
ATOM      8  C   UNL d   1     -37.940  13.231  18.743  0.00  0.00     0.100 A 
ATOM      9  C   UNL d   1     -38.454  12.638  16.754  0.00  0.00     0.021 A 
ENDROOT
BRANCH   1  10
ATOM     10  C   UNL d   1     -39.174  14.937  19.305  0.00  0.00     0.184 C 
ATOM     11  S   UNL d   1     -39.080  15.707  19.047  0.00  0.00    -0.040 SA
BRANCH  10  12
ATOM     12  N   UNL d   1     -39.581  14.780  19.999  0.00  0.00    -0.330 N 
ATOM     13  H   UNL d   1     -40.212  14.248  19.997  0.00  0.00     0.168 HD
BRANCH  12  14
ATOM     14  C   UNL d   1     -39.362  15.153  20.697  0.00  0.00     0.074 C 
BRANCH  14  15
ATOM     15  C   UNL d   1     -39.696  14.941  21.388  0.00  0.00     0.018 C 
BRANCH  15  16
ATOM     16  C   UNL d   1     -39.376  15.052  22.142  0.00  0.00     0.002 A 
ATOM     17  C   UNL d   1     -39.108  14.393  22.576  0.00  0.00     0.000 A 
ATOM     18  C   UNL d   1     -38.788  14.500  23.328  0.00  0.00     0.000 A 
ATOM     19  C   UNL d   1     -38.732  15.261  23.652  0.00  0.00     0.000 A 
ATOM     20  C   UNL d   1     -38.999  15.921  23.219  0.00  0.00     0.000 A 
ATOM     21  C   UNL d   1     -39.320  15.806  22.464  0.00  0.00     0.000 A 
ENDBRANCH  15  16
ENDBRANCH  14  15
ENDBRANCH  12  14
ENDBRANCH  10  12
ENDBRANCH   1  10
BRANCH   3  22
ATOM     22  C   UNL d   1     -39.718  14.645  17.775  0.00  0.00     0.037 A 
ATOM     23  C   UNL d   1     -40.509  14.426  17.852  0.00  0.00     0.100 A 
ATOM     24  N   UNL d   1     -41.095  14.901  17.527  0.00  0.00    -0.242 NA
ATOM     25  C   UNL d   1     -40.907  15.583  17.131  0.00  0.00     0.099 A 
ATOM     26  C   UNL d   1     -40.115  15.809  17.050  0.00  0.00     0.021 A 
ATOM     27  C   UNL d   1     -39.521  15.337  17.374  0.00  0.00     0.005 A 
ENDBRANCH   3  22
TORSDOF 6
ENDMDL
MODEL 4
REMARK VINA RESULT:      -3.5      6.515      9.061
REMARK  6 active torsions:
REMARK  status: ('A' for Active; 'I' for Inactive)
REMARK    1  A    between atoms: C_4  and  N_1 
REMARK    2  A    between atoms: C_7  and  C_3 
REMARK    3  A    between atoms: N_13  and  C_4 
REMARK    4  A    between atoms: C_16  and  N_13 
REMARK    5  A    between atoms: C_20  and  C_16 
REMARK    6  A    between atoms: C_17  and  C_20 
ROOT
ATOM      1  N   UNL d   1     -39.081  15.198  20.384  0.00  0.00    -0.281 N 
ATOM      2  C   UNL d   1     -39.112  14.793  21.742  0.00  0.00     0.080 A 
ATOM      3  C   UNL d   1     -39.482  14.861  21.014  0.00  0.00     0.084 A 
ATOM      4  N   UNL d   1     -38.341  15.061  21.839  0.00  0.00    -0.301 N 
ATOM      5  C   UNL d   1     -38.304  15.468  20.481  0.00  0.00     0.101 A 
ATOM      6  C   UNL d   1     -39.369  14.486  22.464  0.00  0.00     0.021 A 
ATOM      7  C   UNL d   1     -38.115  14.923  22.621  0.00  0.00     0.080 A 
ATOM      8  C   UNL d   1     -37.940  15.396  21.214  0.00  0.00     0.100 A 
ATOM      9  C   UNL d   1     -38.748  14.566  23.011  0.00  0.00     0.021 A 
ENDROOT
BRANCH   1  10
ATOM     10  C   UNL d   1     -39.446  15.271  19.645  0.00  0.00     0.184 C 
ATOM     11  S   UNL d   1     -39.921  15.920  19.496  0.00  0.00    -0.040 SA
BRANCH  10  12
ATOM     12  N   UNL d   1     -39.335  14.699  19.068  0.00  0.00    -0.330 N 
ATOM     13  H   UNL d   1     -39.590  13.926  19.199  0.00  0.00     0.168 HD
BRANCH  12  14
ATOM     14  C   UNL d   1     -38.969  14.896  18.360  0.00  0.00     0.074 C 
BRANCH  14  15
ATOM     15  C   UNL d   1     -38.874  14.348  17.791  0.00  0.00     0.018 C 
BRANCH  15  16
ATOM     16  C   UNL d   1     -38.601  14.481  17.022  0.00  0.00     0.002 A 
ATOM     17  C   UNL d   1     -38.213  15.197  16.842  0.00  0.00     0.000 A 
ATOM     18  C   UNL d   1     -37.940  15.333  16.076  0.00  0.00     0.000 A 
ATOM     19  C   UNL d   1     -38.051  14.761  15.487  0.00  0.00     0.000 A 
ATOM     20  C   UNL d   1     -38.439  14.046  15.665  0.00  0.00     0.000 A 
ATOM     21  C   UNL d   1     -38.711  13.915  16.436  0.00  0.00     0.000 A 
ENDBRANCH  15  16
ENDBRANCH  14  15
ENDBRANCH  12  14
ENDBRANCH  10  12
ENDBRANCH   1  10
BRANCH   3  22
ATOM     22  C   UNL d   1     -40.255  14.593  20.914  0.00  0.00     0.037 A 
ATOM     23  C   UNL d   1     -40.407  13.786  20.847  0.00  0.00     0.100 A 
ATOM     24  N   UNL d   1     -41.180  13.526  20.747  0.00  0.00    -0.242 NA
ATOM     25  C   UNL d   1     -41.796  14.051  20.714  0.00  0.00     0.099 A 
ATOM     26  C   UNL d   1     -41.650  14.863  20.781  0.00  0.00     0.021 A 
ATOM     27  C   UNL d   1     -40.877  15.132  20.881  0.00  0.00     0.005 A 
ENDBRANCH   3  22
TORSDOF 6
ENDMDL
