MODEL 1
REMARK VINA RESULT:      50.6      0.000      0.000
REMARK  9 active torsions:
REMARK  status: ('A' for Active; 'I' for Inactive)
REMARK    1  A    between atoms: N_6  and  C_1 
REMARK    2  A    between atoms: N_2  and  C_12 
REMARK    3  A    between atoms: C_3  and  N_6 
REMARK    4  A    between atoms: N_4  and  C_3 
REMARK       I    between atoms: C_7  and  N_4 
REMARK    5  A    between atoms: C_16  and  C_7 
REMARK    6  A    between atoms: C_10  and  C_8 
REMARK    7  A    between atoms: C_13  and  C_10 
REMARK    8  A    between atoms: O_24  and  C_13 
REMARK    9  A    between atoms: C_25  and  O_24 
ROOT
ATOM      1  C   UNL d   1     -48.574  28.643  35.170  0.00  0.00     0.277 C 
ATOM      2  S   UNL d   1     -48.343  28.453  35.939  0.00  0.00    -0.023 SA
ENDROOT
BRANCH   1   3
ATOM      3  N   UNL d   1     -48.931  28.071  34.695  0.00  0.00    -0.347 NA
BRANCH   3   4
ATOM      4  C   UNL d   1     -49.286  27.503  34.217  0.00  0.00     0.248 A 
ATOM      5  N   UNL d   1     -50.100  27.396  34.095  0.00  0.00    -0.210 NA
ATOM      6  C   UNL d   1     -50.199  26.763  33.575  0.00  0.00     0.096 A 
ATOM      7  C   UNL d   1     -49.449  26.481  33.375  0.00  0.00     0.059 A 
ATOM      8  S   UNL d   1     -48.892  26.932  33.767  0.00  0.00    -0.033 SA
BRANCH   6   9
ATOM      9  C   UNL d   1     -50.917  26.471  33.306  0.00  0.00     0.088 C 
BRANCH   9  10
ATOM     10  C   UNL d   1     -51.271  25.828  33.676  0.00  0.00     0.302 C 
ATOM     11  O   UNL d   1     -51.602  25.925  34.424  0.00  0.00    -0.259 OA
BRANCH  10  12
ATOM     12  O   UNL d   1     -51.296  25.095  33.306  0.00  0.00    -0.271 OA
BRANCH  12  13
ATOM     13  C   UNL d   1     -51.793  24.504  33.591  0.00  0.00     0.126 C 
ATOM     14  C   UNL d   1     -51.523  23.731  33.651  0.00  0.00     0.029 C 
ENDBRANCH  12  13
ENDBRANCH  10  12
ENDBRANCH   9  10
ENDBRANCH   6   9
ENDBRANCH   3   4
ENDBRANCH   1   3
BRANCH   1  15
ATOM     15  N   UNL d   1     -48.444  29.404  34.883  0.00  0.00    -0.168 NA
ATOM     16  C   UNL d   1     -47.928  29.917  35.277  0.00  0.00     0.282 C 
ATOM     17  O   UNL d   1     -47.541  29.668  35.957  0.00  0.00    -0.265 OA
BRANCH  16  18
ATOM     18  C   UNL d   1     -47.802  30.679  34.983  0.00  0.00     0.058 A 
ATOM     19  C   UNL d   1     -48.392  31.061  34.571  0.00  0.00     0.006 A 
ATOM     20  C   UNL d   1     -48.266  31.825  34.277  0.00  0.00     0.024 A 
ATOM     21  C   UNL d   1     -47.539  32.199  34.403  0.00  0.00     0.127 A 
ATOM     22  C   UNL d   1     -46.940  31.807  34.822  0.00  0.00     0.024 A 
ATOM     23  C   UNL d   1     -47.069  31.050  35.112  0.00  0.00     0.006 A 
BRANCH  21  24
ATOM     24  N   UNL d   1     -47.408  32.958  34.113  0.00  0.00    -0.114 N 
ATOM     25  O   UNL d   1     -46.651  33.290  34.141  0.00  0.00    -0.532 OA
ATOM     26  O   UNL d   1     -48.032  33.385  33.794  0.00  0.00    -0.532 OA
ENDBRANCH  21  24
ENDBRANCH  16  18
ENDBRANCH   1  15
TORSDOF 9
ENDMDL
