MODEL 1
REMARK VINA RESULT:      -8.4      0.000      0.000
REMARK  4 active torsions:
REMARK  status: ('A' for Active; 'I' for Inactive)
REMARK    1  A    between atoms: C_6  and  N_1 
REMARK    2  A    between atoms: C_11  and  C_6 
REMARK    3  A    between atoms: O_14  and  C_8 
REMARK    4  A    between atoms: O_15  and  C_9 
ROOT
ATOM      1  C   UNL d   1      53.708  32.687  53.014  0.00  0.00     0.084 C 
ENDROOT
BRANCH   1   2
ATOM      2  N   UNL d   1      53.161  32.069  53.002  0.00  0.00    -0.268 N 
ATOM      3  C   UNL d   1      52.391  32.110  52.700  0.00  0.00     0.296 A 
ATOM      4  S   UNL d   1      52.041  31.363  52.802  0.00  0.00    -0.025 SA
ATOM      5  O   UNL d   1      52.037  32.773  52.359  0.00  0.00    -0.259 OA
ATOM      6  C   UNL d   1      52.595  30.871  53.165  0.00  0.00     0.050 A 
ATOM      7  C   UNL d   1      53.287  31.303  53.289  0.00  0.00     0.073 A 
ATOM      8  C   UNL d   1      52.568  30.074  53.405  0.00  0.00     0.008 A 
ATOM      9  C   UNL d   1      53.943  30.954  53.645  0.00  0.00     0.018 A 
ATOM     10  C   UNL d   1      53.911  30.165  53.881  0.00  0.00     0.002 A 
ATOM     11  C   UNL d   1      53.221  29.723  53.760  0.00  0.00     0.001 A 
ENDBRANCH   1   2
BRANCH   1  12
ATOM     12  C   UNL d   1      53.603  33.324  53.535  0.00  0.00     0.020 A 
ATOM     13  C   UNL d   1      54.062  33.370  54.208  0.00  0.00     0.028 A 
ATOM     14  C   UNL d   1      53.960  33.999  54.726  0.00  0.00     0.116 A 
ATOM     15  C   UNL d   1      53.391  34.587  54.566  0.00  0.00     0.116 A 
ATOM     16  C   UNL d   1      52.931  34.529  53.881  0.00  0.00     0.026 A 
ATOM     17  C   UNL d   1      53.040  33.892  53.363  0.00  0.00     0.004 A 
BRANCH  14  18
ATOM     18  O   UNL d   1      54.421  34.053  55.407  0.00  0.00    -0.326 OA
ATOM     19  C   UNL d   1      55.192  33.742  55.418  0.00  0.00     0.181 C 
ENDBRANCH  14  18
BRANCH  15  20
ATOM     20  O   UNL d   1      53.312  35.205  55.105  0.00  0.00    -0.326 OA
ATOM     21  C   UNL d   1      52.874  35.870  54.910  0.00  0.00     0.181 C 
ENDBRANCH  15  20
ENDBRANCH   1  12
TORSDOF 4
ENDMDL
MODEL 2
REMARK VINA RESULT:      -8.1      1.360      2.081
REMARK  4 active torsions:
REMARK  status: ('A' for Active; 'I' for Inactive)
REMARK    1  A    between atoms: C_6  and  N_1 
REMARK    2  A    between atoms: C_11  and  C_6 
REMARK    3  A    between atoms: O_14  and  C_8 
REMARK    4  A    between atoms: O_15  and  C_9 
ROOT
ATOM      1  C   UNL d   1      53.455  32.764  53.090  0.00  0.00     0.084 C 
ENDROOT
BRANCH   1   2
ATOM      2  N   UNL d   1      53.507  32.124  53.608  0.00  0.00    -0.268 N 
ATOM      3  C   UNL d   1      53.761  32.158  54.395  0.00  0.00     0.296 A 
ATOM      4  S   UNL d   1      53.725  31.387  54.704  0.00  0.00    -0.025 SA
ATOM      5  O   UNL d   1      54.006  32.835  54.798  0.00  0.00    -0.259 OA
ATOM      6  C   UNL d   1      53.450  30.887  54.107  0.00  0.00     0.050 A 
ATOM      7  C   UNL d   1      53.315  31.338  53.430  0.00  0.00     0.073 A 
ATOM      8  C   UNL d   1      53.300  30.069  54.083  0.00  0.00     0.008 A 
ATOM      9  C   UNL d   1      53.036  30.987  52.739  0.00  0.00     0.018 A 
ATOM     10  C   UNL d   1      52.889  30.177  52.720  0.00  0.00     0.002 A 
ATOM     11  C   UNL d   1      53.022  29.715  53.396  0.00  0.00     0.001 A 
ENDBRANCH   1   2
BRANCH   1  12
ATOM     12  C   UNL d   1      52.792  33.263  53.112  0.00  0.00     0.020 A 
ATOM     13  C   UNL d   1      52.867  34.016  53.418  0.00  0.00     0.028 A 
ATOM     14  C   UNL d   1      52.213  34.511  53.441  0.00  0.00     0.116 A 
ATOM     15  C   UNL d   1      51.475  34.247  53.155  0.00  0.00     0.116 A 
ATOM     16  C   UNL d   1      51.412  33.482  52.848  0.00  0.00     0.026 A 
ATOM     17  C   UNL d   1      52.076  32.988  52.827  0.00  0.00     0.004 A 
BRANCH  14  18
ATOM     18  O   UNL d   1      52.281  35.273  53.748  0.00  0.00    -0.326 OA
ATOM     19  C   UNL d   1      52.963  35.496  54.169  0.00  0.00     0.181 C 
ENDBRANCH  14  18
BRANCH  15  20
ATOM     20  O   UNL d   1      50.838  34.767  53.192  0.00  0.00    -0.326 OA
ATOM     21  C   UNL d   1      50.119  34.566  52.852  0.00  0.00     0.181 C 
ENDBRANCH  15  20
ENDBRANCH   1  12
TORSDOF 4
ENDMDL
MODEL 3
REMARK VINA RESULT:      -7.7      1.609      3.993
REMARK  4 active torsions:
REMARK  status: ('A' for Active; 'I' for Inactive)
REMARK    1  A    between atoms: C_6  and  N_1 
REMARK    2  A    between atoms: C_11  and  C_6 
REMARK    3  A    between atoms: O_14  and  C_8 
REMARK    4  A    between atoms: O_15  and  C_9 
ROOT
ATOM      1  C   UNL d   1      53.879  32.371  53.353  0.00  0.00     0.084 C 
ENDROOT
BRANCH   1   2
ATOM      2  N   UNL d   1      53.529  33.032  53.700  0.00  0.00    -0.268 N 
ATOM      3  C   UNL d   1      53.773  33.396  54.404  0.00  0.00     0.296 A 
ATOM      4  S   UNL d   1      53.265  34.039  54.543  0.00  0.00    -0.025 SA
ATOM      5  O   UNL d   1      54.405  33.161  54.878  0.00  0.00    -0.259 OA
ATOM      6  C   UNL d   1      52.715  34.066  53.928  0.00  0.00     0.050 A 
ATOM      7  C   UNL d   1      52.875  33.447  53.407  0.00  0.00     0.073 A 
ATOM      8  C   UNL d   1      52.078  34.577  53.765  0.00  0.00     0.008 A 
ATOM      9  C   UNL d   1      52.414  33.333  52.733  0.00  0.00     0.018 A 
ATOM     10  C   UNL d   1      51.785  33.842  52.576  0.00  0.00     0.002 A 
ATOM     11  C   UNL d   1      51.616  34.466  53.095  0.00  0.00     0.001 A 
ENDBRANCH   1   2
BRANCH   1  12
ATOM     12  C   UNL d   1      53.666  31.610  53.604  0.00  0.00     0.020 A 
ATOM     13  C   UNL d   1      53.295  31.104  53.081  0.00  0.00     0.028 A 
ATOM     14  C   UNL d   1      53.083  30.350  53.328  0.00  0.00     0.116 A 
ATOM     15  C   UNL d   1      53.245  30.101  54.107  0.00  0.00     0.116 A 
ATOM     16  C   UNL d   1      53.622  30.622  54.627  0.00  0.00     0.026 A 
ATOM     17  C   UNL d   1      53.833  31.381  54.372  0.00  0.00     0.004 A 
BRANCH  14  18
ATOM     18  O   UNL d   1      52.708  29.835  52.805  0.00  0.00    -0.326 OA
ATOM     19  C   UNL d   1      52.924  29.821  52.002  0.00  0.00     0.181 C 
ENDBRANCH  14  18
BRANCH  15  20
ATOM     20  O   UNL d   1      53.020  29.340  54.323  0.00  0.00    -0.326 OA
ATOM     21  C   UNL d   1      53.263  29.024  55.040  0.00  0.00     0.181 C 
ENDBRANCH  15  20
ENDBRANCH   1  12
TORSDOF 4
ENDMDL
MODEL 4
REMARK VINA RESULT:      -7.5      1.505      3.966
REMARK  4 active torsions:
REMARK  status: ('A' for Active; 'I' for Inactive)
REMARK    1  A    between atoms: C_6  and  N_1 
REMARK    2  A    between atoms: C_11  and  C_6 
REMARK    3  A    between atoms: O_14  and  C_8 
REMARK    4  A    between atoms: O_15  and  C_9 
ROOT
ATOM      1  C   UNL d   1      53.752  31.953  53.175  0.00  0.00     0.084 C 
ENDROOT
BRANCH   1   2
ATOM      2  N   UNL d   1      53.360  32.630  53.438  0.00  0.00    -0.268 N 
ATOM      3  C   UNL d   1      52.617  32.890  53.182  0.00  0.00     0.296 A 
ATOM      4  S   UNL d   1      52.441  33.591  53.593  0.00  0.00    -0.025 SA
ATOM      5  O   UNL d   1      52.140  32.520  52.620  0.00  0.00    -0.259 OA
ATOM      6  C   UNL d   1      53.073  33.756  54.097  0.00  0.00     0.050 A 
ATOM      7  C   UNL d   1      53.642  33.165  54.004  0.00  0.00     0.073 A 
ATOM      8  C   UNL d   1      53.216  34.372  54.638  0.00  0.00     0.008 A 
ATOM      9  C   UNL d   1      54.342  33.182  54.439  0.00  0.00     0.018 A 
ATOM     10  C   UNL d   1      54.477  33.794  54.973  0.00  0.00     0.002 A 
ATOM     11  C   UNL d   1      53.912  34.392  55.073  0.00  0.00     0.001 A 
ENDBRANCH   1   2
BRANCH   1  12
ATOM     12  C   UNL d   1      53.564  31.213  53.499  0.00  0.00     0.020 A 
ATOM     13  C   UNL d   1      53.114  30.688  53.065  0.00  0.00     0.028 A 
ATOM     14  C   UNL d   1      52.926  29.955  53.384  0.00  0.00     0.116 A 
ATOM     15  C   UNL d   1      53.193  29.747  54.147  0.00  0.00     0.116 A 
ATOM     16  C   UNL d   1      53.648  30.287  54.577  0.00  0.00     0.026 A 
ATOM     17  C   UNL d   1      53.833  31.025  54.249  0.00  0.00     0.004 A 
BRANCH  14  18
ATOM     18  O   UNL d   1      52.473  29.420  52.951  0.00  0.00    -0.326 OA
ATOM     19  C   UNL d   1      52.596  29.331  52.133  0.00  0.00     0.181 C 
ENDBRANCH  14  18
BRANCH  15  20
ATOM     20  O   UNL d   1      52.988  29.005  54.438  0.00  0.00    -0.326 OA
ATOM     21  C   UNL d   1      53.337  28.719  55.123  0.00  0.00     0.181 C 
ENDBRANCH  15  20
ENDBRANCH   1  12
TORSDOF 4
ENDMDL
MODEL 5
REMARK VINA RESULT:      -7.3      1.947      3.321
REMARK  4 active torsions:
REMARK  status: ('A' for Active; 'I' for Inactive)
REMARK    1  A    between atoms: C_6  and  N_1 
REMARK    2  A    between atoms: C_11  and  C_6 
REMARK    3  A    between atoms: O_14  and  C_8 
REMARK    4  A    between atoms: O_15  and  C_9 
ROOT
ATOM      1  C   UNL d   1      52.723  33.960  52.764  0.00  0.00     0.084 C 
ENDROOT
BRANCH   1   2
ATOM      2  N   UNL d   1      53.014  33.320  53.196  0.00  0.00    -0.268 N 
ATOM      3  C   UNL d   1      52.897  32.520  53.015  0.00  0.00     0.296 A 
ATOM      4  S   UNL d   1      53.287  32.071  53.596  0.00  0.00    -0.025 SA
ATOM      5  O   UNL d   1      52.471  32.224  52.373  0.00  0.00    -0.259 OA
ATOM      6  C   UNL d   1      53.639  32.596  54.128  0.00  0.00     0.050 A 
ATOM      7  C   UNL d   1      53.473  33.366  53.884  0.00  0.00     0.073 A 
ATOM      8  C   UNL d   1      54.096  32.479  54.813  0.00  0.00     0.008 A 
ATOM      9  C   UNL d   1      53.754  34.013  54.310  0.00  0.00     0.018 A 
ATOM     10  C   UNL d   1      54.206  33.892  54.988  0.00  0.00     0.002 A 
ATOM     11  C   UNL d   1      54.378  33.122  55.241  0.00  0.00     0.001 A 
ENDBRANCH   1   2
BRANCH   1  12
ATOM     12  C   UNL d   1      51.922  34.167  52.819  0.00  0.00     0.020 A 
ATOM     13  C   UNL d   1      51.432  34.051  52.176  0.00  0.00     0.028 A 
ATOM     14  C   UNL d   1      50.639  34.256  52.228  0.00  0.00     0.116 A 
ATOM     15  C   UNL d   1      50.334  34.580  52.934  0.00  0.00     0.116 A 
ATOM     16  C   UNL d   1      50.840  34.692  53.579  0.00  0.00     0.026 A 
ATOM     17  C   UNL d   1      51.639  34.484  53.518  0.00  0.00     0.004 A 
BRANCH  14  18
ATOM     18  O   UNL d   1      50.139  34.141  51.583  0.00  0.00    -0.326 OA
ATOM     19  C   UNL d   1      50.385  34.358  50.819  0.00  0.00     0.181 C 
ENDBRANCH  14  18
BRANCH  15  20
ATOM     20  O   UNL d   1      49.535  34.774  52.955  0.00  0.00    -0.326 OA
ATOM     21  C   UNL d   1      49.249  35.291  53.525  0.00  0.00     0.181 C 
ENDBRANCH  15  20
ENDBRANCH   1  12
TORSDOF 4
ENDMDL
MODEL 6
REMARK VINA RESULT:      -6.8      2.075      3.627
REMARK  4 active torsions:
REMARK  status: ('A' for Active; 'I' for Inactive)
REMARK    1  A    between atoms: C_6  and  N_1 
REMARK    2  A    between atoms: C_11  and  C_6 
REMARK    3  A    between atoms: O_14  and  C_8 
REMARK    4  A    between atoms: O_15  and  C_9 
ROOT
ATOM      1  C   UNL d   1      52.630  33.891  52.719  0.00  0.00     0.084 C 
ENDROOT
BRANCH   1   2
ATOM      2  N   UNL d   1      51.899  34.170  52.982  0.00  0.00    -0.268 N 
ATOM      3  C   UNL d   1      51.733  34.448  53.745  0.00  0.00     0.296 A 
ATOM      4  S   UNL d   1      50.933  34.671  53.762  0.00  0.00    -0.025 SA
ATOM      5  O   UNL d   1      52.267  34.494  54.372  0.00  0.00    -0.259 OA
ATOM      6  C   UNL d   1      50.613  34.530  53.014  0.00  0.00     0.050 A 
ATOM      7  C   UNL d   1      51.207  34.222  52.531  0.00  0.00     0.073 A 
ATOM      8  C   UNL d   1      49.852  34.641  52.697  0.00  0.00     0.008 A 
ATOM      9  C   UNL d   1      51.051  34.025  51.746  0.00  0.00     0.018 A 
ATOM     10  C   UNL d   1      50.295  34.137  51.437  0.00  0.00     0.002 A 
ATOM     11  C   UNL d   1      49.693  34.447  51.915  0.00  0.00     0.001 A 
ENDBRANCH   1   2
BRANCH   1  12
ATOM     12  C   UNL d   1      52.905  33.150  52.971  0.00  0.00     0.020 A 
ATOM     13  C   UNL d   1      53.584  33.108  53.423  0.00  0.00     0.028 A 
ATOM     14  C   UNL d   1      53.859  32.376  53.674  0.00  0.00     0.116 A 
ATOM     15  C   UNL d   1      53.448  31.680  53.469  0.00  0.00     0.116 A 
ATOM     16  C   UNL d   1      52.762  31.736  53.011  0.00  0.00     0.026 A 
ATOM     17  C   UNL d   1      52.490  32.477  52.761  0.00  0.00     0.004 A 
BRANCH  14  18
ATOM     18  O   UNL d   1      54.543  32.326  54.130  0.00  0.00    -0.326 OA
ATOM     19  C   UNL d   1      54.971  33.013  54.322  0.00  0.00     0.181 C 
ENDBRANCH  14  18
BRANCH  15  20
ATOM     20  O   UNL d   1      53.749  30.962  53.735  0.00  0.00    -0.326 OA
ATOM     21  C   UNL d   1      53.375  30.258  53.540  0.00  0.00     0.181 C 
ENDBRANCH  15  20
ENDBRANCH   1  12
TORSDOF 4
ENDMDL
