MODEL 1
REMARK VINA RESULT:      -2.9      0.000      0.000
REMARK  9 active torsions:
REMARK  status: ('A' for Active; 'I' for Inactive)
REMARK    1  A    between atoms: C_14  and  N_1 
REMARK    2  A    between atoms: S_6  and  C_2 
REMARK    3  A    between atoms: C_8  and  C_3 
REMARK    4  A    between atoms: C_16  and  S_6 
REMARK    5  A    between atoms: O_11  and  C_8 
REMARK    6  A    between atoms: C_9  and  C_16 
REMARK    7  A    between atoms: O_19  and  C_9 
REMARK    8  A    between atoms: C_12  and  O_11 
REMARK    9  A    between atoms: C_15  and  C_14 
ROOT
ATOM      1  N   UNL d   1      58.887  -9.682  31.873  0.00  0.00    -0.266 N 
ATOM      2  C   UNL d   1      58.170  -9.668  31.476  0.00  0.00     0.202 A 
ATOM      3  C   UNL d   1      58.737  -9.533  32.673  0.00  0.00     0.196 A 
ATOM      4  N   UNL d   1      57.575  -9.511  32.025  0.00  0.00    -0.121 NA
ATOM      5  N   UNL d   1      57.928  -9.428  32.769  0.00  0.00    -0.126 NA
ENDROOT
BRANCH   3   6
ATOM      6  C   UNL d   1      59.302  -9.497  33.273  0.00  0.00     0.162 C 
BRANCH   6   7
ATOM      7  O   UNL d   1      59.156  -9.047  33.951  0.00  0.00    -0.300 OA
BRANCH   7   8
ATOM      8  C   UNL d   1      59.718  -9.009  34.555  0.00  0.00     0.118 A 
ATOM      9  C   UNL d   1      59.679  -8.406  35.108  0.00  0.00     0.104 A 
ATOM     10  N   UNL d   1      59.081  -7.838  35.059  0.00  0.00    -0.242 NA
ATOM     11  C   UNL d   1      60.236  -8.362  35.713  0.00  0.00     0.020 A 
ATOM     12  C   UNL d   1      59.042  -7.235  35.611  0.00  0.00     0.099 A 
ATOM     13  C   UNL d   1      59.600  -7.186  36.224  0.00  0.00     0.021 A 
ATOM     14  C   UNL d   1      60.197  -7.754  36.269  0.00  0.00     0.003 A 
ATOM     15  C   UNL d   1      60.837  -8.928  35.765  0.00  0.00     0.002 A 
ATOM     16  C   UNL d   1      60.871  -9.534  35.205  0.00  0.00     0.002 A 
ATOM     17  C   UNL d   1      60.319  -9.576  34.607  0.00  0.00     0.026 A 
ENDBRANCH   7   8
ENDBRANCH   6   7
ENDBRANCH   3   6
BRANCH   1  18
ATOM     18  C   UNL d   1      59.624  -9.818  31.541  0.00  0.00     0.084 C 
BRANCH  18  19
ATOM     19  C   UNL d   1      60.059  -9.184  31.239  0.00  0.00     0.019 C 
ATOM     20  C   UNL d   1      60.639  -9.319  30.673  0.00  0.00     0.002 C 
ENDBRANCH  18  19
ENDBRANCH   1  18
BRANCH   2  21
ATOM     21  S   UNL d   1      58.056  -9.787  30.674  0.00  0.00    -0.042 SA
BRANCH  21  22
ATOM     22  C   UNL d   1      57.453  -9.397  30.269  0.00  0.00     0.107 C 
BRANCH  22  23
ATOM     23  C   UNL d   1      57.288  -9.580  29.486  0.00  0.00     0.303 C 
ATOM     24  O   UNL d   1      57.885  -9.526  28.912  0.00  0.00    -0.259 OA
BRANCH  23  25
ATOM     25  O   UNL d   1      56.532  -9.818  29.260  0.00  0.00    -0.295 OA
ATOM     26  C   UNL d   1      56.191  -9.530  28.569  0.00  0.00     0.185 C 
ENDBRANCH  23  25
ENDBRANCH  22  23
ENDBRANCH  21  22
ENDBRANCH   2  21
TORSDOF 9
ENDMDL
