MODEL 1
REMARK VINA RESULT:      84.6      0.000      0.000
REMARK  5 active torsions:
REMARK  status: ('A' for Active; 'I' for Inactive)
REMARK    1  A    between atoms: N_12  and  C_5 
REMARK    2  A    between atoms: C_21  and  N_9 
REMARK    3  A    between atoms: C_10  and  S_20 
REMARK    4  A    between atoms: S_20  and  C_26 
REMARK    5  A    between atoms: C_26  and  C_21 
ROOT
ATOM      1  C   UNL d   1     -54.929-101.433 -44.421  0.00  0.00     0.191 A 
ATOM      2  C   UNL d   1     -54.856-100.625 -44.303  0.00  0.00     0.173 A 
ATOM      3  N   UNL d   1     -54.969-101.798 -43.683  0.00  0.00    -0.042 NA
ATOM      4  N   UNL d   1     -54.951-101.736 -45.184  0.00  0.00    -0.240 N 
ATOM      5  C   UNL d   1     -54.919-101.209 -43.111  0.00  0.00     0.722 A 
ATOM      6  N   UNL d   1     -54.825-100.422 -45.717  0.00  0.00    -0.223 N 
ATOM      7  C   UNL d   1     -54.899-101.230 -45.835  0.00  0.00     0.343 A 
ATOM      8  C   UNL d   1     -54.804-100.116 -44.948  0.00  0.00     0.288 A 
ATOM      9  N   UNL d   1     -54.849-100.479 -43.491  0.00  0.00    -0.132 N 
ATOM     10  O   UNL d   1     -54.921-101.544 -46.608  0.00  0.00    -0.245 OA
ATOM     11  O   UNL d   1     -54.729 -99.299 -44.829  0.00  0.00    -0.265 OA
ATOM     12  C   UNL d   1     -55.024-102.544 -45.302  0.00  0.00     0.105 C 
ATOM     13  C   UNL d   1     -54.773 -99.916 -46.363  0.00  0.00     0.107 C 
ENDROOT
BRANCH   9  14
ATOM     14  C   UNL d   1     -54.784 -99.744 -43.124  0.00  0.00     0.105 C 
BRANCH  14  15
ATOM     15  C   UNL d   1     -55.454 -99.261 -43.033  0.00  0.00     0.057 C 
BRANCH  15  16
ATOM     16  S   UNL d   1     -55.722 -98.805 -43.676  0.00  0.00    -0.059 SA
BRANCH  16  17
ATOM     17  C   UNL d   1     -56.533 -98.806 -43.870  0.00  0.00     0.141 A 
ATOM     18  N   UNL d   1     -57.094 -98.855 -43.277  0.00  0.00    -0.232 NA
ATOM     19  C   UNL d   1     -57.831 -98.845 -43.622  0.00  0.00     0.088 A 
ATOM     20  C   UNL d   1     -58.590 -98.880 -43.290  0.00  0.00     0.020 A 
ATOM     21  C   UNL d   1     -57.741 -98.791 -44.427  0.00  0.00     0.049 A 
ATOM     22  C   UNL d   1     -59.257 -98.859 -43.782  0.00  0.00     0.002 A 
ATOM     23  C   UNL d   1     -59.163 -98.805 -44.586  0.00  0.00     0.001 A 
ATOM     24  C   UNL d   1     -58.400 -98.770 -44.914  0.00  0.00     0.008 A 
ATOM     25  S   UNL d   1     -56.917 -98.766 -44.588  0.00  0.00    -0.060 SA
ENDBRANCH  16  17
ENDBRANCH  15  16
ENDBRANCH  14  15
ENDBRANCH   9  14
BRANCH   5  26
ATOM     26  N   UNL d   1     -54.941-101.369 -42.306  0.00  0.00    -0.139 N 
ATOM     27  C   UNL d   1     -54.726-100.799 -41.762  0.00  0.00     0.098 A 
ATOM     28  C   UNL d   1     -54.748-100.962 -40.945  0.00  0.00     0.020 A 
ATOM     29  C   UNL d   1     -54.992-101.715 -40.689  0.00  0.00     0.003 A 
ATOM     30  C   UNL d   1     -55.207-102.285 -41.237  0.00  0.00     0.020 A 
ATOM     31  C   UNL d   1     -55.014-101.877 -39.880  0.00  0.00     0.000 C 
ATOM     32  C   UNL d   1     -55.181-102.112 -42.044  0.00  0.00     0.098 A 
ENDBRANCH   5  26
TORSDOF 5
ENDMDL
