MODEL 1
REMARK VINA RESULT:      41.1      0.000      0.000
REMARK  5 active torsions:
REMARK  status: ('A' for Active; 'I' for Inactive)
REMARK    1  A    between atoms: C_4  and  S_1 
REMARK    2  A    between atoms: N_12  and  S_1 
REMARK    3  A    between atoms: N_2  and  C_17 
REMARK    4  A    between atoms: C_16  and  N_12 
REMARK    5  A    between atoms: C_17  and  C_16 
ROOT
ATOM      1  N   UNL d   1      13.917  12.798  -2.041  0.00  0.00    -0.155 NA
ENDROOT
BRANCH   1   2
ATOM      2  S   UNL d   1      14.335  12.374  -1.473  0.00  0.00     0.285 S 
ATOM      3  O   UNL d   1      14.634  11.780  -0.985  0.00  0.00    -0.198 OA
ATOM      4  O   UNL d   1      13.845  11.823  -1.849  0.00  0.00    -0.198 OA
BRANCH   2   5
ATOM      5  C   UNL d   1      14.819  12.942  -1.107  0.00  0.00     0.105 A 
ATOM      6  C   UNL d   1      15.527  13.168  -1.465  0.00  0.00     0.012 A 
ATOM      7  C   UNL d   1      16.008  13.727  -1.108  0.00  0.00     0.001 A 
ATOM      8  C   UNL d   1      15.757  12.831  -2.187  0.00  0.00     0.001 C 
ATOM      9  C   UNL d   1      15.784  14.069  -0.385  0.00  0.00     0.000 A 
ATOM     10  C   UNL d   1      15.069  13.835  -0.031  0.00  0.00     0.001 A 
ATOM     11  C   UNL d   1      16.257  14.632  -0.016  0.00  0.00     0.000 C 
ATOM     12  C   UNL d   1      14.592  13.271  -0.399  0.00  0.00     0.012 A 
ATOM     13  C   UNL d   1      13.884  13.042  -0.045  0.00  0.00     0.001 C 
ENDBRANCH   2   5
ENDBRANCH   1   2
BRANCH   1  14
ATOM     14  C   UNL d   1      13.640  12.423  -2.721  0.00  0.00     0.131 C 
BRANCH  14  15
ATOM     15  C   UNL d   1      12.964  12.705  -3.100  0.00  0.00     0.102 C 
BRANCH  15  16
ATOM     16  N   UNL d   1      13.022  13.028  -3.857  0.00  0.00    -0.304 N 
ATOM     17  C   UNL d   1      13.037  12.602  -4.567  0.00  0.00     0.064 A 
ATOM     18  C   UNL d   1      13.099  13.140  -5.187  0.00  0.00     0.019 A 
ATOM     19  C   UNL d   1      12.996  11.782  -4.640  0.00  0.00     0.019 C 
ATOM     20  C   UNL d   1      13.123  13.900  -4.868  0.00  0.00     0.018 A 
ATOM     21  C   UNL d   1      13.076  13.834  -4.047  0.00  0.00     0.064 A 
ATOM     22  C   UNL d   1      13.182  14.648  -5.209  0.00  0.00     0.002 A 
ATOM     23  C   UNL d   1      13.087  14.503  -3.569  0.00  0.00     0.018 A 
ATOM     24  C   UNL d   1      13.145  15.249  -3.908  0.00  0.00     0.002 A 
ATOM     25  C   UNL d   1      13.194  15.332  -4.738  0.00  0.00     0.000 A 
ENDBRANCH  15  16
ENDBRANCH  14  15
ENDBRANCH   1  14
TORSDOF 5
ENDMDL
