MODEL 1
REMARK VINA RESULT:      -2.3      0.000      0.000
REMARK  4 active torsions:
REMARK  status: ('A' for Active; 'I' for Inactive)
REMARK    1  A    between atoms: N_6  and  C_2 
REMARK    2  A    between atoms: N_8  and  C_3 
REMARK    3  A    between atoms: C_10  and  N_8 
REMARK    4  A    between atoms: C_14  and  C_10 
ROOT
ATOM      1  N   UNL d   1      32.822  21.771 -21.894  0.00  0.00    -0.041 NA
ATOM      2  C   UNL d   1      32.808  22.578 -21.685  0.00  0.00     0.737 A 
ATOM      3  C   UNL d   1      32.932  21.550 -22.686  0.00  0.00     0.182 A 
ATOM      4  N   UNL d   1      32.906  23.162 -22.273  0.00  0.00    -0.060 NA
ATOM      5  C   UNL d   1      33.029  22.131 -23.270  0.00  0.00     0.055 A 
ATOM      6  C   UNL d   1      33.016  22.931 -23.067  0.00  0.00     0.103 A 
ATOM      7  C   UNL d   1      33.140  21.911 -24.062  0.00  0.00     0.005 A 
ATOM      8  C   UNL d   1      33.114  23.519 -23.656  0.00  0.00     0.020 A 
ATOM      9  C   UNL d   1      33.236  22.481 -24.640  0.00  0.00     0.000 A 
ATOM     10  C   UNL d   1      33.223  23.291 -24.435  0.00  0.00     0.002 A 
ENDROOT
BRANCH   3  11
ATOM     11  N   UNL d   1      32.947  20.716 -22.906  0.00  0.00    -0.225 NA
BRANCH  11  12
ATOM     12  C   UNL d   1      32.962  20.150 -22.398  0.00  0.00     0.101 C 
BRANCH  12  13
ATOM     13  C   UNL d   1      32.963  19.426 -22.638  0.00  0.00     0.019 A 
ATOM     14  C   UNL d   1      33.241  18.888 -22.193  0.00  0.00     0.002 A 
ATOM     15  C   UNL d   1      33.241  18.170 -22.432  0.00  0.00     0.000 A 
ATOM     16  C   UNL d   1      32.964  17.996 -23.116  0.00  0.00     0.000 A 
ATOM     17  C   UNL d   1      32.684  18.554 -23.561  0.00  0.00     0.000 A 
ATOM     18  C   UNL d   1      32.687  19.265 -23.315  0.00  0.00     0.002 A 
ENDBRANCH  12  13
ENDBRANCH  11  12
ENDBRANCH   3  11
BRANCH   2  19
ATOM     19  N   UNL d   1      32.694  22.807 -20.867  0.00  0.00    -0.133 N 
ATOM     20  C   UNL d   1      32.031  23.309 -20.655  0.00  0.00     0.125 A 
ATOM     21  C   UNL d   1      31.913  23.539 -19.846  0.00  0.00     0.142 A 
ATOM     22  O   UNL d   1      32.453  23.271 -19.246  0.00  0.00    -0.300 OA
ATOM     23  C   UNL d   1      33.115  22.769 -19.458  0.00  0.00     0.142 A 
ATOM     24  C   UNL d   1      33.236  22.537 -20.269  0.00  0.00     0.125 A 
ENDBRANCH   2  19
TORSDOF 4
ENDMDL
MODEL 2
REMARK VINA RESULT:      -2.2      1.383      3.948
REMARK  4 active torsions:
REMARK  status: ('A' for Active; 'I' for Inactive)
REMARK    1  A    between atoms: N_6  and  C_2 
REMARK    2  A    between atoms: N_8  and  C_3 
REMARK    3  A    between atoms: C_10  and  N_8 
REMARK    4  A    between atoms: C_14  and  C_10 
ROOT
ATOM      1  N   UNL d   1      33.144  21.256 -22.117  0.00  0.00    -0.041 NA
ATOM      2  C   UNL d   1      33.189  20.810 -22.820  0.00  0.00     0.737 A 
ATOM      3  C   UNL d   1      33.132  22.085 -22.152  0.00  0.00     0.182 A 
ATOM      4  N   UNL d   1      33.221  21.198 -23.558  0.00  0.00    -0.060 NA
ATOM      5  C   UNL d   1      33.164  22.470 -22.887  0.00  0.00     0.055 A 
ATOM      6  C   UNL d   1      33.208  22.032 -23.585  0.00  0.00     0.103 A 
ATOM      7  C   UNL d   1      33.151  23.299 -22.923  0.00  0.00     0.005 A 
ATOM      8  C   UNL d   1      33.241  22.419 -24.326  0.00  0.00     0.020 A 
ATOM      9  C   UNL d   1      33.183  23.681 -23.644  0.00  0.00     0.000 A 
ATOM     10  C   UNL d   1      33.228  23.238 -24.351  0.00  0.00     0.002 A 
ENDROOT
BRANCH   3  11
ATOM     11  N   UNL d   1      33.085  22.550 -21.427  0.00  0.00    -0.225 NA
BRANCH  11  12
ATOM     12  C   UNL d   1      32.874  22.259 -20.757  0.00  0.00     0.101 C 
BRANCH  12  13
ATOM     13  C   UNL d   1      32.786  22.719 -20.155  0.00  0.00     0.019 A 
ATOM     14  C   UNL d   1      33.237  22.640 -19.559  0.00  0.00     0.002 A 
ATOM     15  C   UNL d   1      33.148  23.098 -18.963  0.00  0.00     0.000 A 
ATOM     16  C   UNL d   1      32.609  23.631 -18.968  0.00  0.00     0.000 A 
ATOM     17  C   UNL d   1      32.156  23.701 -19.582  0.00  0.00     0.000 A 
ATOM     18  C   UNL d   1      32.250  23.242 -20.171  0.00  0.00     0.002 A 
ENDBRANCH  12  13
ENDBRANCH  11  12
ENDBRANCH   3  11
BRANCH   2  19
ATOM     19  N   UNL d   1      33.202  19.953 -22.784  0.00  0.00    -0.133 N 
ATOM     20  C   UNL d   1      33.223  19.561 -22.021  0.00  0.00     0.125 A 
ATOM     21  C   UNL d   1      33.236  18.713 -21.979  0.00  0.00     0.142 A 
ATOM     22  O   UNL d   1      33.228  18.253 -22.694  0.00  0.00    -0.300 OA
ATOM     23  C   UNL d   1      33.207  18.645 -23.457  0.00  0.00     0.142 A 
ATOM     24  C   UNL d   1      33.194  19.496 -23.501  0.00  0.00     0.125 A 
ENDBRANCH   2  19
TORSDOF 4
ENDMDL
MODEL 3
REMARK VINA RESULT:      -1.8      3.456      5.992
REMARK  4 active torsions:
REMARK  status: ('A' for Active; 'I' for Inactive)
REMARK    1  A    between atoms: N_6  and  C_2 
REMARK    2  A    between atoms: N_8  and  C_3 
REMARK    3  A    between atoms: C_10  and  N_8 
REMARK    4  A    between atoms: C_14  and  C_10 
ROOT
ATOM      1  N   UNL d   1      30.951  17.546 -23.946  0.00  0.00    -0.041 NA
ATOM      2  C   UNL d   1      30.452  16.926 -24.195  0.00  0.00     0.737 A 
ATOM      3  C   UNL d   1      31.772  17.484 -24.047  0.00  0.00     0.182 A 
ATOM      4  N   UNL d   1      30.780  16.245 -24.547  0.00  0.00    -0.060 NA
ATOM      5  C   UNL d   1      32.096  16.806 -24.397  0.00  0.00     0.055 A 
ATOM      6  C   UNL d   1      31.607  16.190 -24.646  0.00  0.00     0.103 A 
ATOM      7  C   UNL d   1      32.918  16.743 -24.499  0.00  0.00     0.005 A 
ATOM      8  C   UNL d   1      31.933  15.505 -24.999  0.00  0.00     0.020 A 
ATOM      9  C   UNL d   1      33.241  16.076 -24.844  0.00  0.00     0.000 A 
ATOM     10  C   UNL d   1      32.745  15.453 -25.096  0.00  0.00     0.002 A 
ENDROOT
BRANCH   3  11
ATOM     11  N   UNL d   1      32.291  18.123 -23.790  0.00  0.00    -0.225 NA
BRANCH  11  12
ATOM     12  C   UNL d   1      32.194  18.503 -23.139  0.00  0.00     0.101 C 
BRANCH  12  13
ATOM     13  C   UNL d   1      32.546  19.173 -23.035  0.00  0.00     0.019 A 
ATOM     14  C   UNL d   1      32.705  19.604 -23.629  0.00  0.00     0.002 A 
ATOM     15  C   UNL d   1      33.054  20.267 -23.524  0.00  0.00     0.000 A 
ATOM     16  C   UNL d   1      33.241  20.494 -22.825  0.00  0.00     0.000 A 
ATOM     17  C   UNL d   1      33.073  20.045 -22.228  0.00  0.00     0.000 A 
ATOM     18  C   UNL d   1      32.726  19.386 -22.340  0.00  0.00     0.002 A 
ENDBRANCH  12  13
ENDBRANCH  11  12
ENDBRANCH   3  11
BRANCH   2  19
ATOM     19  N   UNL d   1      29.603  16.990 -24.090  0.00  0.00    -0.133 N 
ATOM     20  C   UNL d   1      29.195  16.429 -23.587  0.00  0.00     0.125 A 
ATOM     21  C   UNL d   1      28.354  16.488 -23.479  0.00  0.00     0.142 A 
ATOM     22  O   UNL d   1      27.919  17.103 -23.871  0.00  0.00    -0.300 OA
ATOM     23  C   UNL d   1      28.327  17.665 -24.374  0.00  0.00     0.142 A 
ATOM     24  C   UNL d   1      29.170  17.608 -24.484  0.00  0.00     0.125 A 
ENDBRANCH   2  19
TORSDOF 4
ENDMDL
