MODEL 1
REMARK VINA RESULT:       5.4      0.000      0.000
REMARK  4 active torsions:
REMARK  status: ('A' for Active; 'I' for Inactive)
REMARK    1  A    between atoms: C_2  and  C_1 
REMARK    2  A    between atoms: C_4  and  C_1 
REMARK    3  A    between atoms: C_5  and  C_2 
REMARK    4  A    between atoms: N_6  and  C_5 
ROOT
ATOM      1  C   UNL d   1      14.181  12.087  -2.509  0.00  0.00     0.197 C 
ATOM      2  O   UNL d   1      14.888  12.015  -2.942  0.00  0.00    -0.286 OA
ENDROOT
BRANCH   1   3
ATOM      3  C   UNL d   1      13.476  12.205  -2.891  0.00  0.00     0.061 C 
BRANCH   3   4
ATOM      4  C   UNL d   1      13.298  11.790  -3.569  0.00  0.00     0.084 C 
BRANCH   4   5
ATOM      5  N   UNL d   1      13.130  12.194  -4.269  0.00  0.00    -0.300 N 
ATOM      6  C   UNL d   1      13.071  11.782  -4.977  0.00  0.00     0.100 C 
ATOM      7  C   UNL d   1      13.021  13.010  -4.255  0.00  0.00     0.100 C 
ENDBRANCH   4   5
ENDBRANCH   3   4
ENDBRANCH   1   3
BRANCH   1   8
ATOM      8  C   UNL d   1      14.193  12.037  -1.666  0.00  0.00     0.039 A 
ATOM      9  C   UNL d   1      14.892  12.192  -1.251  0.00  0.00     0.003 A 
ATOM     10  C   UNL d   1      14.910  12.145  -0.441  0.00  0.00     0.000 A 
ATOM     11  C   UNL d   1      14.223  11.942  -0.031  0.00  0.00     0.000 A 
ATOM     12  C   UNL d   1      13.515  11.784  -0.428  0.00  0.00     0.000 A 
ATOM     13  C   UNL d   1      13.515  11.837  -1.269  0.00  0.00     0.003 A 
ENDBRANCH   1   8
TORSDOF 4
ENDMDL
