MODEL 1
REMARK VINA RESULT:      -3.4      0.000      0.000
REMARK  2 active torsions:
REMARK  status: ('A' for Active; 'I' for Inactive)
REMARK    1  A    between atoms: N_5  and  C_1 
REMARK       I    between atoms: C_7  and  N_5 
REMARK    2  A    between atoms: C_11  and  C_7 
ROOT
ATOM      1  C   UNL d   1      33.161  20.658 -22.293  0.00  0.00     0.124 A 
ATOM      2  C   UNL d   1      33.195  20.571 -23.083  0.00  0.00     0.093 A 
ATOM      3  S   UNL d   1      33.149  19.916 -21.937  0.00  0.00    -0.067 SA
ATOM      4  C   UNL d   1      33.206  19.772 -23.263  0.00  0.00     0.018 A 
ATOM      5  C   UNL d   1      33.176  19.351 -22.528  0.00  0.00     0.032 A 
ATOM      6  C   UNL d   1      33.217  21.212 -23.661  0.00  0.00     0.103 C 
ATOM      7  N   UNL d   1      33.239  21.810 -24.223  0.00  0.00    -0.191 NA
ATOM      8  C   UNL d   1      33.238  19.361 -23.969  0.00  0.00     0.001 A 
ATOM      9  C   UNL d   1      33.180  18.537 -22.528  0.00  0.00     0.006 A 
ATOM     10  C   UNL d   1      33.240  18.521 -23.937  0.00  0.00     0.000 A 
ATOM     11  C   UNL d   1      33.213  18.138 -23.268  0.00  0.00     0.001 A 
ENDROOT
BRANCH   1  12
ATOM     12  N   UNL d   1      33.140  21.394 -21.873  0.00  0.00    -0.201 NA
ATOM     13  C   UNL d   1      32.709  21.461 -21.171  0.00  0.00     0.280 C 
ATOM     14  O   UNL d   1      32.277  20.790 -20.858  0.00  0.00    -0.265 OA
BRANCH  13  15
ATOM     15  C   UNL d   1      32.688  22.166 -20.768  0.00  0.00     0.058 A 
ATOM     16  C   UNL d   1      33.218  22.270 -20.111  0.00  0.00     0.005 A 
ATOM     17  C   UNL d   1      33.197  23.006 -19.691  0.00  0.00     0.000 A 
ATOM     18  C   UNL d   1      32.648  23.602 -19.949  0.00  0.00     0.000 A 
ATOM     19  C   UNL d   1      32.143  23.487 -20.585  0.00  0.00     0.000 A 
ATOM     20  C   UNL d   1      32.163  22.782 -20.987  0.00  0.00     0.005 A 
ENDBRANCH  13  15
ENDBRANCH   1  12
TORSDOF 2
ENDMDL
MODEL 2
REMARK VINA RESULT:      -2.1      1.516      4.521
REMARK  2 active torsions:
REMARK  status: ('A' for Active; 'I' for Inactive)
REMARK    1  A    between atoms: N_5  and  C_1 
REMARK       I    between atoms: C_7  and  N_5 
REMARK    2  A    between atoms: C_11  and  C_7 
ROOT
ATOM      1  C   UNL d   1      33.240  19.415 -22.815  0.00  0.00     0.124 A 
ATOM      2  C   UNL d   1      33.240  20.193 -22.976  0.00  0.00     0.093 A 
ATOM      3  S   UNL d   1      33.241  19.303 -22.000  0.00  0.00    -0.067 SA
ATOM      4  C   UNL d   1      33.240  20.611 -22.271  0.00  0.00     0.018 A 
ATOM      5  C   UNL d   1      33.241  20.040 -21.644  0.00  0.00     0.032 A 
ATOM      6  C   UNL d   1      33.239  20.546 -23.764  0.00  0.00     0.103 C 
ATOM      7  N   UNL d   1      33.238  20.897 -24.506  0.00  0.00    -0.191 NA
ATOM      8  C   UNL d   1      33.239  21.410 -22.098  0.00  0.00     0.001 A 
ATOM      9  C   UNL d   1      33.241  20.291 -20.870  0.00  0.00     0.006 A 
ATOM     10  C   UNL d   1      33.239  21.638 -21.288  0.00  0.00     0.000 A 
ATOM     11  C   UNL d   1      33.240  21.119 -20.718  0.00  0.00     0.001 A 
ENDROOT
BRANCH   1  12
ATOM     12  N   UNL d   1      33.241  18.788 -23.386  0.00  0.00    -0.201 NA
ATOM     13  C   UNL d   1      32.803  18.099 -23.250  0.00  0.00     0.280 C 
ATOM     14  O   UNL d   1      32.344  18.009 -22.531  0.00  0.00    -0.265 OA
BRANCH  13  15
ATOM     15  C   UNL d   1      32.803  17.499 -23.797  0.00  0.00     0.058 A 
ATOM     16  C   UNL d   1      33.211  16.778 -23.603  0.00  0.00     0.005 A 
ATOM     17  C   UNL d   1      33.211  16.151 -24.174  0.00  0.00     0.000 A 
ATOM     18  C   UNL d   1      32.804  16.276 -24.910  0.00  0.00     0.000 A 
ATOM     19  C   UNL d   1      32.415  16.977 -25.082  0.00  0.00     0.000 A 
ATOM     20  C   UNL d   1      32.415  17.578 -24.535  0.00  0.00     0.005 A 
ENDBRANCH  13  15
ENDBRANCH   1  12
TORSDOF 2
ENDMDL
MODEL 3
REMARK VINA RESULT:      -1.7      2.004      3.015
REMARK  2 active torsions:
REMARK  status: ('A' for Active; 'I' for Inactive)
REMARK    1  A    between atoms: N_5  and  C_1 
REMARK       I    between atoms: C_7  and  N_5 
REMARK    2  A    between atoms: C_11  and  C_7 
ROOT
ATOM      1  C   UNL d   1      32.584  18.195 -23.622  0.00  0.00     0.124 A 
ATOM      2  C   UNL d   1      31.993  17.865 -24.040  0.00  0.00     0.093 A 
ATOM      3  S   UNL d   1      33.099  17.607 -23.365  0.00  0.00    -0.067 SA
ATOM      4  C   UNL d   1      32.106  17.054 -24.066  0.00  0.00     0.018 A 
ATOM      5  C   UNL d   1      32.816  16.888 -23.633  0.00  0.00     0.032 A 
ATOM      6  C   UNL d   1      31.337  18.288 -24.407  0.00  0.00     0.103 C 
ATOM      7  N   UNL d   1      30.707  18.676 -24.762  0.00  0.00    -0.191 NA
ATOM      8  C   UNL d   1      31.684  16.444 -24.411  0.00  0.00     0.001 A 
ATOM      9  C   UNL d   1      33.074  16.119 -23.562  0.00  0.00     0.006 A 
ATOM     10  C   UNL d   1      31.977  15.661 -24.319  0.00  0.00     0.000 A 
ATOM     11  C   UNL d   1      32.622  15.510 -23.925  0.00  0.00     0.001 A 
ENDROOT
BRANCH   1  12
ATOM     12  N   UNL d   1      32.679  19.022 -23.461  0.00  0.00    -0.201 NA
ATOM     13  C   UNL d   1      32.962  19.273 -22.725  0.00  0.00     0.280 C 
ATOM     14  O   UNL d   1      33.163  18.704 -22.117  0.00  0.00    -0.265 OA
BRANCH  13  15
ATOM     15  C   UNL d   1      33.053  20.065 -22.571  0.00  0.00     0.058 A 
ATOM     16  C   UNL d   1      33.047  20.321 -21.759  0.00  0.00     0.005 A 
ATOM     17  C   UNL d   1      33.142  21.148 -21.598  0.00  0.00     0.000 A 
ATOM     18  C   UNL d   1      33.238  21.678 -22.256  0.00  0.00     0.000 A 
ATOM     19  C   UNL d   1      33.241  21.417 -23.033  0.00  0.00     0.000 A 
ATOM     20  C   UNL d   1      33.150  20.625 -23.187  0.00  0.00     0.005 A 
ENDBRANCH  13  15
ENDBRANCH   1  12
TORSDOF 2
ENDMDL
MODEL 4
REMARK VINA RESULT:      -1.7      2.323      4.810
REMARK  2 active torsions:
REMARK  status: ('A' for Active; 'I' for Inactive)
REMARK    1  A    between atoms: N_5  and  C_1 
REMARK       I    between atoms: C_7  and  N_5 
REMARK    2  A    between atoms: C_11  and  C_7 
ROOT
ATOM      1  C   UNL d   1      33.176  19.416 -23.644  0.00  0.00     0.124 A 
ATOM      2  C   UNL d   1      33.187  19.930 -23.038  0.00  0.00     0.093 A 
ATOM      3  S   UNL d   1      33.187  19.830 -24.355  0.00  0.00    -0.067 SA
ATOM      4  C   UNL d   1      33.206  20.693 -23.336  0.00  0.00     0.018 A 
ATOM      5  C   UNL d   1      33.206  20.629 -24.182  0.00  0.00     0.032 A 
ATOM      6  C   UNL d   1      33.181  19.724 -22.200  0.00  0.00     0.103 C 
ATOM      7  N   UNL d   1      33.175  19.544 -21.399  0.00  0.00    -0.191 NA
ATOM      8  C   UNL d   1      33.224  21.429 -22.981  0.00  0.00     0.001 A 
ATOM      9  C   UNL d   1      33.224  21.303 -24.637  0.00  0.00     0.006 A 
ATOM     10  C   UNL d   1      33.241  22.107 -23.479  0.00  0.00     0.000 A 
ATOM     11  C   UNL d   1      33.241  22.049 -24.247  0.00  0.00     0.001 A 
ENDROOT
BRANCH   1  12
ATOM     12  N   UNL d   1      33.155  18.570 -23.580  0.00  0.00    -0.201 NA
ATOM     13  C   UNL d   1      32.618  18.131 -24.029  0.00  0.00     0.280 C 
ATOM     14  O   UNL d   1      32.076  18.522 -24.566  0.00  0.00    -0.265 OA
BRANCH  13  15
ATOM     15  C   UNL d   1      32.599  17.322 -23.968  0.00  0.00     0.058 A 
ATOM     16  C   UNL d   1      31.908  16.960 -23.629  0.00  0.00     0.005 A 
ATOM     17  C   UNL d   1      31.887  16.115 -23.565  0.00  0.00     0.000 A 
ATOM     18  C   UNL d   1      32.558  15.673 -23.843  0.00  0.00     0.000 A 
ATOM     19  C   UNL d   1      33.218  16.036 -24.167  0.00  0.00     0.000 A 
ATOM     20  C   UNL d   1      33.238  16.846 -24.229  0.00  0.00     0.005 A 
ENDBRANCH  13  15
ENDBRANCH   1  12
TORSDOF 2
ENDMDL
MODEL 5
REMARK VINA RESULT:      -1.6      1.763      2.522
REMARK  2 active torsions:
REMARK  status: ('A' for Active; 'I' for Inactive)
REMARK    1  A    between atoms: N_5  and  C_1 
REMARK       I    between atoms: C_7  and  N_5 
REMARK    2  A    between atoms: C_11  and  C_7 
ROOT
ATOM      1  C   UNL d   1      33.233  22.330 -22.411  0.00  0.00     0.124 A 
ATOM      2  C   UNL d   1      33.230  21.672 -22.856  0.00  0.00     0.093 A 
ATOM      3  S   UNL d   1      33.227  22.992 -22.900  0.00  0.00    -0.067 SA
ATOM      4  C   UNL d   1      33.222  21.885 -23.648  0.00  0.00     0.018 A 
ATOM      5  C   UNL d   1      33.220  22.733 -23.676  0.00  0.00     0.032 A 
ATOM      6  C   UNL d   1      33.235  20.861 -22.560  0.00  0.00     0.103 C 
ATOM      7  N   UNL d   1      33.240  20.084 -22.294  0.00  0.00    -0.191 NA
ATOM      8  C   UNL d   1      33.217  21.452 -24.340  0.00  0.00     0.001 A 
ATOM      9  C   UNL d   1      33.212  23.112 -24.396  0.00  0.00     0.006 A 
ATOM     10  C   UNL d   1      33.209  21.873 -25.069  0.00  0.00     0.000 A 
ATOM     11  C   UNL d   1      33.207  22.644 -25.094  0.00  0.00     0.001 A 
ENDROOT
BRANCH   1  12
ATOM     12  N   UNL d   1      33.240  22.358 -21.563  0.00  0.00    -0.201 NA
ATOM     13  C   UNL d   1      32.852  22.968 -21.163  0.00  0.00     0.280 C 
ATOM     14  O   UNL d   1      32.437  23.580 -21.596  0.00  0.00    -0.265 OA
BRANCH  13  15
ATOM     15  C   UNL d   1      32.859  22.995 -20.351  0.00  0.00     0.058 A 
ATOM     16  C   UNL d   1      33.231  23.661 -19.973  0.00  0.00     0.005 A 
ATOM     17  C   UNL d   1      33.239  23.689 -19.126  0.00  0.00     0.000 A 
ATOM     18  C   UNL d   1      32.875  23.050 -18.698  0.00  0.00     0.000 A 
ATOM     19  C   UNL d   1      32.520  22.415 -19.077  0.00  0.00     0.000 A 
ATOM     20  C   UNL d   1      32.513  22.388 -19.889  0.00  0.00     0.005 A 
ENDBRANCH  13  15
ENDBRANCH   1  12
TORSDOF 2
ENDMDL
MODEL 6
REMARK VINA RESULT:      -0.8      1.474      4.402
REMARK  2 active torsions:
REMARK  status: ('A' for Active; 'I' for Inactive)
REMARK    1  A    between atoms: N_5  and  C_1 
REMARK       I    between atoms: C_7  and  N_5 
REMARK    2  A    between atoms: C_11  and  C_7 
ROOT
ATOM      1  C   UNL d   1      32.846  20.558 -22.502  0.00  0.00     0.124 A 
ATOM      2  C   UNL d   1      32.916  20.878 -21.778  0.00  0.00     0.093 A 
ATOM      3  S   UNL d   1      32.912  21.150 -23.070  0.00  0.00    -0.067 SA
ATOM      4  C   UNL d   1      33.031  21.686 -21.853  0.00  0.00     0.018 A 
ATOM      5  C   UNL d   1      33.028  21.861 -22.683  0.00  0.00     0.032 A 
ATOM      6  C   UNL d   1      32.880  20.448 -21.030  0.00  0.00     0.103 C 
ATOM      7  N   UNL d   1      32.847  20.054 -20.310  0.00  0.00    -0.191 NA
ATOM      8  C   UNL d   1      33.136  22.286 -21.308  0.00  0.00     0.001 A 
ATOM      9  C   UNL d   1      33.131  22.628 -22.934  0.00  0.00     0.006 A 
ATOM     10  C   UNL d   1      33.240  23.069 -21.598  0.00  0.00     0.000 A 
ATOM     11  C   UNL d   1      33.238  23.227 -22.353  0.00  0.00     0.001 A 
ENDROOT
BRANCH   1  12
ATOM     12  N   UNL d   1      32.721  19.737 -22.674  0.00  0.00    -0.201 NA
ATOM     13  C   UNL d   1      32.876  19.442 -23.431  0.00  0.00     0.280 C 
ATOM     14  O   UNL d   1      33.165  19.959 -24.051  0.00  0.00    -0.265 OA
BRANCH  13  15
ATOM     15  C   UNL d   1      32.757  18.656 -23.596  0.00  0.00     0.058 A 
ATOM     16  C   UNL d   1      33.226  18.296 -24.207  0.00  0.00     0.005 A 
ATOM     17  C   UNL d   1      33.101  17.476 -24.380  0.00  0.00     0.000 A 
ATOM     18  C   UNL d   1      32.513  17.054 -23.932  0.00  0.00     0.000 A 
ATOM     19  C   UNL d   1      32.069  17.415 -23.345  0.00  0.00     0.000 A 
ATOM     20  C   UNL d   1      32.188  18.201 -23.180  0.00  0.00     0.005 A 
ENDBRANCH  13  15
ENDBRANCH   1  12
TORSDOF 2
ENDMDL
