MODEL 1
REMARK VINA RESULT:      -9.0      0.000      0.000
REMARK  3 active torsions:
REMARK  status: ('A' for Active; 'I' for Inactive)
REMARK    1  A    between atoms: C_7  and  C_1 
REMARK    2  A    between atoms: O_20  and  C_12 
REMARK    3  A    between atoms: O_22  and  C_16 
ROOT
ATOM      1  C   UNL d   1     -47.988  13.450  22.993  0.00  0.00     0.062 A 
ATOM      2  C   UNL d   1     -47.997  12.650  23.230  0.00  0.00     0.202 A 
ATOM      3  C   UNL d   1     -47.288  12.240  23.346  0.00  0.00     0.101 A 
ATOM      4  C   UNL d   1     -47.256  13.838  22.873  0.00  0.00     0.103 A 
ATOM      5  C   UNL d   1     -46.558  12.631  23.225  0.00  0.00     0.109 A 
ATOM      6  O   UNL d   1     -46.539  13.423  22.991  0.00  0.00    -0.307 OA
ATOM      7  C   UNL d   1     -47.299  11.452  23.580  0.00  0.00     0.204 A 
ATOM      8  C   UNL d   1     -45.849  12.221  23.342  0.00  0.00     0.067 A 
ATOM      9  C   UNL d   1     -46.593  11.046  23.695  0.00  0.00     0.084 A 
ATOM     10  O   UNL d   1     -48.718  12.267  23.348  0.00  0.00    -0.286 OA
ATOM     11  C   UNL d   1     -45.871  11.428  23.577  0.00  0.00     0.201 A 
ATOM     12  O   UNL d   1     -48.021  11.069  23.698  0.00  0.00    -0.286 OA
ATOM     13  C   UNL d   1     -47.247  14.623  22.640  0.00  0.00     0.027 C 
ATOM     14  O   UNL d   1     -45.165  11.022  23.692  0.00  0.00    -0.286 OA
ENDROOT
BRANCH   1  15
ATOM     15  C   UNL d   1     -48.692  13.853  22.879  0.00  0.00     0.007 A 
ATOM     16  C   UNL d   1     -49.100  13.766  22.169  0.00  0.00     0.026 A 
ATOM     17  C   UNL d   1     -49.808  14.170  22.052  0.00  0.00     0.116 A 
ATOM     18  C   UNL d   1     -50.111  14.664  22.650  0.00  0.00     0.116 A 
ATOM     19  C   UNL d   1     -49.693  14.743  23.359  0.00  0.00     0.026 A 
ATOM     20  C   UNL d   1     -48.986  14.340  23.476  0.00  0.00     0.002 A 
BRANCH  17  21
ATOM     21  O   UNL d   1     -50.220  14.085  21.339  0.00  0.00    -0.326 OA
ATOM     22  C   UNL d   1     -50.424  13.331  21.073  0.00  0.00     0.181 C 
ENDBRANCH  17  21
BRANCH  18  23
ATOM     23  O   UNL d   1     -50.820  15.067  22.532  0.00  0.00    -0.326 OA
ATOM     24  C   UNL d   1     -51.064  15.642  23.073  0.00  0.00     0.181 C 
ENDBRANCH  18  23
ENDBRANCH   1  15
TORSDOF 3
ENDMDL
MODEL 2
REMARK VINA RESULT:      -8.5      0.561      1.442
REMARK  3 active torsions:
REMARK  status: ('A' for Active; 'I' for Inactive)
REMARK    1  A    between atoms: C_7  and  C_1 
REMARK    2  A    between atoms: O_20  and  C_12 
REMARK    3  A    between atoms: O_22  and  C_16 
ROOT
ATOM      1  C   UNL d   1     -48.370  13.003  23.154  0.00  0.00     0.062 A 
ATOM      2  C   UNL d   1     -47.592  13.220  22.945  0.00  0.00     0.202 A 
ATOM      3  C   UNL d   1     -46.963  12.696  23.070  0.00  0.00     0.101 A 
ATOM      4  C   UNL d   1     -48.513  12.251  23.492  0.00  0.00     0.103 A 
ATOM      5  C   UNL d   1     -47.111  11.945  23.408  0.00  0.00     0.109 A 
ATOM      6  O   UNL d   1     -47.877  11.722  23.618  0.00  0.00    -0.307 OA
ATOM      7  C   UNL d   1     -46.198  12.913  22.862  0.00  0.00     0.204 A 
ATOM      8  C   UNL d   1     -46.482  11.422  23.533  0.00  0.00     0.067 A 
ATOM      9  C   UNL d   1     -45.574  12.390  22.987  0.00  0.00     0.084 A 
ATOM     10  O   UNL d   1     -47.451  13.961  22.612  0.00  0.00    -0.286 OA
ATOM     11  C   UNL d   1     -45.715  11.649  23.321  0.00  0.00     0.201 A 
ATOM     12  O   UNL d   1     -46.056  13.654  22.529  0.00  0.00    -0.286 OA
ATOM     13  C   UNL d   1     -49.277  12.038  23.698  0.00  0.00     0.027 C 
ATOM     14  O   UNL d   1     -45.092  11.127  23.446  0.00  0.00    -0.286 OA
ENDROOT
BRANCH   1  15
ATOM     15  C   UNL d   1     -48.990  13.524  23.029  0.00  0.00     0.007 A 
ATOM     16  C   UNL d   1     -49.394  13.511  22.312  0.00  0.00     0.026 A 
ATOM     17  C   UNL d   1     -50.017  14.035  22.184  0.00  0.00     0.116 A 
ATOM     18  C   UNL d   1     -50.238  14.575  22.778  0.00  0.00     0.116 A 
ATOM     19  C   UNL d   1     -49.825  14.578  23.494  0.00  0.00     0.026 A 
ATOM     20  C   UNL d   1     -49.203  14.056  23.623  0.00  0.00     0.002 A 
BRANCH  17  21
ATOM     21  O   UNL d   1     -50.424  14.024  21.464  0.00  0.00    -0.326 OA
ATOM     22  C   UNL d   1     -50.526  13.310  21.063  0.00  0.00     0.181 C 
ENDBRANCH  17  21
BRANCH  18  23
ATOM     23  O   UNL d   1     -50.861  15.097  22.649  0.00  0.00    -0.326 OA
ATOM     24  C   UNL d   1     -51.064  15.650  23.229  0.00  0.00     0.181 C 
ENDBRANCH  18  23
ENDBRANCH   1  15
TORSDOF 3
ENDMDL
MODEL 3
REMARK VINA RESULT:      -8.4      1.040      4.394
REMARK  3 active torsions:
REMARK  status: ('A' for Active; 'I' for Inactive)
REMARK    1  A    between atoms: C_7  and  C_1 
REMARK    2  A    between atoms: O_20  and  C_12 
REMARK    3  A    between atoms: O_22  and  C_16 
ROOT
ATOM      1  C   UNL d   1     -48.126  12.898  22.649  0.00  0.00     0.062 A 
ATOM      2  C   UNL d   1     -48.284  13.688  22.869  0.00  0.00     0.202 A 
ATOM      3  C   UNL d   1     -48.980  14.059  22.622  0.00  0.00     0.101 A 
ATOM      4  C   UNL d   1     -48.677  12.482  22.176  0.00  0.00     0.103 A 
ATOM      5  C   UNL d   1     -49.529  13.640  22.149  0.00  0.00     0.109 A 
ATOM      6  O   UNL d   1     -49.381  12.858  21.927  0.00  0.00    -0.307 OA
ATOM      7  C   UNL d   1     -49.134  14.837  22.839  0.00  0.00     0.204 A 
ATOM      8  C   UNL d   1     -50.226  14.011  21.902  0.00  0.00     0.067 A 
ATOM      9  C   UNL d   1     -49.828  15.205  22.593  0.00  0.00     0.084 A 
ATOM     10  O   UNL d   1     -47.741  14.098  23.335  0.00  0.00    -0.286 OA
ATOM     11  C   UNL d   1     -50.371  14.794  22.127  0.00  0.00     0.201 A 
ATOM     12  O   UNL d   1     -48.591  15.248  23.305  0.00  0.00    -0.286 OA
ATOM     13  C   UNL d   1     -48.521  11.707  21.961  0.00  0.00     0.027 C 
ATOM     14  O   UNL d   1     -51.064  15.162  21.880  0.00  0.00    -0.286 OA
ENDROOT
BRANCH   1  15
ATOM     15  C   UNL d   1     -47.434  12.534  22.896  0.00  0.00     0.007 A 
ATOM     16  C   UNL d   1     -46.709  12.809  22.621  0.00  0.00     0.026 A 
ATOM     17  C   UNL d   1     -46.012  12.444  22.868  0.00  0.00     0.116 A 
ATOM     18  C   UNL d   1     -46.043  11.799  23.393  0.00  0.00     0.116 A 
ATOM     19  C   UNL d   1     -46.777  11.531  23.662  0.00  0.00     0.026 A 
ATOM     20  C   UNL d   1     -47.472  11.895  23.416  0.00  0.00     0.002 A 
BRANCH  17  21
ATOM     21  O   UNL d   1     -45.282  12.720  22.593  0.00  0.00    -0.326 OA
ATOM     22  C   UNL d   1     -45.209  12.975  21.812  0.00  0.00     0.181 C 
ENDBRANCH  17  21
BRANCH  18  23
ATOM     23  O   UNL d   1     -45.346  11.434  23.639  0.00  0.00    -0.326 OA
ATOM     24  C   UNL d   1     -45.307  10.611  23.696  0.00  0.00     0.181 C 
ENDBRANCH  18  23
ENDBRANCH   1  15
TORSDOF 3
ENDMDL
MODEL 4
REMARK VINA RESULT:      -6.3      7.939      9.484
REMARK  3 active torsions:
REMARK  status: ('A' for Active; 'I' for Inactive)
REMARK    1  A    between atoms: C_7  and  C_1 
REMARK    2  A    between atoms: O_20  and  C_12 
REMARK    3  A    between atoms: O_22  and  C_16 
ROOT
ATOM      1  C   UNL d   1     -40.101  14.941  20.087  0.00  0.00     0.062 A 
ATOM      2  C   UNL d   1     -39.375  15.270  20.334  0.00  0.00     0.202 A 
ATOM      3  C   UNL d   1     -39.146  15.231  21.128  0.00  0.00     0.101 A 
ATOM      4  C   UNL d   1     -40.599  14.569  20.647  0.00  0.00     0.103 A 
ATOM      5  C   UNL d   1     -39.647  14.858  21.685  0.00  0.00     0.109 A 
ATOM      6  O   UNL d   1     -40.368  14.530  21.450  0.00  0.00    -0.307 OA
ATOM      7  C   UNL d   1     -38.431  15.556  21.369  0.00  0.00     0.204 A 
ATOM      8  C   UNL d   1     -39.419  14.819  22.480  0.00  0.00     0.067 A 
ATOM      9  C   UNL d   1     -38.206  15.515  22.160  0.00  0.00     0.084 A 
ATOM     10  O   UNL d   1     -38.884  15.636  19.781  0.00  0.00    -0.286 OA
ATOM     11  C   UNL d   1     -38.697  15.149  22.712  0.00  0.00     0.201 A 
ATOM     12  O   UNL d   1     -37.940  15.922  20.817  0.00  0.00    -0.286 OA
ATOM     13  C   UNL d   1     -41.312  14.246  20.404  0.00  0.00     0.027 C 
ATOM     14  O   UNL d   1     -38.472  15.109  23.503  0.00  0.00    -0.286 OA
ENDROOT
BRANCH   1  15
ATOM     15  C   UNL d   1     -40.323  14.982  19.299  0.00  0.00     0.007 A 
ATOM     16  C   UNL d   1     -40.101  14.382  18.781  0.00  0.00     0.026 A 
ATOM     17  C   UNL d   1     -40.324  14.421  17.989  0.00  0.00     0.116 A 
ATOM     18  C   UNL d   1     -40.772  15.066  17.713  0.00  0.00     0.116 A 
ATOM     19  C   UNL d   1     -40.990  15.663  18.241  0.00  0.00     0.026 A 
ATOM     20  C   UNL d   1     -40.768  15.624  19.033  0.00  0.00     0.002 A 
BRANCH  17  21
ATOM     21  O   UNL d   1     -40.101  13.819  17.467  0.00  0.00    -0.326 OA
ATOM     22  C   UNL d   1     -39.439  13.357  17.635  0.00  0.00     0.181 C 
ENDBRANCH  17  21
BRANCH  18  23
ATOM     23  O   UNL d   1     -40.995  15.105  16.921  0.00  0.00    -0.326 OA
ATOM     24  C   UNL d   1     -41.163  15.835  16.573  0.00  0.00     0.181 C 
ENDBRANCH  18  23
ENDBRANCH   1  15
TORSDOF 3
ENDMDL
MODEL 5
REMARK VINA RESULT:      -6.0      9.015     10.650
REMARK  3 active torsions:
REMARK  status: ('A' for Active; 'I' for Inactive)
REMARK    1  A    between atoms: C_7  and  C_1 
REMARK    2  A    between atoms: O_20  and  C_12 
REMARK    3  A    between atoms: O_22  and  C_16 
ROOT
ATOM      1  C   UNL d   1     -39.524  14.789  17.884  0.00  0.00     0.062 A 
ATOM      2  C   UNL d   1     -39.006  14.157  17.712  0.00  0.00     0.202 A 
ATOM      3  C   UNL d   1     -38.738  14.034  16.939  0.00  0.00     0.101 A 
ATOM      4  C   UNL d   1     -39.773  15.299  17.269  0.00  0.00     0.103 A 
ATOM      5  C   UNL d   1     -38.989  14.547  16.327  0.00  0.00     0.109 A 
ATOM      6  O   UNL d   1     -39.502  15.175  16.488  0.00  0.00    -0.307 OA
ATOM      7  C   UNL d   1     -38.228  13.412  16.772  0.00  0.00     0.204 A 
ATOM      8  C   UNL d   1     -38.721  14.424  15.553  0.00  0.00     0.067 A 
ATOM      9  C   UNL d   1     -37.963  13.291  16.002  0.00  0.00     0.084 A 
ATOM     10  O   UNL d   1     -38.761  13.654  18.318  0.00  0.00    -0.286 OA
ATOM     11  C   UNL d   1     -38.208  13.794  15.396  0.00  0.00     0.201 A 
ATOM     12  O   UNL d   1     -37.983  12.908  17.378  0.00  0.00    -0.286 OA
ATOM     13  C   UNL d   1     -40.281  15.919  17.438  0.00  0.00     0.027 C 
ATOM     14  O   UNL d   1     -37.943  13.674  14.626  0.00  0.00    -0.286 OA
ENDROOT
BRANCH   1  15
ATOM     15  C   UNL d   1     -39.787  14.907  18.651  0.00  0.00     0.007 A 
ATOM     16  C   UNL d   1     -39.332  15.353  19.173  0.00  0.00     0.026 A 
ATOM     17  C   UNL d   1     -39.595  15.473  19.944  0.00  0.00     0.116 A 
ATOM     18  C   UNL d   1     -40.318  15.145  20.195  0.00  0.00     0.116 A 
ATOM     19  C   UNL d   1     -40.766  14.700  19.663  0.00  0.00     0.026 A 
ATOM     20  C   UNL d   1     -40.504  14.579  18.892  0.00  0.00     0.002 A 
BRANCH  17  21
ATOM     21  O   UNL d   1     -39.139  15.920  20.471  0.00  0.00    -0.326 OA
ATOM     22  C   UNL d   1     -38.316  15.862  20.450  0.00  0.00     0.181 C 
ENDBRANCH  17  21
BRANCH  18  23
ATOM     23  O   UNL d   1     -40.579  15.266  20.967  0.00  0.00    -0.326 OA
ATOM     24  C   UNL d   1     -41.313  14.971  21.206  0.00  0.00     0.181 C 
ENDBRANCH  18  23
ENDBRANCH   1  15
TORSDOF 3
ENDMDL
MODEL 6
REMARK VINA RESULT:      -6.0      8.838     10.771
REMARK  3 active torsions:
REMARK  status: ('A' for Active; 'I' for Inactive)
REMARK    1  A    between atoms: C_7  and  C_1 
REMARK    2  A    between atoms: O_20  and  C_12 
REMARK    3  A    between atoms: O_22  and  C_16 
ROOT
ATOM      1  C   UNL d   1     -39.501  14.660  18.361  0.00  0.00     0.062 A 
ATOM      2  C   UNL d   1     -39.063  14.888  19.034  0.00  0.00     0.202 A 
ATOM      3  C   UNL d   1     -39.451  15.148  19.717  0.00  0.00     0.101 A 
ATOM      4  C   UNL d   1     -40.337  14.695  18.379  0.00  0.00     0.103 A 
ATOM      5  C   UNL d   1     -40.288  15.181  19.731  0.00  0.00     0.109 A 
ATOM      6  O   UNL d   1     -40.728  14.957  19.070  0.00  0.00    -0.307 OA
ATOM      7  C   UNL d   1     -39.018  15.372  20.379  0.00  0.00     0.204 A 
ATOM      8  C   UNL d   1     -40.676  15.441  20.415  0.00  0.00     0.067 A 
ATOM      9  C   UNL d   1     -39.407  15.630  21.058  0.00  0.00     0.084 A 
ATOM     10  O   UNL d   1     -38.239  14.854  19.016  0.00  0.00    -0.286 OA
ATOM     11  C   UNL d   1     -40.231  15.664  21.075  0.00  0.00     0.201 A 
ATOM     12  O   UNL d   1     -38.194  15.338  20.362  0.00  0.00    -0.286 OA
ATOM     13  C   UNL d   1     -40.765  14.471  17.718  0.00  0.00     0.027 C 
ATOM     14  O   UNL d   1     -40.619  15.922  21.754  0.00  0.00    -0.286 OA
ENDROOT
BRANCH   1  15
ATOM     15  C   UNL d   1     -39.112  14.404  17.686  0.00  0.00     0.007 A 
ATOM     16  C   UNL d   1     -38.829  13.632  17.648  0.00  0.00     0.026 A 
ATOM     17  C   UNL d   1     -38.439  13.372  16.971  0.00  0.00     0.116 A 
ATOM     18  C   UNL d   1     -38.330  13.889  16.327  0.00  0.00     0.116 A 
ATOM     19  C   UNL d   1     -38.618  14.662  16.377  0.00  0.00     0.026 A 
ATOM     20  C   UNL d   1     -39.009  14.922  17.053  0.00  0.00     0.002 A 
BRANCH  17  21
ATOM     21  O   UNL d   1     -38.153  12.596  16.930  0.00  0.00    -0.326 OA
ATOM     22  C   UNL d   1     -38.319  12.068  17.542  0.00  0.00     0.181 C 
ENDBRANCH  17  21
BRANCH  18  23
ATOM     23  O   UNL d   1     -37.940  13.628  15.651  0.00  0.00    -0.326 OA
ATOM     24  C   UNL d   1     -38.028  14.037  14.938  0.00  0.00     0.181 C 
ENDBRANCH  18  23
ENDBRANCH   1  15
TORSDOF 3
ENDMDL
