MODEL 1
REMARK VINA RESULT:      48.2      0.000      0.000
REMARK  6 active torsions:
REMARK  status: ('A' for Active; 'I' for Inactive)
REMARK       I    between atoms: C_6  and  N_1 
REMARK    1  A    between atoms: C_7  and  C_3 
REMARK    2  A    between atoms: C_8  and  C_4 
REMARK    3  A    between atoms: C_11  and  C_6 
REMARK    4  A    between atoms: C_9  and  C_17 
REMARK    5  A    between atoms: C_17  and  C_11 
REMARK    6  A    between atoms: O_26  and  C_19 
ROOT
ATOM      1  N   UNL d   1      13.709  13.302  -3.420  0.00  0.00    -0.195 N 
ATOM      2  N   UNL d   1      13.728  13.928  -3.947  0.00  0.00    -0.163 NA
ATOM      3  C   UNL d   1      14.166  14.529  -3.645  0.00  0.00     0.103 A 
ATOM      4  C   UNL d   1      14.147  13.520  -2.772  0.00  0.00     0.088 A 
ATOM      5  C   UNL d   1      14.430  14.259  -2.894  0.00  0.00     0.040 A 
ATOM      6  C   UNL d   1      13.310  12.583  -3.541  0.00  0.00     0.281 C 
ATOM      7  O   UNL d   1      13.349  11.992  -2.931  0.00  0.00    -0.265 OA
ENDROOT
BRANCH   3   8
ATOM      8  C   UNL d   1      14.268  15.212  -4.065  0.00  0.00     0.019 A 
ATOM      9  C   UNL d   1      13.978  15.248  -4.848  0.00  0.00     0.004 A 
ATOM     10  C   UNL d   1      14.079  15.954  -5.294  0.00  0.00     0.024 A 
ATOM     11  C   UNL d   1      14.460  16.607  -4.964  0.00  0.00     0.094 A 
ATOM     12  C   UNL d   1      14.750  16.571  -4.181  0.00  0.00     0.024 A 
ATOM     13  C   UNL d   1      14.648  15.864  -3.736  0.00  0.00     0.004 A 
BRANCH  11  14
ATOM     14  O   UNL d   1      14.544  17.286  -5.426  0.00  0.00    -0.328 OA
ATOM     15  C   UNL d   1      13.888  17.645  -5.801  0.00  0.00     0.181 C 
ENDBRANCH  11  14
ENDBRANCH   3   8
BRANCH   4  16
ATOM     16  C   UNL d   1      14.303  13.073  -2.069  0.00  0.00     0.018 A 
ATOM     17  C   UNL d   1      14.517  13.464  -1.368  0.00  0.00     0.002 A 
ATOM     18  C   UNL d   1      14.668  13.030  -0.684  0.00  0.00     0.007 A 
ATOM     19  C   UNL d   1      14.608  12.213  -0.698  0.00  0.00     0.035 A 
ATOM     20  C   UNL d   1      14.395  11.822  -1.400  0.00  0.00     0.007 A 
ATOM     21 BR   UNL d   1      14.760  11.779  -0.015  0.00  0.00    -0.049 Br
ATOM     22  C   UNL d   1      14.240  12.247  -2.091  0.00  0.00     0.002 A 
ENDBRANCH   4  16
BRANCH   6  23
ATOM     23  C   UNL d   1      12.882  12.420  -4.217  0.00  0.00     0.069 C 
BRANCH  23  24
ATOM     24  C   UNL d   1      13.058  11.779  -4.689  0.00  0.00     0.075 C 
BRANCH  24  25
ATOM     25  C   UNL d   1      13.304  11.872  -5.462  0.00  0.00     0.211 C 
ATOM     26  O   UNL d   1      12.769  12.049  -6.064  0.00  0.00    -0.644 OA
ATOM     27  O   UNL d   1      14.094  11.791  -5.665  0.00  0.00    -0.644 OA
ENDBRANCH  24  25
ENDBRANCH  23  24
ENDBRANCH   6  23
TORSDOF 6
ENDMDL
