MODEL 1
REMARK VINA RESULT:      27.9      0.000      0.000
REMARK  3 active torsions:
REMARK  status: ('A' for Active; 'I' for Inactive)
REMARK    1  A    between atoms: C_4  and  C_1 
REMARK    2  A    between atoms: N_7  and  C_4 
REMARK    3  A    between atoms: C_9  and  N_7 
ROOT
ATOM      1  C   UNL d   1     -55.581 -99.233 -44.467  0.00  0.00     0.171 C 
ATOM      2  S   UNL d   1     -55.092 -98.755 -43.986  0.00  0.00    -0.054 SA
ENDROOT
BRANCH   1   3
ATOM      3  C   UNL d   1     -56.395 -99.122 -44.467  0.00  0.00     0.191 A 
ATOM      4  N   UNL d   1     -56.877 -99.052 -45.139  0.00  0.00    -0.223 NA
ATOM      5  C   UNL d   1     -57.656 -98.947 -44.881  0.00  0.00     0.101 A 
ATOM      6  C   UNL d   1     -58.363 -98.848 -45.300  0.00  0.00     0.021 A 
ATOM      7  C   UNL d   1     -57.656 -98.953 -44.054  0.00  0.00     0.101 A 
ATOM      8  C   UNL d   1     -59.068 -98.755 -44.880  0.00  0.00     0.002 A 
ATOM      9  C   UNL d   1     -59.068 -98.761 -44.053  0.00  0.00     0.002 A 
ATOM     10  C   UNL d   1     -58.363 -98.860 -43.643  0.00  0.00     0.021 A 
ATOM     11  N   UNL d   1     -56.877 -99.061 -43.806  0.00  0.00    -0.223 NA
ENDBRANCH   1   3
BRANCH   1  12
ATOM     12  N   UNL d   1     -55.236 -99.814 -44.941  0.00  0.00    -0.232 NA
BRANCH  12  13
ATOM     13  C   UNL d   1     -55.105-100.574 -44.645  0.00  0.00     0.082 A 
ATOM     14  C   UNL d   1     -54.850-100.672 -43.863  0.00  0.00     0.019 A 
ATOM     15  C   UNL d   1     -54.719-101.430 -43.569  0.00  0.00     0.002 A 
ATOM     16  C   UNL d   1     -54.842-102.096 -44.053  0.00  0.00     0.000 A 
ATOM     17  C   UNL d   1     -55.098-101.987 -44.834  0.00  0.00     0.002 A 
ATOM     18  C   UNL d   1     -54.712-102.852 -43.759  0.00  0.00     0.000 C 
ATOM     19  C   UNL d   1     -55.227-101.228 -45.125  0.00  0.00     0.019 A 
ENDBRANCH  12  13
ENDBRANCH   1  12
TORSDOF 3
ENDMDL
