MODEL 1
REMARK VINA RESULT:      -6.8      0.000      0.000
REMARK  2 active torsions:
REMARK  status: ('A' for Active; 'I' for Inactive)
REMARK    1  A    between atoms: C_12  and  N_1 
REMARK    2  A    between atoms: N_6  and  C_13 
ROOT
ATOM      1  N   UNL d   1     -41.543-122.434 -52.458  0.00  0.00    -0.242 N 
ATOM      2  C   UNL d   1     -41.304-121.886 -51.805  0.00  0.00     0.263 A 
ATOM      3  C   UNL d   1     -41.641-123.158 -52.169  0.00  0.00     0.263 A 
ATOM      4  C   UNL d   1     -41.491-123.189 -51.337  0.00  0.00     0.039 A 
ATOM      5  C   UNL d   1     -41.294-122.492 -51.077  0.00  0.00     0.039 A 
ATOM      6  C   UNL d   1     -41.123-122.351 -50.325  0.00  0.00     0.049 A 
ATOM      7  C   UNL d   1     -41.518-123.803 -50.792  0.00  0.00     0.049 A 
ATOM      8  C   UNL d   1     -41.144-122.937 -49.782  0.00  0.00    -0.026 A 
ATOM      9  C   UNL d   1     -41.347-123.677 -50.028  0.00  0.00    -0.026 A 
ATOM     10  C   UNL d   1     -41.352-122.903 -50.921  0.00  0.00     0.018 A 
ATOM     11  O   UNL d   1     -41.863-123.817 -52.605  0.00  0.00    -0.267 OA
ATOM     12  O   UNL d   1     -41.152-121.185 -51.787  0.00  0.00    -0.267 OA
ENDROOT
BRANCH   1  13
ATOM     13  C   UNL d   1     -41.657-122.265 -53.254  0.00  0.00     0.070 A 
ATOM     14  C   UNL d   1     -41.145-122.580 -53.824  0.00  0.00     0.019 A 
ATOM     15  C   UNL d   1     -41.254-122.414 -54.630  0.00  0.00     0.018 A 
ATOM     16  C   UNL d   1     -41.890-121.922 -54.871  0.00  0.00     0.096 A 
ATOM     17  C   UNL d   1     -42.395-121.613 -54.296  0.00  0.00     0.018 A 
ATOM     18  C   UNL d   1     -42.278-121.785 -53.488  0.00  0.00     0.019 A 
BRANCH  16  19
ATOM     19  N   UNL d   1     -42.008-121.750 -55.663  0.00  0.00     0.037 NA
ATOM     20  O   UNL d   1     -42.452-121.568 -55.001  0.00  0.00    -0.084 OA
ATOM     21  O   UNL d   1     -42.267-121.495 -56.454  0.00  0.00    -0.084 OA
ENDBRANCH  16  19
ENDBRANCH   1  13
TORSDOF 2
ENDMDL
MODEL 2
REMARK VINA RESULT:      -6.0      2.007      3.125
REMARK  2 active torsions:
REMARK  status: ('A' for Active; 'I' for Inactive)
REMARK    1  A    between atoms: C_12  and  N_1 
REMARK    2  A    between atoms: N_6  and  C_13 
ROOT
ATOM      1  N   UNL d   1     -42.254-123.080 -49.775  0.00  0.00    -0.242 N 
ATOM      2  C   UNL d   1     -42.985-123.514 -49.527  0.00  0.00     0.263 A 
ATOM      3  C   UNL d   1     -41.836-122.887 -49.138  0.00  0.00     0.263 A 
ATOM      4  C   UNL d   1     -42.207-123.149 -48.425  0.00  0.00     0.039 A 
ATOM      5  C   UNL d   1     -42.866-123.513 -48.587  0.00  0.00     0.039 A 
ATOM      6  C   UNL d   1     -43.331-123.817 -48.034  0.00  0.00     0.049 A 
ATOM      7  C   UNL d   1     -41.995-123.085 -47.634  0.00  0.00     0.049 A 
ATOM      8  C   UNL d   1     -43.139-123.763 -47.260  0.00  0.00    -0.026 A 
ATOM      9  C   UNL d   1     -42.454-123.387 -47.063  0.00  0.00    -0.026 A 
ATOM     10  C   UNL d   1     -42.625-123.401 -48.232  0.00  0.00     0.018 A 
ATOM     11  O   UNL d   1     -41.123-122.481 -49.144  0.00  0.00    -0.267 OA
ATOM     12  O   UNL d   1     -43.531-123.799 -49.893  0.00  0.00    -0.267 OA
ENDROOT
BRANCH   1  13
ATOM     13  C   UNL d   1     -42.005-122.885 -50.533  0.00  0.00     0.070 A 
ATOM     14  C   UNL d   1     -41.638-123.455 -51.010  0.00  0.00     0.019 A 
ATOM     15  C   UNL d   1     -41.384-123.265 -51.778  0.00  0.00     0.018 A 
ATOM     16  C   UNL d   1     -41.501-122.488 -52.074  0.00  0.00     0.096 A 
ATOM     17  C   UNL d   1     -41.867-121.928 -51.592  0.00  0.00     0.018 A 
ATOM     18  C   UNL d   1     -42.119-122.127 -50.822  0.00  0.00     0.019 A 
BRANCH  16  19
ATOM     19  N   UNL d   1     -41.255-122.289 -52.829  0.00  0.00     0.037 NA
ATOM     20  O   UNL d   1     -41.920-122.685 -52.567  0.00  0.00    -0.084 OA
ATOM     21  O   UNL d   1     -41.129-122.149 -53.680  0.00  0.00    -0.084 OA
ENDBRANCH  16  19
ENDBRANCH   1  13
TORSDOF 2
ENDMDL
MODEL 3
REMARK VINA RESULT:      -5.5      1.294      4.136
REMARK  2 active torsions:
REMARK  status: ('A' for Active; 'I' for Inactive)
REMARK    1  A    between atoms: C_12  and  N_1 
REMARK    2  A    between atoms: N_6  and  C_13 
ROOT
ATOM      1  N   UNL d   1     -41.596-122.600 -52.964  0.00  0.00    -0.242 N 
ATOM      2  C   UNL d   1     -41.408-123.160 -53.624  0.00  0.00     0.263 A 
ATOM      3  C   UNL d   1     -41.908-121.942 -53.259  0.00  0.00     0.263 A 
ATOM      4  C   UNL d   1     -41.967-121.972 -54.102  0.00  0.00     0.039 A 
ATOM      5  C   UNL d   1     -41.697-122.643 -54.364  0.00  0.00     0.039 A 
ATOM      6  C   UNL d   1     -41.681-122.828 -55.126  0.00  0.00     0.049 A 
ATOM      7  C   UNL d   1     -42.248-121.434 -54.657  0.00  0.00     0.049 A 
ATOM      8  C   UNL d   1     -41.951-122.317 -55.678  0.00  0.00    -0.026 A 
ATOM      9  C   UNL d   1     -42.239-121.606 -55.431  0.00  0.00    -0.026 A 
ATOM     10  C   UNL d   1     -41.873-122.269 -54.524  0.00  0.00     0.018 A 
ATOM     11  O   UNL d   1     -42.153-121.294 -52.820  0.00  0.00    -0.267 OA
ATOM     12  O   UNL d   1     -41.124-123.817 -53.641  0.00  0.00    -0.267 OA
ENDROOT
BRANCH   1  13
ATOM     13  C   UNL d   1     -41.483-122.703 -52.156  0.00  0.00     0.070 A 
ATOM     14  C   UNL d   1     -41.616-123.443 -51.809  0.00  0.00     0.019 A 
ATOM     15  C   UNL d   1     -41.503-123.554 -50.993  0.00  0.00     0.018 A 
ATOM     16  C   UNL d   1     -41.252-122.911 -50.516  0.00  0.00     0.096 A 
ATOM     17  C   UNL d   1     -41.123-122.178 -50.872  0.00  0.00     0.018 A 
ATOM     18  C   UNL d   1     -41.238-122.074 -51.692  0.00  0.00     0.019 A 
BRANCH  16  19
ATOM     19  N   UNL d   1     -41.138-123.008 -49.711  0.00  0.00     0.037 NA
ATOM     20  O   UNL d   1     -41.658-123.369 -50.228  0.00  0.00    -0.084 OA
ATOM     21  O   UNL d   1     -41.134-123.220 -48.867  0.00  0.00    -0.084 OA
ENDBRANCH  16  19
ENDBRANCH   1  13
TORSDOF 2
ENDMDL
