MODEL 1
REMARK VINA RESULT:      18.0      0.000      0.000
REMARK  3 active torsions:
REMARK  status: ('A' for Active; 'I' for Inactive)
REMARK    1  A    between atoms: C_12  and  C_4 
REMARK    2  A    between atoms: O_13  and  C_7 
REMARK    3  A    between atoms: O_14  and  C_10 
ROOT
ATOM      1  C   UNL d   1      46.306 -18.264  43.603  0.00  0.00     0.084 A 
ATOM      2  C   UNL d   1      46.224 -18.110  44.409  0.00  0.00     0.201 A 
ATOM      3  C   UNL d   1      46.015 -17.352  44.657  0.00  0.00     0.067 A 
ATOM      4  C   UNL d   1      45.888 -16.750  44.101  0.00  0.00     0.103 A 
ATOM      5  C   UNL d   1      46.178 -17.662  43.047  0.00  0.00     0.107 A 
ATOM      6  O   UNL d   1      45.970 -16.907  43.298  0.00  0.00    -0.307 OA
ATOM      7  C   UNL d   1      46.515 -19.022  43.355  0.00  0.00     0.101 A 
ATOM      8  C   UNL d   1      46.261 -17.823  42.247  0.00  0.00     0.049 A 
ATOM      9  C   UNL d   1      46.596 -19.176  42.549  0.00  0.00     0.049 A 
ATOM     10  C   UNL d   1      46.470 -18.582  42.000  0.00  0.00     0.098 A 
ATOM     11  O   UNL d   1      46.351 -18.708  44.954  0.00  0.00    -0.286 OA
ENDROOT
BRANCH   4  12
ATOM     12  C   UNL d   1      45.680 -15.999  44.355  0.00  0.00     0.023 A 
ATOM     13  C   UNL d   1      44.946 -15.873  44.694  0.00  0.00     0.002 A 
ATOM     14  C   UNL d   1      44.729 -15.120  44.952  0.00  0.00     0.000 A 
ATOM     15  C   UNL d   1      45.263 -14.485  44.867  0.00  0.00     0.000 A 
ATOM     16  C   UNL d   1      45.995 -14.621  44.527  0.00  0.00     0.000 A 
ATOM     17  C   UNL d   1      46.211 -15.374  44.269  0.00  0.00     0.002 A 
ENDBRANCH   4  12
BRANCH   7  18
ATOM     18  O   UNL d   1      46.641 -19.617  43.904  0.00  0.00    -0.328 OA
ATOM     19  C   UNL d   1      46.243 -20.330  43.830  0.00  0.00     0.181 C 
ENDBRANCH   7  18
BRANCH  10  20
ATOM     20  O   UNL d   1      46.552 -18.736  41.192  0.00  0.00    -0.328 OA
ATOM     21  C   UNL d   1      46.646 -19.515  40.937  0.00  0.00     0.181 C 
ENDBRANCH  10  20
TORSDOF 3
ENDMDL
