MODEL 1
REMARK VINA RESULT:      -8.7      0.000      0.000
REMARK  4 active torsions:
REMARK  status: ('A' for Active; 'I' for Inactive)
REMARK    1  A    between atoms: C_2  and  C_1 
REMARK       I    between atoms: N_3  and  C_1 
REMARK       I    between atoms: N_4  and  C_2 
REMARK    2  A    between atoms: C_8  and  N_3 
REMARK    3  A    between atoms: C_9  and  N_4 
REMARK    4  A    between atoms: C_10  and  C_9 
ROOT
ATOM      1  C   UNL d   1      53.666  33.075  54.334  0.00  0.00     0.337 C 
ATOM      2  N   UNL d   1      53.038  33.592  54.470  0.00  0.00    -0.204 NA
ATOM      3  O   UNL d   1      54.165  32.860  54.955  0.00  0.00    -0.260 OA
ENDROOT
BRANCH   1   4
ATOM      4  C   UNL d   1      53.794  32.774  53.580  0.00  0.00     0.337 C 
ATOM      5  N   UNL d   1      53.720  31.960  53.440  0.00  0.00    -0.201 NA
ATOM      6  O   UNL d   1      53.997  33.280  52.961  0.00  0.00    -0.260 OA
BRANCH   5   7
ATOM      7  C   UNL d   1      53.517  31.454  54.058  0.00  0.00     0.121 C 
BRANCH   7   8
ATOM      8  C   UNL d   1      53.365  30.667  53.916  0.00  0.00     0.101 A 
ATOM      9  N   UNL d   1      53.463  30.118  54.524  0.00  0.00    -0.242 NA
ATOM     10  C   UNL d   1      53.311  29.318  54.386  0.00  0.00     0.099 A 
ATOM     11  C   UNL d   1      53.063  29.070  53.645  0.00  0.00     0.021 A 
ATOM     12  C   UNL d   1      52.965  29.619  53.037  0.00  0.00     0.003 A 
ATOM     13  C   UNL d   1      53.117  30.419  53.175  0.00  0.00     0.021 A 
ENDBRANCH   7   8
ENDBRANCH   5   7
ENDBRANCH   1   4
BRANCH   2  14
ATOM     14  C   UNL d   1      52.540  33.807  53.849  0.00  0.00     0.085 A 
ATOM     15  C   UNL d   1      51.809  33.433  53.758  0.00  0.00     0.019 A 
ATOM     16  C   UNL d   1      51.310  33.647  53.137  0.00  0.00     0.002 A 
ATOM     17  C   UNL d   1      51.542  34.236  52.607  0.00  0.00     0.000 A 
ATOM     18  C   UNL d   1      52.266  34.604  52.700  0.00  0.00     0.002 A 
ATOM     19  C   UNL d   1      51.043  34.450  51.985  0.00  0.00     0.000 C 
ATOM     20  C   UNL d   1      52.764  34.390  53.321  0.00  0.00     0.019 A 
ENDBRANCH   2  14
TORSDOF 4
ENDMDL
MODEL 2
REMARK VINA RESULT:      -8.4      1.735      3.922
REMARK  4 active torsions:
REMARK  status: ('A' for Active; 'I' for Inactive)
REMARK    1  A    between atoms: C_2  and  C_1 
REMARK       I    between atoms: N_3  and  C_1 
REMARK       I    between atoms: N_4  and  C_2 
REMARK    2  A    between atoms: C_8  and  N_3 
REMARK    3  A    between atoms: C_9  and  N_4 
REMARK    4  A    between atoms: C_10  and  C_9 
ROOT
ATOM      1  C   UNL d   1      52.881  32.316  53.022  0.00  0.00     0.337 C 
ATOM      2  N   UNL d   1      53.287  32.016  53.674  0.00  0.00    -0.204 NA
ATOM      3  O   UNL d   1      52.361  31.833  52.602  0.00  0.00    -0.260 OA
ENDROOT
BRANCH   1   4
ATOM      4  C   UNL d   1      52.996  33.096  52.790  0.00  0.00     0.337 C 
ATOM      5  N   UNL d   1      52.350  33.610  52.726  0.00  0.00    -0.201 NA
ATOM      6  O   UNL d   1      53.756  33.369  52.620  0.00  0.00    -0.260 OA
BRANCH   5   7
ATOM      7  C   UNL d   1      51.590  33.337  52.896  0.00  0.00     0.121 C 
BRANCH   7   8
ATOM      8  C   UNL d   1      50.944  33.819  52.787  0.00  0.00     0.101 A 
ATOM      9  N   UNL d   1      50.622  33.902  52.031  0.00  0.00    -0.242 NA
ATOM     10  C   UNL d   1      49.966  34.390  51.914  0.00  0.00     0.099 A 
ATOM     11  C   UNL d   1      49.634  34.791  52.547  0.00  0.00     0.021 A 
ATOM     12  C   UNL d   1      49.957  34.708  53.303  0.00  0.00     0.003 A 
ATOM     13  C   UNL d   1      50.612  34.221  53.421  0.00  0.00     0.021 A 
ENDBRANCH   7   8
ENDBRANCH   5   7
ENDBRANCH   1   4
BRANCH   2  14
ATOM     14  C   UNL d   1      53.808  32.499  54.094  0.00  0.00     0.085 A 
ATOM     15  C   UNL d   1      53.579  32.822  54.819  0.00  0.00     0.019 A 
ATOM     16  C   UNL d   1      54.100  33.305  55.238  0.00  0.00     0.002 A 
ATOM     17  C   UNL d   1      54.849  33.466  54.932  0.00  0.00     0.000 A 
ATOM     18  C   UNL d   1      55.072  33.146  54.214  0.00  0.00     0.002 A 
ATOM     19  C   UNL d   1      55.370  33.950  55.351  0.00  0.00     0.000 C 
ATOM     20  C   UNL d   1      54.551  32.663  53.795  0.00  0.00     0.019 A 
ENDBRANCH   2  14
TORSDOF 4
ENDMDL
MODEL 3
REMARK VINA RESULT:      -7.9      1.455      4.134
REMARK  4 active torsions:
REMARK  status: ('A' for Active; 'I' for Inactive)
REMARK    1  A    between atoms: C_2  and  C_1 
REMARK       I    between atoms: N_3  and  C_1 
REMARK       I    between atoms: N_4  and  C_2 
REMARK    2  A    between atoms: C_8  and  N_3 
REMARK    3  A    between atoms: C_9  and  N_4 
REMARK    4  A    between atoms: C_10  and  C_9 
ROOT
ATOM      1  C   UNL d   1      52.517  32.096  52.569  0.00  0.00     0.337 C 
ATOM      2  N   UNL d   1      52.964  31.430  52.375  0.00  0.00    -0.204 NA
ATOM      3  O   UNL d   1      52.425  32.704  52.019  0.00  0.00    -0.260 OA
ENDROOT
BRANCH   1   4
ATOM      4  C   UNL d   1      52.164  32.152  53.309  0.00  0.00     0.337 C 
ATOM      5  N   UNL d   1      52.329  32.800  53.799  0.00  0.00    -0.201 NA
ATOM      6  O   UNL d   1      51.645  31.565  53.565  0.00  0.00    -0.260 OA
BRANCH   5   7
ATOM      7  C   UNL d   1      52.848  33.387  53.543  0.00  0.00     0.121 C 
BRANCH   7   8
ATOM      8  C   UNL d   1      52.981  34.048  53.998  0.00  0.00     0.101 A 
ATOM      9  N   UNL d   1      53.365  33.970  54.725  0.00  0.00    -0.242 NA
ATOM     10  C   UNL d   1      53.504  34.637  55.192  0.00  0.00     0.099 A 
ATOM     11  C   UNL d   1      53.260  35.376  54.934  0.00  0.00     0.021 A 
ATOM     12  C   UNL d   1      52.876  35.454  54.207  0.00  0.00     0.003 A 
ATOM     13  C   UNL d   1      52.738  34.787  53.740  0.00  0.00     0.021 A 
ENDBRANCH   7   8
ENDBRANCH   5   7
ENDBRANCH   1   4
BRANCH   2  14
ATOM     14  C   UNL d   1      53.055  30.821  52.925  0.00  0.00     0.085 A 
ATOM     15  C   UNL d   1      52.502  30.209  52.960  0.00  0.00     0.019 A 
ATOM     16  C   UNL d   1      52.594  29.601  53.509  0.00  0.00     0.002 A 
ATOM     17  C   UNL d   1      53.239  29.604  54.024  0.00  0.00     0.000 A 
ATOM     18  C   UNL d   1      53.785  30.212  53.987  0.00  0.00     0.002 A 
ATOM     19  C   UNL d   1      53.330  28.996  54.573  0.00  0.00     0.000 C 
ATOM     20  C   UNL d   1      53.693  30.820  53.437  0.00  0.00     0.019 A 
ENDBRANCH   2  14
TORSDOF 4
ENDMDL
MODEL 4
REMARK VINA RESULT:      -7.9      1.132      3.955
REMARK  4 active torsions:
REMARK  status: ('A' for Active; 'I' for Inactive)
REMARK    1  A    between atoms: C_2  and  C_1 
REMARK       I    between atoms: N_3  and  C_1 
REMARK       I    between atoms: N_4  and  C_2 
REMARK    2  A    between atoms: C_8  and  N_3 
REMARK    3  A    between atoms: C_9  and  N_4 
REMARK    4  A    between atoms: C_10  and  C_9 
ROOT
ATOM      1  C   UNL d   1      53.510  33.400  53.461  0.00  0.00     0.337 C 
ATOM      2  N   UNL d   1      53.945  32.775  53.143  0.00  0.00    -0.204 NA
ATOM      3  O   UNL d   1      53.742  34.178  53.315  0.00  0.00    -0.260 OA
ENDROOT
BRANCH   1   4
ATOM      4  C   UNL d   1      52.847  33.246  53.921  0.00  0.00     0.337 C 
ATOM      5  N   UNL d   1      52.100  33.509  53.676  0.00  0.00    -0.201 NA
ATOM      6  O   UNL d   1      52.923  32.830  54.629  0.00  0.00    -0.260 OA
BRANCH   5   7
ATOM      7  C   UNL d   1      52.025  33.926  52.968  0.00  0.00     0.121 C 
BRANCH   7   8
ATOM      8  C   UNL d   1      51.290  34.136  52.689  0.00  0.00     0.101 A 
ATOM      9  N   UNL d   1      51.133  34.090  51.879  0.00  0.00    -0.242 NA
ATOM     10  C   UNL d   1      50.390  34.302  51.590  0.00  0.00     0.099 A 
ATOM     11  C   UNL d   1      49.807  34.559  52.107  0.00  0.00     0.021 A 
ATOM     12  C   UNL d   1      49.963  34.605  52.916  0.00  0.00     0.003 A 
ATOM     13  C   UNL d   1      50.707  34.393  53.205  0.00  0.00     0.021 A 
ENDBRANCH   7   8
ENDBRANCH   5   7
ENDBRANCH   1   4
BRANCH   2  14
ATOM     14  C   UNL d   1      53.713  31.996  53.288  0.00  0.00     0.085 A 
ATOM     15  C   UNL d   1      53.232  31.600  52.746  0.00  0.00     0.019 A 
ATOM     16  C   UNL d   1      53.000  30.822  52.891  0.00  0.00     0.002 A 
ATOM     17  C   UNL d   1      53.250  30.439  53.578  0.00  0.00     0.000 A 
ATOM     18  C   UNL d   1      53.726  30.834  54.113  0.00  0.00     0.002 A 
ATOM     19  C   UNL d   1      53.018  29.661  53.724  0.00  0.00     0.000 C 
ATOM     20  C   UNL d   1      53.958  31.612  53.968  0.00  0.00     0.019 A 
ENDBRANCH   2  14
TORSDOF 4
ENDMDL
