MODEL 1
REMARK VINA RESULT:      -8.5      0.000      0.000
REMARK  3 active torsions:
REMARK  status: ('A' for Active; 'I' for Inactive)
REMARK    1  A    between atoms: S_3  and  N_1 
REMARK    2  A    between atoms: C_5  and  C_4 
REMARK    3  A    between atoms: C_11  and  C_6 
ROOT
ATOM      1  N   UNL d   1      53.394  32.471  53.587  0.00  0.00    -0.155 N 
ATOM      2  N   UNL d   1      53.043  33.176  53.379  0.00  0.00    -0.153 NA
ATOM      3  C   UNL d   1      52.878  31.869  53.418  0.00  0.00     0.098 A 
ATOM      4  C   UNL d   1      52.303  33.004  53.080  0.00  0.00     0.126 A 
ATOM      5  C   UNL d   1      52.193  32.199  53.101  0.00  0.00     0.043 A 
ENDROOT
BRANCH   3   6
ATOM      6  C   UNL d   1      53.010  31.064  53.541  0.00  0.00     0.047 A 
ATOM      7  C   UNL d   1      53.108  30.559  52.896  0.00  0.00     0.140 A 
ATOM      8  N   UNL d   1      53.240  29.752  53.021  0.00  0.00    -0.234 NA
ATOM      9 CL   UNL d   1      53.073  30.858  52.129  0.00  0.00    -0.061 Cl
ATOM     10  C   UNL d   1      53.275  29.452  53.789  0.00  0.00     0.082 A 
ATOM     11  C   UNL d   1      53.178  29.958  54.434  0.00  0.00     0.018 A 
ATOM     12  C   UNL d   1      53.408  28.647  53.912  0.00  0.00     0.019 A 
ATOM     13  C   UNL d   1      53.045  30.763  54.310  0.00  0.00     0.005 A 
ATOM     14  C   UNL d   1      53.213  29.658  55.202  0.00  0.00     0.002 A 
ATOM     15  C   UNL d   1      53.342  28.876  55.307  0.00  0.00     0.000 A 
ATOM     16  C   UNL d   1      53.439  28.370  54.661  0.00  0.00     0.002 A 
ATOM     17  C   UNL d   1      53.377  28.576  56.074  0.00  0.00     0.000 C 
ENDBRANCH   3   6
BRANCH   1  18
ATOM     18  S   UNL d   1      54.077  32.838  53.845  0.00  0.00     0.266 S 
ATOM     19  O   UNL d   1      54.695  32.996  53.334  0.00  0.00    -0.203 OA
ATOM     20  O   UNL d   1      53.956  32.974  54.651  0.00  0.00    -0.203 OA
ATOM     21  C   UNL d   1      54.663  33.207  54.294  0.00  0.00     0.165 C 
ENDBRANCH   1  18
BRANCH   4  22
ATOM     22  C   UNL d   1      51.763  33.548  52.806  0.00  0.00     0.119 A 
ATOM     23  O   UNL d   1      51.787  33.964  52.109  0.00  0.00    -0.304 OA
ATOM     24  C   UNL d   1      51.133  34.448  52.058  0.00  0.00     0.123 A 
ATOM     25  C   UNL d   1      50.685  34.341  52.730  0.00  0.00     0.029 A 
ATOM     26  C   UNL d   1      51.060  33.786  53.205  0.00  0.00     0.028 A 
ENDBRANCH   4  22
TORSDOF 3
ENDMDL
MODEL 2
REMARK VINA RESULT:      -7.4      1.927      5.039
REMARK  3 active torsions:
REMARK  status: ('A' for Active; 'I' for Inactive)
REMARK    1  A    between atoms: S_3  and  N_1 
REMARK    2  A    between atoms: C_5  and  C_4 
REMARK    3  A    between atoms: C_11  and  C_6 
ROOT
ATOM      1  N   UNL d   1      52.132  34.137  53.439  0.00  0.00    -0.155 N 
ATOM      2  N   UNL d   1      52.682  33.559  53.605  0.00  0.00    -0.153 NA
ATOM      3  C   UNL d   1      51.509  33.793  53.051  0.00  0.00     0.098 A 
ATOM      4  C   UNL d   1      52.392  32.853  53.315  0.00  0.00     0.126 A 
ATOM      5  C   UNL d   1      51.669  32.989  52.972  0.00  0.00     0.043 A 
ENDROOT
BRANCH   3   6
ATOM      6  C   UNL d   1      50.831  34.177  52.781  0.00  0.00     0.047 A 
ATOM      7  C   UNL d   1      50.674  34.216  51.971  0.00  0.00     0.140 A 
ATOM      8  N   UNL d   1      49.994  34.602  51.702  0.00  0.00    -0.234 NA
ATOM      9 CL   UNL d   1      51.195  33.871  51.433  0.00  0.00    -0.061 Cl
ATOM     10  C   UNL d   1      49.472  34.947  52.240  0.00  0.00     0.082 A 
ATOM     11  C   UNL d   1      49.630  34.908  53.050  0.00  0.00     0.018 A 
ATOM     12  C   UNL d   1      48.795  35.331  51.970  0.00  0.00     0.019 A 
ATOM     13  C   UNL d   1      50.308  34.524  53.320  0.00  0.00     0.005 A 
ATOM     14  C   UNL d   1      49.109  35.253  53.588  0.00  0.00     0.002 A 
ATOM     15  C   UNL d   1      48.456  35.622  53.312  0.00  0.00     0.000 A 
ATOM     16  C   UNL d   1      48.298  35.661  52.502  0.00  0.00     0.002 A 
ATOM     17  C   UNL d   1      47.934  35.968  53.850  0.00  0.00     0.000 C 
ENDBRANCH   3   6
BRANCH   1  18
ATOM     18  S   UNL d   1      52.582  34.724  53.787  0.00  0.00     0.266 S 
ATOM     19  O   UNL d   1      52.594  34.827  54.598  0.00  0.00    -0.203 OA
ATOM     20  O   UNL d   1      52.955  35.110  53.160  0.00  0.00    -0.203 OA
ATOM     21  C   UNL d   1      53.089  35.358  53.935  0.00  0.00     0.165 C 
ENDBRANCH   1  18
BRANCH   4  22
ATOM     22  C   UNL d   1      52.765  32.131  53.362  0.00  0.00     0.119 A 
ATOM     23  O   UNL d   1      53.420  31.938  53.801  0.00  0.00    -0.304 OA
ATOM     24  C   UNL d   1      53.606  31.153  53.683  0.00  0.00     0.123 A 
ATOM     25  C   UNL d   1      53.064  30.840  53.162  0.00  0.00     0.029 A 
ATOM     26  C   UNL d   1      52.535  31.432  52.952  0.00  0.00     0.028 A 
ENDBRANCH   4  22
TORSDOF 3
ENDMDL
MODEL 3
REMARK VINA RESULT:      -7.0      1.869      2.656
REMARK  3 active torsions:
REMARK  status: ('A' for Active; 'I' for Inactive)
REMARK    1  A    between atoms: S_3  and  N_1 
REMARK    2  A    between atoms: C_5  and  C_4 
REMARK    3  A    between atoms: C_11  and  C_6 
ROOT
ATOM      1  N   UNL d   1      52.342  33.758  53.127  0.00  0.00    -0.155 N 
ATOM      2  N   UNL d   1      52.273  34.532  53.373  0.00  0.00    -0.153 NA
ATOM      3  C   UNL d   1      52.947  33.411  53.539  0.00  0.00     0.098 A 
ATOM      4  C   UNL d   1      52.843  34.659  53.944  0.00  0.00     0.126 A 
ATOM      5  C   UNL d   1      53.264  33.973  54.052  0.00  0.00     0.043 A 
ENDROOT
BRANCH   3   6
ATOM      6  C   UNL d   1      53.205  32.632  53.463  0.00  0.00     0.047 A 
ATOM      7  C   UNL d   1      54.007  32.472  53.346  0.00  0.00     0.140 A 
ATOM      8  N   UNL d   1      54.265  31.690  53.270  0.00  0.00    -0.234 NA
ATOM      9 CL   UNL d   1      54.549  33.092  53.307  0.00  0.00    -0.061 Cl
ATOM     10  C   UNL d   1      53.722  31.069  53.309  0.00  0.00     0.082 A 
ATOM     11  C   UNL d   1      52.920  31.229  53.426  0.00  0.00     0.018 A 
ATOM     12  C   UNL d   1      53.980  30.290  53.232  0.00  0.00     0.019 A 
ATOM     13  C   UNL d   1      52.663  32.009  53.502  0.00  0.00     0.005 A 
ATOM     14  C   UNL d   1      52.378  30.609  53.465  0.00  0.00     0.002 A 
ATOM     15  C   UNL d   1      52.642  29.858  53.389  0.00  0.00     0.000 A 
ATOM     16  C   UNL d   1      53.444  29.698  53.273  0.00  0.00     0.002 A 
ATOM     17  C   UNL d   1      52.100  29.238  53.429  0.00  0.00     0.000 C 
ENDBRANCH   3   6
BRANCH   1  18
ATOM     18  S   UNL d   1      51.726  33.829  52.594  0.00  0.00     0.266 S 
ATOM     19  O   UNL d   1      50.947  33.775  52.835  0.00  0.00    -0.203 OA
ATOM     20  O   UNL d   1      52.088  33.952  51.862  0.00  0.00    -0.203 OA
ATOM     21  C   UNL d   1      51.265  33.926  51.916  0.00  0.00     0.165 C 
ENDBRANCH   1  18
BRANCH   4  22
ATOM     22  C   UNL d   1      52.971  35.359  54.340  0.00  0.00     0.119 A 
ATOM     23  O   UNL d   1      53.345  36.025  54.064  0.00  0.00    -0.304 OA
ATOM     24  C   UNL d   1      53.349  36.596  54.646  0.00  0.00     0.123 A 
ATOM     25  C   UNL d   1      52.973  36.293  55.301  0.00  0.00     0.029 A 
ATOM     26  C   UNL d   1      52.732  35.527  55.130  0.00  0.00     0.028 A 
ENDBRANCH   4  22
TORSDOF 3
ENDMDL
MODEL 4
REMARK VINA RESULT:      -6.8      1.157      4.282
REMARK  3 active torsions:
REMARK  status: ('A' for Active; 'I' for Inactive)
REMARK    1  A    between atoms: S_3  and  N_1 
REMARK    2  A    between atoms: C_5  and  C_4 
REMARK    3  A    between atoms: C_11  and  C_6 
ROOT
ATOM      1  N   UNL d   1      53.438  32.295  54.211  0.00  0.00    -0.155 N 
ATOM      2  N   UNL d   1      53.696  31.582  54.510  0.00  0.00    -0.153 NA
ATOM      3  C   UNL d   1      52.843  32.150  53.680  0.00  0.00     0.098 A 
ATOM      4  C   UNL d   1      53.253  30.993  54.157  0.00  0.00     0.126 A 
ATOM      5  C   UNL d   1      52.725  31.335  53.644  0.00  0.00     0.043 A 
ENDROOT
BRANCH   3   6
ATOM      6  C   UNL d   1      52.426  32.715  53.249  0.00  0.00     0.047 A 
ATOM      7  C   UNL d   1      52.701  32.955  52.508  0.00  0.00     0.140 A 
ATOM      8  N   UNL d   1      52.281  33.522  52.077  0.00  0.00    -0.234 NA
ATOM      9 CL   UNL d   1      53.392  32.629  52.200  0.00  0.00    -0.061 Cl
ATOM     10  C   UNL d   1      51.589  33.849  52.385  0.00  0.00     0.082 A 
ATOM     11  C   UNL d   1      51.314  33.609  53.126  0.00  0.00     0.018 A 
ATOM     12  C   UNL d   1      51.172  34.415  51.954  0.00  0.00     0.019 A 
ATOM     13  C   UNL d   1      51.732  33.043  53.557  0.00  0.00     0.005 A 
ATOM     14  C   UNL d   1      50.622  33.935  53.434  0.00  0.00     0.002 A 
ATOM     15  C   UNL d   1      50.228  34.483  53.005  0.00  0.00     0.000 A 
ATOM     16  C   UNL d   1      50.503  34.723  52.264  0.00  0.00     0.002 A 
ATOM     17  C   UNL d   1      49.535  34.809  53.314  0.00  0.00     0.000 C 
ENDBRANCH   3   6
BRANCH   1  18
ATOM     18  S   UNL d   1      53.970  32.723  54.660  0.00  0.00     0.266 S 
ATOM     19  O   UNL d   1      54.751  32.807  54.430  0.00  0.00    -0.203 OA
ATOM     20  O   UNL d   1      53.536  32.995  55.307  0.00  0.00    -0.203 OA
ATOM     21  C   UNL d   1      54.336  33.183  55.239  0.00  0.00     0.165 C 
ENDBRANCH   1  18
BRANCH   4  22
ATOM     22  C   UNL d   1      53.328  30.194  54.296  0.00  0.00     0.119 A 
ATOM     23  O   UNL d   1      53.291  29.809  55.010  0.00  0.00    -0.304 OA
ATOM     24  C   UNL d   1      53.395  29.009  54.893  0.00  0.00     0.123 A 
ATOM     25  C   UNL d   1      53.500  28.881  54.095  0.00  0.00     0.029 A 
ATOM     26  C   UNL d   1      53.462  29.605  53.709  0.00  0.00     0.028 A 
ENDBRANCH   4  22
TORSDOF 3
ENDMDL
MODEL 5
REMARK VINA RESULT:      -6.5      2.069      4.723
REMARK  3 active torsions:
REMARK  status: ('A' for Active; 'I' for Inactive)
REMARK    1  A    between atoms: S_3  and  N_1 
REMARK    2  A    between atoms: C_5  and  C_4 
REMARK    3  A    between atoms: C_11  and  C_6 
ROOT
ATOM      1  N   UNL d   1      52.789  32.676  53.232  0.00  0.00    -0.155 N 
ATOM      2  N   UNL d   1      53.564  32.572  53.460  0.00  0.00    -0.153 NA
ATOM      3  C   UNL d   1      52.581  33.447  53.374  0.00  0.00     0.098 A 
ATOM      4  C   UNL d   1      53.834  33.288  53.746  0.00  0.00     0.126 A 
ATOM      5  C   UNL d   1      53.234  33.833  53.696  0.00  0.00     0.043 A 
ENDROOT
BRANCH   3   6
ATOM      6  C   UNL d   1      51.846  33.789  53.225  0.00  0.00     0.047 A 
ATOM      7  C   UNL d   1      51.436  34.168  53.833  0.00  0.00     0.140 A 
ATOM      8  N   UNL d   1      50.699  34.511  53.682  0.00  0.00    -0.234 NA
ATOM      9 CL   UNL d   1      51.762  34.205  54.589  0.00  0.00    -0.061 Cl
ATOM     10  C   UNL d   1      50.372  34.475  52.925  0.00  0.00     0.082 A 
ATOM     11  C   UNL d   1      50.782  34.096  52.316  0.00  0.00     0.018 A 
ATOM     12  C   UNL d   1      49.637  34.817  52.775  0.00  0.00     0.019 A 
ATOM     13  C   UNL d   1      51.518  33.753  52.467  0.00  0.00     0.005 A 
ATOM     14  C   UNL d   1      50.457  34.059  51.560  0.00  0.00     0.002 A 
ATOM     15  C   UNL d   1      49.743  34.395  51.429  0.00  0.00     0.000 A 
ATOM     16  C   UNL d   1      49.333  34.775  52.037  0.00  0.00     0.002 A 
ATOM     17  C   UNL d   1      49.417  34.359  50.672  0.00  0.00     0.000 C 
ENDBRANCH   3   6
BRANCH   1  18
ATOM     18  S   UNL d   1      52.711  31.898  52.993  0.00  0.00     0.266 S 
ATOM     19  O   UNL d   1      52.974  31.650  52.259  0.00  0.00    -0.203 OA
ATOM     20  O   UNL d   1      52.344  31.515  53.625  0.00  0.00    -0.203 OA
ATOM     21  C   UNL d   1      52.543  31.092  52.945  0.00  0.00     0.165 C 
ENDBRANCH   1  18
BRANCH   4  22
ATOM     22  C   UNL d   1      54.582  33.433  54.033  0.00  0.00     0.119 A 
ATOM     23  O   UNL d   1      55.279  33.455  53.617  0.00  0.00    -0.304 OA
ATOM     24  C   UNL d   1      55.894  33.620  54.125  0.00  0.00     0.123 A 
ATOM     25  C   UNL d   1      55.589  33.704  54.875  0.00  0.00     0.029 A 
ATOM     26  C   UNL d   1      54.776  33.592  54.838  0.00  0.00     0.028 A 
ENDBRANCH   4  22
TORSDOF 3
ENDMDL
