MODEL 1
REMARK VINA RESULT:       3.7      0.000      0.000
REMARK  5 active torsions:
REMARK  status: ('A' for Active; 'I' for Inactive)
REMARK    1  A    between atoms: S_3  and  C_1 
REMARK    2  A    between atoms: C_7  and  S_3 
REMARK    3  A    between atoms: N_11  and  C_4 
REMARK    4  A    between atoms: C_10  and  C_5 
REMARK    5  A    between atoms: C_24  and  N_11 
ROOT
ATOM      1  C   UNL d   1     -42.072-122.212 -53.198  0.00  0.00     0.042 A 
ATOM      2  C   UNL d   1     -41.475-122.698 -53.505  0.00  0.00     0.006 A 
ATOM      3  C   UNL d   1     -42.460-121.666 -53.664  0.00  0.00     0.006 A 
ATOM      4  C   UNL d   1     -41.661-122.069 -54.781  0.00  0.00     0.094 A 
ATOM      5  C   UNL d   1     -41.269-122.623 -54.307  0.00  0.00     0.024 A 
ATOM      6  C   UNL d   1     -42.256-121.591 -54.459  0.00  0.00     0.024 A 
ATOM      7  O   UNL d   1     -41.439-122.008 -55.587  0.00  0.00    -0.328 OA
ATOM      8  C   UNL d   1     -41.233-121.934 -56.389  0.00  0.00     0.181 C 
ENDROOT
BRANCH   1   9
ATOM      9  C   UNL d   1     -42.285-122.282 -52.395  0.00  0.00     0.186 A 
ATOM     10  N   UNL d   1     -41.758-122.540 -51.815  0.00  0.00    -0.206 NA
ATOM     11  C   UNL d   1     -42.158-122.540 -51.085  0.00  0.00     0.224 A 
ATOM     12  C   UNL d   1     -42.924-122.282 -51.228  0.00  0.00     0.265 A 
ATOM     13  O   UNL d   1     -43.016-122.120 -52.026  0.00  0.00    -0.260 OA
BRANCH  11  14
ATOM     14  S   UNL d   1     -41.949-122.731 -50.320  0.00  0.00     0.231 S 
ATOM     15  O   UNL d   1     -42.287-123.472 -50.701  0.00  0.00    -0.215 OA
ATOM     16  O   UNL d   1     -41.620-122.039 -49.925  0.00  0.00    -0.215 OA
BRANCH  14  17
ATOM     17  C   UNL d   1     -41.736-122.931 -49.535  0.00  0.00     0.090 A 
ATOM     18  C   UNL d   1     -41.338-123.623 -49.382  0.00  0.00     0.012 A 
ATOM     19  C   UNL d   1     -41.133-123.812 -48.611  0.00  0.00     0.007 A 
ATOM     20  C   UNL d   1     -41.331-123.303 -48.003  0.00  0.00     0.035 A 
ATOM     21  C   UNL d   1     -41.735-122.601 -48.148  0.00  0.00     0.007 A 
ATOM     22 BR   UNL d   1     -41.123-123.494 -47.211  0.00  0.00    -0.049 Br
ATOM     23  C   UNL d   1     -41.940-122.411 -48.919  0.00  0.00     0.012 A 
ENDBRANCH  14  17
ENDBRANCH  11  14
BRANCH  12  24
ATOM     24  N   UNL d   1     -43.490-122.210 -50.624  0.00  0.00    -0.373 NA
BRANCH  24  25
ATOM     25  C   UNL d   1     -44.157-122.033 -50.182  0.00  0.00     0.164 C 
ATOM     26  C   UNL d   1     -44.976-121.947 -50.135  0.00  0.00     0.037 C 
ENDBRANCH  24  25
ENDBRANCH  12  24
ENDBRANCH   1   9
TORSDOF 5
ENDMDL
MODEL 2
REMARK VINA RESULT:       5.2      1.253      1.645
REMARK  5 active torsions:
REMARK  status: ('A' for Active; 'I' for Inactive)
REMARK    1  A    between atoms: S_3  and  C_1 
REMARK    2  A    between atoms: C_7  and  S_3 
REMARK    3  A    between atoms: N_11  and  C_4 
REMARK    4  A    between atoms: C_10  and  C_5 
REMARK    5  A    between atoms: C_24  and  N_11 
ROOT
ATOM      1  C   UNL d   1     -42.269-121.958 -53.694  0.00  0.00     0.042 A 
ATOM      2  C   UNL d   1     -43.032-121.816 -53.984  0.00  0.00     0.006 A 
ATOM      3  C   UNL d   1     -41.660-122.186 -54.186  0.00  0.00     0.006 A 
ATOM      4  C   UNL d   1     -42.561-122.142 -55.298  0.00  0.00     0.094 A 
ATOM      5  C   UNL d   1     -43.177-121.910 -54.797  0.00  0.00     0.024 A 
ATOM      6  C   UNL d   1     -41.803-122.279 -54.993  0.00  0.00     0.024 A 
ATOM      7  O   UNL d   1     -42.726-122.231 -56.115  0.00  0.00    -0.328 OA
ATOM      8  C   UNL d   1     -42.871-122.325 -56.928  0.00  0.00     0.181 C 
ENDROOT
BRANCH   1   9
ATOM      9  C   UNL d   1     -42.116-121.865 -52.879  0.00  0.00     0.186 A 
ATOM     10  N   UNL d   1     -42.204-122.480 -52.336  0.00  0.00    -0.206 NA
ATOM     11  C   UNL d   1     -42.005-122.188 -51.583  0.00  0.00     0.224 A 
ATOM     12  C   UNL d   1     -41.798-121.399 -51.674  0.00  0.00     0.265 A 
ATOM     13  O   UNL d   1     -41.862-121.187 -52.463  0.00  0.00    -0.260 OA
BRANCH  11  14
ATOM     14  S   UNL d   1     -41.980-122.511 -50.834  0.00  0.00     0.231 S 
ATOM     15  O   UNL d   1     -41.134-122.450 -51.131  0.00  0.00    -0.215 OA
ATOM     16  O   UNL d   1     -42.779-122.584 -50.519  0.00  0.00    -0.215 OA
BRANCH  14  17
ATOM     17  C   UNL d   1     -41.949-122.843 -50.066  0.00  0.00     0.090 A 
ATOM     18  C   UNL d   1     -41.259-123.171 -49.788  0.00  0.00     0.012 A 
ATOM     19  C   UNL d   1     -41.238-123.494 -49.034  0.00  0.00     0.007 A 
ATOM     20  C   UNL d   1     -41.910-123.484 -48.570  0.00  0.00     0.035 A 
ATOM     21  C   UNL d   1     -42.613-123.154 -48.842  0.00  0.00     0.007 A 
ATOM     22 BR   UNL d   1     -41.891-123.815 -47.796  0.00  0.00    -0.049 Br
ATOM     23  C   UNL d   1     -42.635-122.831 -49.596  0.00  0.00     0.012 A 
ENDBRANCH  14  17
ENDBRANCH  11  14
BRANCH  12  24
ATOM     24  N   UNL d   1     -41.565-120.922 -51.035  0.00  0.00    -0.373 NA
BRANCH  24  25
ATOM     25  C   UNL d   1     -41.315-120.303 -50.560  0.00  0.00     0.164 C 
ATOM     26  C   UNL d   1     -41.123-119.505 -50.475  0.00  0.00     0.037 C 
ENDBRANCH  24  25
ENDBRANCH  12  24
ENDBRANCH   1   9
TORSDOF 5
ENDMDL
