MODEL 1
REMARK VINA RESULT:       3.6      0.000      0.000
REMARK  2 active torsions:
REMARK  status: ('A' for Active; 'I' for Inactive)
REMARK    1  A    between atoms: C_6  and  C_2 
REMARK    2  A    between atoms: C_7  and  C_3 
ROOT
ATOM      1  N   UNL d   1      58.607  -9.482  29.471  0.00  0.00    -0.243 NA
ATOM      2  C   UNL d   1      59.314  -9.450  29.890  0.00  0.00     0.104 A 
ATOM      3  C   UNL d   1      58.877  -9.655  31.291  0.00  0.00     0.033 A 
ATOM      4  S   UNL d   1      58.062  -9.736  31.214  0.00  0.00    -0.085 SA
ATOM      5  C   UNL d   1      59.420  -9.531  30.715  0.00  0.00     0.028 A 
ATOM      6  C   UNL d   1      57.842  -9.599  29.764  0.00  0.00     0.087 A 
ATOM      7  C   UNL d   1      57.598  -9.713  30.546  0.00  0.00     0.047 A 
ATOM      8  C   UNL d   1      57.300  -9.591  29.153  0.00  0.00     0.020 A 
ATOM      9  C   UNL d   1      56.814  -9.818  30.707  0.00  0.00     0.008 A 
ATOM     10  C   UNL d   1      56.240  -9.814  30.103  0.00  0.00     0.001 A 
ATOM     11  C   UNL d   1      56.483  -9.700  29.325  0.00  0.00     0.002 A 
ENDROOT
BRANCH   3  12
ATOM     12  C   UNL d   1      59.169  -9.709  32.060  0.00  0.00     0.034 A 
ATOM     13  C   UNL d   1      58.640  -9.707  32.712  0.00  0.00     0.141 A 
ATOM     14  F   UNL d   1      57.833  -9.652  32.578  0.00  0.00    -0.204 F 
ATOM     15  C   UNL d   1      58.934  -9.760  33.472  0.00  0.00     0.030 A 
ATOM     16  C   UNL d   1      59.730  -9.814  33.599  0.00  0.00     0.002 A 
ATOM     17  C   UNL d   1      60.277  -9.818  32.969  0.00  0.00     0.000 A 
ATOM     18  C   UNL d   1      59.985  -9.764  32.199  0.00  0.00     0.003 A 
ENDBRANCH   3  12
BRANCH   2  19
ATOM     19  C   UNL d   1      59.989  -9.325  29.434  0.00  0.00     0.118 A 
ATOM     20  O   UNL d   1      60.521  -8.696  29.503  0.00  0.00    -0.304 OA
ATOM     21  C   UNL d   1      61.111  -8.803  28.929  0.00  0.00     0.123 A 
ATOM     22  C   UNL d   1      60.948  -9.495  28.504  0.00  0.00     0.029 A 
ATOM     23  C   UNL d   1      60.256  -9.815  28.817  0.00  0.00     0.028 A 
ENDBRANCH   2  19
TORSDOF 2
ENDMDL
MODEL 2
REMARK VINA RESULT:       3.9     10.435     11.218
REMARK  2 active torsions:
REMARK  status: ('A' for Active; 'I' for Inactive)
REMARK    1  A    between atoms: C_6  and  C_2 
REMARK    2  A    between atoms: C_7  and  C_3 
ROOT
ATOM      1  N   UNL d   1      55.993   0.521  34.697  0.00  0.00    -0.243 NA
ATOM      2  C   UNL d   1      55.626   0.408  33.969  0.00  0.00     0.104 A 
ATOM      3  C   UNL d   1      56.772   0.210  33.050  0.00  0.00     0.033 A 
ATOM      4  S   UNL d   1      57.418   0.273  33.554  0.00  0.00    -0.085 SA
ATOM      5  C   UNL d   1      55.993   0.268  33.232  0.00  0.00     0.028 A 
ATOM      6  C   UNL d   1      56.802   0.521  34.869  0.00  0.00     0.087 A 
ATOM      7  C   UNL d   1      57.441   0.410  34.356  0.00  0.00     0.047 A 
ATOM      8  C   UNL d   1      56.923   0.654  35.666  0.00  0.00     0.020 A 
ATOM      9  C   UNL d   1      58.194   0.433  34.646  0.00  0.00     0.008 A 
ATOM     10  C   UNL d   1      58.345   0.567  35.455  0.00  0.00     0.001 A 
ATOM     11  C   UNL d   1      57.709   0.677  35.965  0.00  0.00     0.002 A 
ENDROOT
BRANCH   3  12
ATOM     12  C   UNL d   1      56.949   0.067  32.258  0.00  0.00     0.034 A 
ATOM     13  C   UNL d   1      56.865  -0.706  31.941  0.00  0.00     0.141 A 
ATOM     14  F   UNL d   1      56.605  -1.316  32.425  0.00  0.00    -0.204 F 
ATOM     15  C   UNL d   1      57.042  -0.844  31.156  0.00  0.00     0.030 A 
ATOM     16  C   UNL d   1      57.297  -0.240  30.683  0.00  0.00     0.002 A 
ATOM     17  C   UNL d   1      57.390   0.537  30.974  0.00  0.00     0.000 A 
ATOM     18  C   UNL d   1      57.212   0.681  31.767  0.00  0.00     0.003 A 
ENDBRANCH   3  12
BRANCH   2  19
ATOM     19  C   UNL d   1      54.802   0.440  33.981  0.00  0.00     0.118 A 
ATOM     20  O   UNL d   1      54.309   0.652  33.354  0.00  0.00    -0.304 OA
ATOM     21  C   UNL d   1      53.525   0.602  33.623  0.00  0.00     0.123 A 
ATOM     22  C   UNL d   1      53.531   0.361  34.415  0.00  0.00     0.029 A 
ATOM     23  C   UNL d   1      54.319   0.261  34.634  0.00  0.00     0.028 A 
ENDBRANCH   2  19
TORSDOF 2
ENDMDL
MODEL 3
REMARK VINA RESULT:       3.9      7.973      8.572
REMARK  2 active torsions:
REMARK  status: ('A' for Active; 'I' for Inactive)
REMARK    1  A    between atoms: C_6  and  C_2 
REMARK    2  A    between atoms: C_7  and  C_3 
ROOT
ATOM      1  N   UNL d   1      58.878  -0.321  30.404  0.00  0.00    -0.243 NA
ATOM      2  C   UNL d   1      59.454  -0.651  29.919  0.00  0.00     0.104 A 
ATOM      3  C   UNL d   1      58.928  -2.014  29.664  0.00  0.00     0.033 A 
ATOM      4  S   UNL d   1      58.224  -2.016  30.087  0.00  0.00    -0.085 SA
ATOM      5  C   UNL d   1      59.462  -1.421  29.591  0.00  0.00     0.028 A 
ATOM      6  C   UNL d   1      58.179  -0.667  30.679  0.00  0.00     0.087 A 
ATOM      7  C   UNL d   1      57.886  -1.427  30.537  0.00  0.00     0.047 A 
ATOM      8  C   UNL d   1      57.766  -0.140  31.148  0.00  0.00     0.020 A 
ATOM      9  C   UNL d   1      57.183  -1.651  30.865  0.00  0.00     0.008 A 
ATOM     10  C   UNL d   1      56.742  -1.133  31.347  0.00  0.00     0.001 A 
ATOM     11  C   UNL d   1      57.034  -0.377  31.489  0.00  0.00     0.002 A 
ENDROOT
BRANCH   3  12
ATOM     12  C   UNL d   1      59.106  -2.713  29.264  0.00  0.00     0.034 A 
ATOM     13  C   UNL d   1      58.502  -3.127  28.854  0.00  0.00     0.141 A 
ATOM     14  F   UNL d   1      57.736  -2.832  28.854  0.00  0.00    -0.204 F 
ATOM     15  C   UNL d   1      58.682  -3.819  28.459  0.00  0.00     0.030 A 
ATOM     16  C   UNL d   1      59.437  -4.106  28.461  0.00  0.00     0.002 A 
ATOM     17  C   UNL d   1      60.056  -3.713  28.862  0.00  0.00     0.000 A 
ATOM     18  C   UNL d   1      59.878  -3.013  29.262  0.00  0.00     0.003 A 
ENDBRANCH   3  12
BRANCH   2  19
ATOM     19  C   UNL d   1      60.091  -0.159  29.741  0.00  0.00     0.118 A 
ATOM     20  O   UNL d   1      60.385   0.015  28.990  0.00  0.00    -0.304 OA
ATOM     21  C   UNL d   1      61.027   0.532  29.085  0.00  0.00     0.123 A 
ATOM     22  C   UNL d   1      61.133   0.679  29.893  0.00  0.00     0.029 A 
ATOM     23  C   UNL d   1      60.555   0.252  30.296  0.00  0.00     0.028 A 
ENDBRANCH   2  19
TORSDOF 2
ENDMDL
MODEL 4
REMARK VINA RESULT:       4.5      9.887     10.297
REMARK  2 active torsions:
REMARK  status: ('A' for Active; 'I' for Inactive)
REMARK    1  A    between atoms: C_6  and  C_2 
REMARK    2  A    between atoms: C_7  and  C_3 
ROOT
ATOM      1  N   UNL d   1      59.083   0.463  31.044  0.00  0.00    -0.243 NA
ATOM      2  C   UNL d   1      58.299   0.348  30.825  0.00  0.00     0.104 A 
ATOM      3  C   UNL d   1      57.608   0.220  32.131  0.00  0.00     0.033 A 
ATOM      4  S   UNL d   1      58.225   0.303  32.668  0.00  0.00    -0.085 SA
ATOM      5  C   UNL d   1      57.641   0.240  31.330  0.00  0.00     0.028 A 
ATOM      6  C   UNL d   1      59.404   0.497  31.806  0.00  0.00     0.087 A 
ATOM      7  C   UNL d   1      59.018   0.425  32.534  0.00  0.00     0.047 A 
ATOM      8  C   UNL d   1      60.211   0.619  31.769  0.00  0.00     0.020 A 
ATOM      9  C   UNL d   1      59.445   0.477  33.217  0.00  0.00     0.008 A 
ATOM     10  C   UNL d   1      60.269   0.601  33.208  0.00  0.00     0.001 A 
ATOM     11  C   UNL d   1      60.653   0.672  32.484  0.00  0.00     0.002 A 
ENDROOT
BRANCH   3  12
ATOM     12  C   UNL d   1      56.862   0.102  32.460  0.00  0.00     0.034 A 
ATOM     13  C   UNL d   1      56.435  -0.600  32.289  0.00  0.00     0.141 A 
ATOM     14  F   UNL d   1      56.765  -1.165  31.795  0.00  0.00    -0.204 F 
ATOM     15  C   UNL d   1      55.695  -0.714  32.617  0.00  0.00     0.030 A 
ATOM     16  C   UNL d   1      55.374  -0.155  33.104  0.00  0.00     0.002 A 
ATOM     17  C   UNL d   1      55.778   0.552  33.289  0.00  0.00     0.000 A 
ATOM     18  C   UNL d   1      56.525   0.671  32.960  0.00  0.00     0.003 A 
ENDBRANCH   3  12
BRANCH   2  19
ATOM     19  C   UNL d   1      58.156   0.342  30.013  0.00  0.00     0.118 A 
ATOM     20  O   UNL d   1      57.421   0.272  29.643  0.00  0.00    -0.304 OA
ATOM     21  C   UNL d   1      57.550   0.293  28.823  0.00  0.00     0.123 A 
ATOM     22  C   UNL d   1      58.362   0.375  28.684  0.00  0.00     0.029 A 
ATOM     23  C   UNL d   1      58.734   0.405  29.419  0.00  0.00     0.028 A 
ENDBRANCH   2  19
TORSDOF 2
ENDMDL
MODEL 5
REMARK VINA RESULT:       4.8      1.222      2.838
REMARK  2 active torsions:
REMARK  status: ('A' for Active; 'I' for Inactive)
REMARK    1  A    between atoms: C_6  and  C_2 
REMARK    2  A    between atoms: C_7  and  C_3 
ROOT
ATOM      1  N   UNL d   1      58.656  -9.710  29.855  0.00  0.00    -0.243 NA
ATOM      2  C   UNL d   1      58.123  -9.746  30.480  0.00  0.00     0.104 A 
ATOM      3  C   UNL d   1      59.009  -9.745  31.668  0.00  0.00     0.033 A 
ATOM      4  S   UNL d   1      59.758  -9.708  31.333  0.00  0.00    -0.085 SA
ATOM      5  C   UNL d   1      58.298  -9.761  31.297  0.00  0.00     0.028 A 
ATOM      6  C   UNL d   1      59.482  -9.680  29.886  0.00  0.00     0.087 A 
ATOM      7  C   UNL d   1      59.976  -9.679  30.550  0.00  0.00     0.047 A 
ATOM      8  C   UNL d   1      59.794  -9.648  29.131  0.00  0.00     0.020 A 
ATOM      9  C   UNL d   1      60.777  -9.647  30.450  0.00  0.00     0.008 A 
ATOM     10  C   UNL d   1      61.121  -9.614  29.692  0.00  0.00     0.001 A 
ATOM     11  C   UNL d   1      60.630  -9.615  29.032  0.00  0.00     0.002 A 
ENDROOT
BRANCH   3  12
ATOM     12  C   UNL d   1      58.987  -9.767  32.492  0.00  0.00     0.034 A 
ATOM     13  C   UNL d   1      59.703  -9.777  32.931  0.00  0.00     0.141 A 
ATOM     14  F   UNL d   1      60.421  -9.764  32.534  0.00  0.00    -0.204 F 
ATOM     15  C   UNL d   1      59.678  -9.800  33.747  0.00  0.00     0.030 A 
ATOM     16  C   UNL d   1      58.968  -9.812  34.133  0.00  0.00     0.002 A 
ATOM     17  C   UNL d   1      58.243  -9.803  33.721  0.00  0.00     0.000 A 
ATOM     18  C   UNL d   1      58.263  -9.781  32.896  0.00  0.00     0.003 A 
ENDBRANCH   3  12
BRANCH   2  19
ATOM     19  C   UNL d   1      57.328  -9.769  30.265  0.00  0.00     0.118 A 
ATOM     20  O   UNL d   1      56.679  -9.782  30.776  0.00  0.00    -0.304 OA
ATOM     21  C   UNL d   1      55.993  -9.805  30.309  0.00  0.00     0.123 A 
ATOM     22  C   UNL d   1      56.213  -9.807  29.512  0.00  0.00     0.029 A 
ATOM     23  C   UNL d   1      57.036  -9.785  29.486  0.00  0.00     0.028 A 
ENDBRANCH   2  19
TORSDOF 2
ENDMDL
MODEL 6
REMARK VINA RESULT:       5.8     10.020     10.470
REMARK  2 active torsions:
REMARK  status: ('A' for Active; 'I' for Inactive)
REMARK    1  A    between atoms: C_6  and  C_2 
REMARK    2  A    between atoms: C_7  and  C_3 
ROOT
ATOM      1  N   UNL d   1      57.431   0.479  33.499  0.00  0.00    -0.243 NA
ATOM      2  C   UNL d   1      58.083   0.423  33.000  0.00  0.00     0.104 A 
ATOM      3  C   UNL d   1      57.465   0.170  31.677  0.00  0.00     0.033 A 
ATOM      4  S   UNL d   1      56.663   0.164  31.852  0.00  0.00    -0.085 SA
ATOM      5  C   UNL d   1      58.082   0.282  32.176  0.00  0.00     0.028 A 
ATOM      6  C   UNL d   1      56.630   0.410  33.304  0.00  0.00     0.087 A 
ATOM      7  C   UNL d   1      56.285   0.269  32.566  0.00  0.00     0.047 A 
ATOM      8  C   UNL d   1      56.167   0.503  33.971  0.00  0.00     0.020 A 
ATOM      9  C   UNL d   1      55.482   0.223  32.503  0.00  0.00     0.008 A 
ATOM     10  C   UNL d   1      54.987   0.314  33.167  0.00  0.00     0.001 A 
ATOM     11  C   UNL d   1      55.329   0.455  33.902  0.00  0.00     0.002 A 
ENDROOT
BRANCH   3  12
ATOM     12  C   UNL d   1      57.659   0.044  30.885  0.00  0.00     0.034 A 
ATOM     13  C   UNL d   1      57.680  -0.737  30.578  0.00  0.00     0.141 A 
ATOM     14  F   UNL d   1      57.507  -1.371  31.070  0.00  0.00    -0.204 F 
ATOM     15  C   UNL d   1      57.871  -0.859  29.793  0.00  0.00     0.030 A 
ATOM     16  C   UNL d   1      58.041  -0.232  29.313  0.00  0.00     0.002 A 
ATOM     17  C   UNL d   1      58.027   0.554  29.594  0.00  0.00     0.000 A 
ATOM     18  C   UNL d   1      57.834   0.682  30.386  0.00  0.00     0.003 A 
ENDBRANCH   3  12
BRANCH   2  19
ATOM     19  C   UNL d   1      58.816   0.517  33.366  0.00  0.00     0.118 A 
ATOM     20  O   UNL d   1      59.552   0.547  32.993  0.00  0.00    -0.304 OA
ATOM     21  C   UNL d   1      60.128   0.648  33.583  0.00  0.00     0.123 A 
ATOM     22  C   UNL d   1      59.751   0.681  34.319  0.00  0.00     0.029 A 
ATOM     23  C   UNL d   1      58.943   0.600  34.184  0.00  0.00     0.028 A 
ENDBRANCH   2  19
TORSDOF 2
ENDMDL
