MODEL 1
REMARK VINA RESULT:      -3.2      0.000      0.000
REMARK  4 active torsions:
REMARK  status: ('A' for Active; 'I' for Inactive)
REMARK    1  A    between atoms: C_9  and  C_3 
REMARK    2  A    between atoms: C_11  and  C_8 
REMARK    3  A    between atoms: N_10  and  C_11 
REMARK    4  A    between atoms: C_18  and  N_10 
ROOT
ATOM      1  N   UNL d   1      32.507  18.577 -23.846  0.00  0.00    -0.267 N 
ATOM      2  C   UNL d   1      32.938  19.092 -24.325  0.00  0.00     0.201 A 
ATOM      3  C   UNL d   1      32.204  17.976 -24.328  0.00  0.00     0.171 A 
ATOM      4  N   UNL d   1      32.450  18.125 -25.096  0.00  0.00    -0.128 NA
ATOM      5  N   UNL d   1      32.903  18.813 -25.094  0.00  0.00    -0.121 NA
ATOM      6  S   UNL d   1      33.241  19.693 -23.842  0.00  0.00    -0.045 SA
ATOM      7  C   UNL d   1      32.541  18.856 -23.069  0.00  0.00     0.091 A 
ATOM      8  C   UNL d   1      32.993  19.545 -23.067  0.00  0.00     0.069 A 
ENDROOT
BRANCH   3   9
ATOM      9  C   UNL d   1      31.736  17.340 -24.072  0.00  0.00     0.036 A 
ATOM     10  C   UNL d   1      30.915  17.408 -24.091  0.00  0.00     0.004 A 
ATOM     11  C   UNL d   1      30.442  16.780 -23.837  0.00  0.00     0.007 A 
ATOM     12  C   UNL d   1      30.799  16.087 -23.565  0.00  0.00     0.035 A 
ATOM     13  C   UNL d   1      31.614  16.015 -23.544  0.00  0.00     0.007 A 
ATOM     14 BR   UNL d   1      30.338  15.457 -23.311  0.00  0.00    -0.049 Br
ATOM     15  C   UNL d   1      32.081  16.650 -23.801  0.00  0.00     0.004 A 
ENDBRANCH   3   9
BRANCH   8  16
ATOM     16  C   UNL d   1      33.172  20.008 -22.412  0.00  0.00     0.107 C 
BRANCH  16  17
ATOM     17  N   UNL d   1      32.562  20.389 -22.001  0.00  0.00    -0.243 NA
BRANCH  17  18
ATOM     18  C   UNL d   1      32.718  20.759 -21.276  0.00  0.00     0.081 A 
ATOM     19  C   UNL d   1      32.220  21.399 -21.128  0.00  0.00     0.019 A 
ATOM     20  C   UNL d   1      32.440  21.710 -20.390  0.00  0.00     0.002 A 
ATOM     21  C   UNL d   1      33.069  21.258 -20.096  0.00  0.00     0.002 A 
ATOM     22  C   UNL d   1      33.241  20.671 -20.643  0.00  0.00     0.019 A 
ENDBRANCH  17  18
ENDBRANCH  16  17
ENDBRANCH   8  16
TORSDOF 4
ENDMDL
MODEL 2
REMARK VINA RESULT:      -1.0      2.371      5.076
REMARK  4 active torsions:
REMARK  status: ('A' for Active; 'I' for Inactive)
REMARK    1  A    between atoms: C_9  and  C_3 
REMARK    2  A    between atoms: C_11  and  C_8 
REMARK    3  A    between atoms: N_10  and  C_11 
REMARK    4  A    between atoms: C_18  and  N_10 
ROOT
ATOM      1  N   UNL d   1      33.237  20.211 -22.303  0.00  0.00    -0.267 N 
ATOM      2  C   UNL d   1      33.239  19.709 -21.648  0.00  0.00     0.201 A 
ATOM      3  C   UNL d   1      33.238  20.991 -22.025  0.00  0.00     0.171 A 
ATOM      4  N   UNL d   1      33.240  20.963 -21.206  0.00  0.00    -0.128 NA
ATOM      5  N   UNL d   1      33.240  20.172 -20.973  0.00  0.00    -0.121 NA
ATOM      6  S   UNL d   1      33.239  18.929 -21.926  0.00  0.00    -0.045 SA
ATOM      7  C   UNL d   1      33.236  19.745 -22.986  0.00  0.00     0.091 A 
ATOM      8  C   UNL d   1      33.237  18.955 -22.753  0.00  0.00     0.069 A 
ENDROOT
BRANCH   3   9
ATOM      9  C   UNL d   1      33.237  21.672 -22.499  0.00  0.00     0.036 A 
ATOM     10  C   UNL d   1      33.232  22.414 -22.140  0.00  0.00     0.004 A 
ATOM     11  C   UNL d   1      33.231  23.098 -22.605  0.00  0.00     0.007 A 
ATOM     12  C   UNL d   1      33.234  23.030 -23.428  0.00  0.00     0.035 A 
ATOM     13  C   UNL d   1      33.239  22.295 -23.788  0.00  0.00     0.007 A 
ATOM     14 BR   UNL d   1      33.233  23.702 -23.898  0.00  0.00    -0.049 Br
ATOM     15  C   UNL d   1      33.240  21.614 -23.315  0.00  0.00     0.004 A 
ENDBRANCH   3   9
BRANCH   8  16
ATOM     16  C   UNL d   1      33.236  18.301 -23.251  0.00  0.00     0.107 C 
BRANCH  16  17
ATOM     17  N   UNL d   1      32.637  17.733 -23.180  0.00  0.00    -0.243 NA
BRANCH  17  18
ATOM     18  C   UNL d   1      32.634  17.068 -23.675  0.00  0.00     0.081 A 
ATOM     19  C   UNL d   1      32.007  16.556 -23.522  0.00  0.00     0.019 A 
ATOM     20  C   UNL d   1      32.078  15.922 -24.055  0.00  0.00     0.002 A 
ATOM     21  C   UNL d   1      32.746  16.054 -24.527  0.00  0.00     0.002 A 
ATOM     22  C   UNL d   1      33.090  16.762 -24.292  0.00  0.00     0.019 A 
ENDBRANCH  17  18
ENDBRANCH  16  17
ENDBRANCH   8  16
TORSDOF 4
ENDMDL
