MODEL 1
REMARK VINA RESULT:     140.9      0.000      0.000
REMARK  2 active torsions:
REMARK  status: ('A' for Active; 'I' for Inactive)
REMARK    1  A    between atoms: C_10  and  C_4 
REMARK       I    between atoms: N_12  and  C_10 
REMARK       I    between atoms: C_11  and  N_13 
REMARK    2  A    between atoms: C_14  and  C_11 
ROOT
ATOM      1  C   UNL d   1      59.009  49.350  52.941  0.00  0.00     0.154 A 
ATOM      2  C   UNL d   1      58.572  49.351  52.243  0.00  0.00     0.093 A 
ATOM      3  N   UNL d   1      58.621  49.440  53.673  0.00  0.00    -0.211 NA
ATOM      4  C   UNL d   1      59.859  49.191  51.925  0.00  0.00     0.122 A 
ATOM      5  N   UNL d   1      59.801  49.252  52.745  0.00  0.00    -0.285 N 
ATOM      6  C   UNL d   1      57.749  49.440  52.266  0.00  0.00     0.269 A 
ATOM      7  N   UNL d   1      57.363  49.530  52.986  0.00  0.00    -0.259 N 
ATOM      8  C   UNL d   1      57.800  49.530  53.699  0.00  0.00     0.140 A 
ATOM      9  C   UNL d   1      59.095  49.253  51.619  0.00  0.00     0.030 A 
ATOM     10  C   UNL d   1      56.543  49.619  53.013  0.00  0.00     0.084 A 
ATOM     11  O   UNL d   1      57.312  49.441  51.563  0.00  0.00    -0.266 OA
ATOM     12  C   UNL d   1      57.423  49.618  54.415  0.00  0.00     0.064 A 
ATOM     13  C   UNL d   1      56.165  49.708  53.737  0.00  0.00     0.018 A 
ATOM     14  C   UNL d   1      56.609  49.707  54.446  0.00  0.00    -0.008 A 
ATOM     15  C   UNL d   1      60.431  49.220  53.282  0.00  0.00     0.101 C 
ENDROOT
BRANCH   4  16
ATOM     16  C   UNL d   1      60.555  49.088  51.488  0.00  0.00     0.281 C 
ATOM     17  N   UNL d   1      60.703  48.366  51.120  0.00  0.00    -0.268 N 
ATOM     18  C   UNL d   1      61.399  48.262  50.683  0.00  0.00     0.102 A 
ATOM     19  C   UNL d   1      60.164  47.747  51.183  0.00  0.00     0.102 A 
ATOM     20  C   UNL d   1      61.555  47.539  50.310  0.00  0.00     0.102 A 
ATOM     21  N   UNL d   1      61.013  46.925  50.377  0.00  0.00    -0.267 N 
ATOM     22  C   UNL d   1      61.165  46.203  50.006  0.00  0.00     0.288 C 
ATOM     23  C   UNL d   1      60.320  47.040  50.816  0.00  0.00     0.102 A 
ATOM     24  O   UNL d   1      60.623  45.589  50.073  0.00  0.00    -0.264 OA
ATOM     25  O   UNL d   1      61.094  49.706  51.425  0.00  0.00    -0.265 OA
BRANCH  22  26
ATOM     26  C   UNL d   1      61.864  46.112  49.573  0.00  0.00     0.156 A 
ATOM     27  O   UNL d   1      62.219  45.391  49.384  0.00  0.00    -0.300 OA
ATOM     28  C   UNL d   1      62.896  45.542  48.953  0.00  0.00     0.123 A 
ATOM     29  C   UNL d   1      62.975  46.361  48.866  0.00  0.00     0.029 A 
ATOM     30  C   UNL d   1      62.334  46.708  49.252  0.00  0.00     0.032 A 
ENDBRANCH  22  26
ENDBRANCH   4  16
TORSDOF 2
ENDMDL
