MODEL 1
REMARK VINA RESULT:      -3.0      0.000      0.000
REMARK  3 active torsions:
REMARK  status: ('A' for Active; 'I' for Inactive)
REMARK    1  A    between atoms: S_8  and  C_1 
REMARK    2  A    between atoms: C_7  and  C_12 
REMARK    3  A    between atoms: C_12  and  S_8 
ROOT
ATOM      1  C   UNL d   1      32.995  20.572 -21.747  0.00  0.00     0.141 A 
ATOM      2  N   UNL d   1      32.534  20.740 -21.095  0.00  0.00    -0.232 NA
ATOM      3  S   UNL d   1      33.241  21.264 -22.087  0.00  0.00    -0.060 SA
ATOM      4  C   UNL d   1      32.500  21.550 -21.041  0.00  0.00     0.088 A 
ATOM      5  C   UNL d   1      32.937  21.874 -21.654  0.00  0.00     0.049 A 
ATOM      6  C   UNL d   1      32.113  22.042 -20.493  0.00  0.00     0.020 A 
ATOM      7  C   UNL d   1      32.991  22.692 -21.724  0.00  0.00     0.008 A 
ATOM      8  C   UNL d   1      32.176  22.871 -20.574  0.00  0.00     0.002 A 
ATOM      9  C   UNL d   1      32.613  23.195 -21.187  0.00  0.00     0.001 A 
ENDROOT
BRANCH   1  10
ATOM     10  S   UNL d   1      33.182  19.813 -22.015  0.00  0.00    -0.060 SA
BRANCH  10  11
ATOM     11  C   UNL d   1      32.801  19.492 -22.661  0.00  0.00     0.044 C 
BRANCH  11  12
ATOM     12  C   UNL d   1      32.938  18.698 -22.890  0.00  0.00     0.036 A 
ATOM     13  S   UNL d   1      32.765  18.465 -23.664  0.00  0.00    -0.086 SA
ATOM     14  C   UNL d   1      32.954  17.669 -23.722  0.00  0.00     0.035 A 
ATOM     15  C   UNL d   1      33.241  17.414 -22.989  0.00  0.00     0.007 A 
ATOM     16  C   UNL d   1      33.229  18.059 -22.474  0.00  0.00     0.007 A 
ENDBRANCH  11  12
ENDBRANCH  10  11
ENDBRANCH   1  10
TORSDOF 3
ENDMDL
MODEL 2
REMARK VINA RESULT:      -2.8      1.007      4.110
REMARK  3 active torsions:
REMARK  status: ('A' for Active; 'I' for Inactive)
REMARK    1  A    between atoms: S_8  and  C_1 
REMARK    2  A    between atoms: C_7  and  C_12 
REMARK    3  A    between atoms: C_12  and  S_8 
ROOT
ATOM      1  C   UNL d   1      33.154  19.996 -22.123  0.00  0.00     0.141 A 
ATOM      2  N   UNL d   1      32.994  19.208 -21.988  0.00  0.00    -0.232 NA
ATOM      3  S   UNL d   1      33.241  20.120 -22.918  0.00  0.00    -0.060 SA
ATOM      4  C   UNL d   1      32.984  18.848 -22.716  0.00  0.00     0.088 A 
ATOM      5  C   UNL d   1      33.137  19.412 -23.292  0.00  0.00     0.049 A 
ATOM      6  C   UNL d   1      32.851  18.054 -22.928  0.00  0.00     0.020 A 
ATOM      7  C   UNL d   1      33.158  19.187 -24.083  0.00  0.00     0.008 A 
ATOM      8  C   UNL d   1      32.875  17.839 -23.735  0.00  0.00     0.002 A 
ATOM      9  C   UNL d   1      33.028  18.403 -24.310  0.00  0.00     0.001 A 
ENDROOT
BRANCH   1  10
ATOM     10  S   UNL d   1      33.216  20.576 -21.538  0.00  0.00    -0.060 SA
BRANCH  10  11
ATOM     11  C   UNL d   1      32.596  21.083 -21.383  0.00  0.00     0.044 C 
BRANCH  11  12
ATOM     12  C   UNL d   1      32.680  21.708 -20.831  0.00  0.00     0.036 A 
ATOM     13  S   UNL d   1      32.123  22.319 -20.826  0.00  0.00    -0.086 SA
ATOM     14  C   UNL d   1      32.347  22.842 -20.235  0.00  0.00     0.035 A 
ATOM     15  C   UNL d   1      33.038  22.554 -19.880  0.00  0.00     0.007 A 
ATOM     16  C   UNL d   1      33.240  21.848 -20.255  0.00  0.00     0.007 A 
ENDBRANCH  11  12
ENDBRANCH  10  11
ENDBRANCH   1  10
TORSDOF 3
ENDMDL
MODEL 3
REMARK VINA RESULT:      -2.6      0.847      1.217
REMARK  3 active torsions:
REMARK  status: ('A' for Active; 'I' for Inactive)
REMARK    1  A    between atoms: S_8  and  C_1 
REMARK    2  A    between atoms: C_7  and  C_12 
REMARK    3  A    between atoms: C_12  and  S_8 
ROOT
ATOM      1  C   UNL d   1      33.078  19.635 -22.490  0.00  0.00     0.141 A 
ATOM      2  N   UNL d   1      32.857  19.772 -21.716  0.00  0.00    -0.232 NA
ATOM      3  S   UNL d   1      33.240  20.341 -22.851  0.00  0.00    -0.060 SA
ATOM      4  C   UNL d   1      32.886  20.577 -21.609  0.00  0.00     0.088 A 
ATOM      5  C   UNL d   1      33.122  20.929 -22.311  0.00  0.00     0.049 A 
ATOM      6  C   UNL d   1      32.720  21.041 -20.939  0.00  0.00     0.020 A 
ATOM      7  C   UNL d   1      33.195  21.748 -22.348  0.00  0.00     0.008 A 
ATOM      8  C   UNL d   1      32.797  21.871 -20.990  0.00  0.00     0.002 A 
ATOM      9  C   UNL d   1      33.034  22.223 -21.692  0.00  0.00     0.001 A 
ENDROOT
BRANCH   1  10
ATOM     10  S   UNL d   1      33.129  18.891 -22.845  0.00  0.00    -0.060 SA
BRANCH  10  11
ATOM     11  C   UNL d   1      32.493  18.575 -23.247  0.00  0.00     0.044 C 
BRANCH  11  12
ATOM     12  C   UNL d   1      32.524  17.797 -23.557  0.00  0.00     0.036 A 
ATOM     13  S   UNL d   1      32.125  17.625 -24.260  0.00  0.00    -0.086 SA
ATOM     14  C   UNL d   1      32.255  16.832 -24.421  0.00  0.00     0.035 A 
ATOM     15  C   UNL d   1      32.731  16.518 -23.822  0.00  0.00     0.007 A 
ATOM     16  C   UNL d   1      32.896  17.123 -23.286  0.00  0.00     0.007 A 
ENDBRANCH  11  12
ENDBRANCH  10  11
ENDBRANCH   1  10
TORSDOF 3
ENDMDL
MODEL 4
REMARK VINA RESULT:      -2.6      3.409      5.528
REMARK  3 active torsions:
REMARK  status: ('A' for Active; 'I' for Inactive)
REMARK    1  A    between atoms: S_8  and  C_1 
REMARK    2  A    between atoms: C_7  and  C_12 
REMARK    3  A    between atoms: C_12  and  S_8 
ROOT
ATOM      1  C   UNL d   1      30.524  17.096 -24.305  0.00  0.00     0.141 A 
ATOM      2  N   UNL d   1      30.568  16.437 -23.825  0.00  0.00    -0.232 NA
ATOM      3  S   UNL d   1      29.748  17.265 -24.458  0.00  0.00    -0.060 SA
ATOM      4  C   UNL d   1      29.803  16.204 -23.685  0.00  0.00     0.088 A 
ATOM      5  C   UNL d   1      29.295  16.716 -24.076  0.00  0.00     0.049 A 
ATOM      6  C   UNL d   1      29.501  15.572 -23.237  0.00  0.00     0.020 A 
ATOM      7  C   UNL d   1      28.482  16.599 -24.022  0.00  0.00     0.008 A 
ATOM      8  C   UNL d   1      28.674  15.463 -23.190  0.00  0.00     0.002 A 
ATOM      9  C   UNL d   1      28.166  15.975 -23.582  0.00  0.00     0.001 A 
ENDROOT
BRANCH   1  10
ATOM     10  S   UNL d   1      31.173  17.521 -24.589  0.00  0.00    -0.060 SA
BRANCH  10  11
ATOM     11  C   UNL d   1      31.778  17.746 -24.090  0.00  0.00     0.044 C 
BRANCH  11  12
ATOM     12  C   UNL d   1      32.360  18.295 -24.339  0.00  0.00     0.036 A 
ATOM     13  S   UNL d   1      32.696  18.807 -23.784  0.00  0.00    -0.086 SA
ATOM     14  C   UNL d   1      33.238  19.272 -24.186  0.00  0.00     0.035 A 
ATOM     15  C   UNL d   1      33.236  19.048 -24.983  0.00  0.00     0.007 A 
ATOM     16  C   UNL d   1      32.686  18.439 -25.073  0.00  0.00     0.007 A 
ENDBRANCH  11  12
ENDBRANCH  10  11
ENDBRANCH   1  10
TORSDOF 3
ENDMDL
MODEL 5
REMARK VINA RESULT:      -2.5      1.158      4.485
REMARK  3 active torsions:
REMARK  status: ('A' for Active; 'I' for Inactive)
REMARK    1  A    between atoms: S_8  and  C_1 
REMARK    2  A    between atoms: C_7  and  C_12 
REMARK    3  A    between atoms: C_12  and  S_8 
ROOT
ATOM      1  C   UNL d   1      33.039  18.837 -23.103  0.00  0.00     0.141 A 
ATOM      2  N   UNL d   1      33.225  18.123 -22.754  0.00  0.00    -0.232 NA
ATOM      3  S   UNL d   1      32.664  18.702 -23.807  0.00  0.00    -0.060 SA
ATOM      4  C   UNL d   1      32.957  17.545 -23.259  0.00  0.00     0.088 A 
ATOM      5  C   UNL d   1      32.610  17.903 -23.910  0.00  0.00     0.049 A 
ATOM      6  C   UNL d   1      32.989  16.716 -23.200  0.00  0.00     0.020 A 
ATOM      7  C   UNL d   1      32.292  17.434 -24.507  0.00  0.00     0.008 A 
ATOM      8  C   UNL d   1      32.663  16.251 -23.814  0.00  0.00     0.002 A 
ATOM      9  C   UNL d   1      32.316  16.609 -24.465  0.00  0.00     0.001 A 
ENDROOT
BRANCH   1  10
ATOM     10  S   UNL d   1      33.208  19.580 -22.784  0.00  0.00    -0.060 SA
BRANCH  10  11
ATOM     11  C   UNL d   1      32.920  19.798 -22.053  0.00  0.00     0.044 C 
BRANCH  11  12
ATOM     12  C   UNL d   1      33.013  20.581 -21.769  0.00  0.00     0.036 A 
ATOM     13  S   UNL d   1      32.859  20.743 -20.974  0.00  0.00    -0.086 SA
ATOM     14  C   UNL d   1      32.996  21.544 -20.863  0.00  0.00     0.035 A 
ATOM     15  C   UNL d   1      33.232  21.872 -21.585  0.00  0.00     0.007 A 
ATOM     16  C   UNL d   1      33.241  21.267 -22.146  0.00  0.00     0.007 A 
ENDBRANCH  11  12
ENDBRANCH  10  11
ENDBRANCH   1  10
TORSDOF 3
ENDMDL
MODEL 6
REMARK VINA RESULT:      -2.2      3.493      4.841
REMARK  3 active torsions:
REMARK  status: ('A' for Active; 'I' for Inactive)
REMARK    1  A    between atoms: S_8  and  C_1 
REMARK    2  A    between atoms: C_7  and  C_12 
REMARK    3  A    between atoms: C_12  and  S_8 
ROOT
ATOM      1  C   UNL d   1      31.291  17.157 -24.241  0.00  0.00     0.141 A 
ATOM      2  N   UNL d   1      31.622  17.510 -23.584  0.00  0.00    -0.232 NA
ATOM      3  S   UNL d   1      31.640  17.454 -24.908  0.00  0.00    -0.060 SA
ATOM      4  C   UNL d   1      32.181  18.030 -23.860  0.00  0.00     0.088 A 
ATOM      5  C   UNL d   1      32.192  17.996 -24.679  0.00  0.00     0.049 A 
ATOM      6  C   UNL d   1      32.694  18.543 -23.452  0.00  0.00     0.020 A 
ATOM      7  C   UNL d   1      32.716  18.474 -25.097  0.00  0.00     0.008 A 
ATOM      8  C   UNL d   1      33.220  19.024 -23.888  0.00  0.00     0.002 A 
ATOM      9  C   UNL d   1      33.232  18.989 -24.707  0.00  0.00     0.001 A 
ENDROOT
BRANCH   1  10
ATOM     10  S   UNL d   1      30.694  16.587 -24.225  0.00  0.00    -0.060 SA
BRANCH  10  11
ATOM     11  C   UNL d   1      29.908  16.801 -24.262  0.00  0.00     0.044 C 
BRANCH  11  12
ATOM     12  C   UNL d   1      29.305  16.273 -24.018  0.00  0.00     0.036 A 
ATOM     13  S   UNL d   1      28.736  16.030 -24.565  0.00  0.00    -0.086 SA
ATOM     14  C   UNL d   1      28.227  15.521 -24.170  0.00  0.00     0.035 A 
ATOM     15  C   UNL d   1      28.483  15.453 -23.386  0.00  0.00     0.007 A 
ATOM     16  C   UNL d   1      29.155  15.923 -23.297  0.00  0.00     0.007 A 
ENDBRANCH  11  12
ENDBRANCH  10  11
ENDBRANCH   1  10
TORSDOF 3
ENDMDL
MODEL 7
REMARK VINA RESULT:      -2.2      1.221      1.975
REMARK  3 active torsions:
REMARK  status: ('A' for Active; 'I' for Inactive)
REMARK    1  A    between atoms: S_8  and  C_1 
REMARK    2  A    between atoms: C_7  and  C_12 
REMARK    3  A    between atoms: C_12  and  S_8 
ROOT
ATOM      1  C   UNL d   1      33.184  19.155 -22.772  0.00  0.00     0.141 A 
ATOM      2  N   UNL d   1      33.241  19.874 -23.154  0.00  0.00    -0.232 NA
ATOM      3  S   UNL d   1      33.110  19.281 -21.975  0.00  0.00    -0.060 SA
ATOM      4  C   UNL d   1      33.200  20.444 -22.577  0.00  0.00     0.088 A 
ATOM      5  C   UNL d   1      33.119  20.077 -21.848  0.00  0.00     0.049 A 
ATOM      6  C   UNL d   1      33.228  21.274 -22.631  0.00  0.00     0.020 A 
ATOM      7  C   UNL d   1      33.065  20.538 -21.168  0.00  0.00     0.008 A 
ATOM      8  C   UNL d   1      33.172  21.730 -21.934  0.00  0.00     0.002 A 
ATOM      9  C   UNL d   1      33.091  21.363 -21.205  0.00  0.00     0.001 A 
ENDROOT
BRANCH   1  10
ATOM     10  S   UNL d   1      33.200  18.417 -23.141  0.00  0.00    -0.060 SA
BRANCH  10  11
ATOM     11  C   UNL d   1      32.543  18.127 -23.527  0.00  0.00     0.044 C 
BRANCH  11  12
ATOM     12  C   UNL d   1      32.516  17.333 -23.796  0.00  0.00     0.036 A 
ATOM     13  S   UNL d   1      31.821  16.897 -23.699  0.00  0.00    -0.086 SA
ATOM     14  C   UNL d   1      31.961  16.152 -24.010  0.00  0.00     0.035 A 
ATOM     15  C   UNL d   1      32.737  16.130 -24.297  0.00  0.00     0.007 A 
ATOM     16  C   UNL d   1      33.078  16.868 -24.160  0.00  0.00     0.007 A 
ENDBRANCH  11  12
ENDBRANCH  10  11
ENDBRANCH   1  10
TORSDOF 3
ENDMDL
MODEL 8
REMARK VINA RESULT:      -1.4      2.876      5.419
REMARK  3 active torsions:
REMARK  status: ('A' for Active; 'I' for Inactive)
REMARK    1  A    between atoms: S_8  and  C_1 
REMARK    2  A    between atoms: C_7  and  C_12 
REMARK    3  A    between atoms: C_12  and  S_8 
ROOT
ATOM      1  C   UNL d   1      31.068  17.553 -24.523  0.00  0.00     0.141 A 
ATOM      2  N   UNL d   1      30.298  17.717 -24.738  0.00  0.00    -0.232 NA
ATOM      3  S   UNL d   1      31.133  16.767 -24.340  0.00  0.00    -0.060 SA
ATOM      4  C   UNL d   1      29.891  17.016 -24.683  0.00  0.00     0.088 A 
ATOM      5  C   UNL d   1      30.408  16.428 -24.438  0.00  0.00     0.049 A 
ATOM      6  C   UNL d   1      29.092  16.840 -24.833  0.00  0.00     0.020 A 
ATOM      7  C   UNL d   1      30.129  15.660 -24.339  0.00  0.00     0.008 A 
ATOM      8  C   UNL d   1      28.821  16.056 -24.729  0.00  0.00     0.002 A 
ATOM      9  C   UNL d   1      29.338  15.469 -24.483  0.00  0.00     0.001 A 
ENDROOT
BRANCH   1  10
ATOM     10  S   UNL d   1      31.682  18.104 -24.497  0.00  0.00    -0.060 SA
BRANCH  10  11
ATOM     11  C   UNL d   1      32.272  18.048 -23.935  0.00  0.00     0.044 C 
BRANCH  11  12
ATOM     12  C   UNL d   1      32.655  18.735 -23.644  0.00  0.00     0.036 A 
ATOM     13  S   UNL d   1      32.851  18.778 -22.843  0.00  0.00    -0.086 SA
ATOM     14  C   UNL d   1      33.215  19.503 -22.725  0.00  0.00     0.035 A 
ATOM     15  C   UNL d   1      33.241  19.904 -23.449  0.00  0.00     0.007 A 
ATOM     16  C   UNL d   1      32.891  19.420 -24.018  0.00  0.00     0.007 A 
ENDBRANCH  11  12
ENDBRANCH  10  11
ENDBRANCH   1  10
TORSDOF 3
ENDMDL
MODEL 9
REMARK VINA RESULT:      -0.9      2.007      2.870
REMARK  3 active torsions:
REMARK  status: ('A' for Active; 'I' for Inactive)
REMARK    1  A    between atoms: S_8  and  C_1 
REMARK    2  A    between atoms: C_7  and  C_12 
REMARK    3  A    between atoms: C_12  and  S_8 
ROOT
ATOM      1  C   UNL d   1      33.115  22.056 -19.784  0.00  0.00     0.141 A 
ATOM      2  N   UNL d   1      32.886  22.836 -19.721  0.00  0.00    -0.232 NA
ATOM      3  S   UNL d   1      33.199  21.740 -19.043  0.00  0.00    -0.060 SA
ATOM      4  C   UNL d   1      32.830  22.995 -18.926  0.00  0.00     0.088 A 
ATOM      5  C   UNL d   1      33.024  22.317 -18.507  0.00  0.00     0.049 A 
ATOM      6  C   UNL d   1      32.621  23.694 -18.526  0.00  0.00     0.020 A 
ATOM      7  C   UNL d   1      33.010  22.333 -17.684  0.00  0.00     0.008 A 
ATOM      8  C   UNL d   1      32.611  23.697 -17.690  0.00  0.00     0.002 A 
ATOM      9  C   UNL d   1      32.804  23.019 -17.271  0.00  0.00     0.001 A 
ENDROOT
BRANCH   1  10
ATOM     10  S   UNL d   1      33.241  21.653 -20.494  0.00  0.00    -0.060 SA
BRANCH  10  11
ATOM     11  C   UNL d   1      32.628  21.270 -20.873  0.00  0.00     0.044 C 
BRANCH  11  12
ATOM     12  C   UNL d   1      32.778  20.723 -21.490  0.00  0.00     0.036 A 
ATOM     13  S   UNL d   1      32.950  21.005 -22.247  0.00  0.00    -0.086 SA
ATOM     14  C   UNL d   1      33.069  20.349 -22.725  0.00  0.00     0.035 A 
ATOM     15  C   UNL d   1      32.971  19.669 -22.264  0.00  0.00     0.007 A 
ATOM     16  C   UNL d   1      32.790  19.908 -21.496  0.00  0.00     0.007 A 
ENDBRANCH  11  12
ENDBRANCH  10  11
ENDBRANCH   1  10
TORSDOF 3
ENDMDL
