MODEL 1
REMARK VINA RESULT:      48.1      0.000      0.000
REMARK  6 active torsions:
REMARK  status: ('A' for Active; 'I' for Inactive)
REMARK    1  A    between atoms: C_6  and  C_1 
REMARK    2  A    between atoms: C_9  and  C_2 
REMARK    3  A    between atoms: N_8  and  C_3 
REMARK       I    between atoms: N_7  and  C_6 
REMARK    4  A    between atoms: C_13  and  N_7 
REMARK    5  A    between atoms: C_12  and  N_8 
REMARK    6  A    between atoms: O_19  and  C_14 
ROOT
ATOM      1  C   UNL d   1      45.157 -15.128  44.721  0.00  0.00     0.108 A 
ATOM      2  C   UNL d   1      45.859 -14.775  44.462  0.00  0.00     0.094 A 
ATOM      3  C   UNL d   1      46.102 -16.045  44.747  0.00  0.00     0.194 A 
ATOM      4  N   UNL d   1      46.449 -15.350  44.479  0.00  0.00    -0.221 NA
ATOM      5  S   UNL d   1      45.329 -15.914  44.892  0.00  0.00    -0.042 SA
ENDROOT
BRANCH   1   6
ATOM      6  C   UNL d   1      44.420 -14.772  44.797  0.00  0.00     0.287 C 
ATOM      7  N   UNL d   1      43.729 -15.218  44.730  0.00  0.00    -0.206 NA
ATOM      8  O   UNL d   1      44.356 -13.953  44.943  0.00  0.00    -0.265 OA
BRANCH   7   9
ATOM      9  C   UNL d   1      42.993 -14.866  44.805  0.00  0.00     0.104 A 
ATOM     10  C   UNL d   1      42.949 -14.058  44.800  0.00  0.00     0.118 A 
ATOM     11  N   UNL d   1      42.210 -13.709  44.875  0.00  0.00    -0.241 NA
ATOM     12  C   UNL d   1      41.560 -14.157  44.950  0.00  0.00     0.099 A 
ATOM     13  C   UNL d   1      41.604 -14.964  44.955  0.00  0.00     0.022 A 
ATOM     14  C   UNL d   1      42.337 -15.340  44.881  0.00  0.00     0.022 A 
ENDBRANCH   7   9
ENDBRANCH   1   6
BRANCH   2  15
ATOM     15  C   UNL d   1      45.869 -13.995  44.249  0.00  0.00     0.018 A 
ATOM     16  C   UNL d   1      45.869 -13.779  43.450  0.00  0.00     0.002 A 
ATOM     17  C   UNL d   1      45.879 -12.977  43.244  0.00  0.00     0.000 A 
ATOM     18  C   UNL d   1      45.889 -12.397  43.842  0.00  0.00     0.000 A 
ATOM     19  C   UNL d   1      45.889 -12.601  44.601  0.00  0.00     0.000 A 
ATOM     20  C   UNL d   1      45.879 -13.405  44.831  0.00  0.00     0.002 A 
ENDBRANCH   2  15
BRANCH   3  21
ATOM     21  N   UNL d   1      46.492 -16.748  44.846  0.00  0.00    -0.221 NA
BRANCH  21  22
ATOM     22  C   UNL d   1      46.376 -17.358  44.298  0.00  0.00     0.084 A 
ATOM     23  C   UNL d   1      46.307 -18.139  44.566  0.00  0.00     0.021 A 
ATOM     24  C   UNL d   1      46.194 -18.742  44.040  0.00  0.00     0.026 A 
ATOM     25  C   UNL d   1      46.148 -18.561  43.226  0.00  0.00     0.094 A 
ATOM     26  C   UNL d   1      46.214 -17.820  42.971  0.00  0.00     0.026 A 
ATOM     27  C   UNL d   1      46.331 -17.193  43.508  0.00  0.00     0.021 A 
BRANCH  25  28
ATOM     28  O   UNL d   1      46.030 -19.178  42.657  0.00  0.00    -0.328 OA
ATOM     29  C   UNL d   1      46.491 -19.867  42.660  0.00  0.00     0.181 C 
ENDBRANCH  25  28
ENDBRANCH  21  22
ENDBRANCH   3  21
TORSDOF 6
ENDMDL
MODEL 2
REMARK VINA RESULT:      50.5      2.592      4.729
REMARK  6 active torsions:
REMARK  status: ('A' for Active; 'I' for Inactive)
REMARK    1  A    between atoms: C_6  and  C_1 
REMARK    2  A    between atoms: C_9  and  C_2 
REMARK    3  A    between atoms: N_8  and  C_3 
REMARK       I    between atoms: N_7  and  C_6 
REMARK    4  A    between atoms: C_13  and  N_7 
REMARK    5  A    between atoms: C_12  and  N_8 
REMARK    6  A    between atoms: O_19  and  C_14 
ROOT
ATOM      1  C   UNL d   1      46.328 -18.026  42.694  0.00  0.00     0.108 A 
ATOM      2  C   UNL d   1      46.385 -18.850  42.751  0.00  0.00     0.094 A 
ATOM      3  C   UNL d   1      46.532 -18.499  41.482  0.00  0.00     0.194 A 
ATOM      4  N   UNL d   1      46.513 -19.144  41.991  0.00  0.00    -0.221 NA
ATOM      5  S   UNL d   1      46.421 -17.830  41.901  0.00  0.00    -0.042 SA
ENDROOT
BRANCH   1   6
ATOM      6  C   UNL d   1      46.202 -17.495  43.307  0.00  0.00     0.287 C 
ATOM      7  N   UNL d   1      45.899 -16.742  43.155  0.00  0.00    -0.206 NA
ATOM      8  O   UNL d   1      46.377 -17.704  44.096  0.00  0.00    -0.265 OA
BRANCH   7   9
ATOM      9  C   UNL d   1      45.772 -16.209  43.764  0.00  0.00     0.104 A 
ATOM     10  C   UNL d   1      46.281 -15.586  43.844  0.00  0.00     0.118 A 
ATOM     11  N   UNL d   1      46.150 -15.054  44.456  0.00  0.00    -0.241 NA
ATOM     12  C   UNL d   1      45.539 -15.154  44.951  0.00  0.00     0.099 A 
ATOM     13  C   UNL d   1      45.030 -15.777  44.871  0.00  0.00     0.022 A 
ATOM     14  C   UNL d   1      45.141 -16.327  44.263  0.00  0.00     0.022 A 
ENDBRANCH   7   9
ENDBRANCH   1   6
BRANCH   2  15
ATOM     15  C   UNL d   1      46.315 -19.216  43.468  0.00  0.00     0.018 A 
ATOM     16  C   UNL d   1      45.916 -19.939  43.532  0.00  0.00     0.002 A 
ATOM     17  C   UNL d   1      45.851 -20.304  44.273  0.00  0.00     0.000 A 
ATOM     18  C   UNL d   1      46.187 -19.941  44.944  0.00  0.00     0.000 A 
ATOM     19  C   UNL d   1      46.566 -19.255  44.883  0.00  0.00     0.000 A 
ATOM     20  C   UNL d   1      46.643 -18.870  44.146  0.00  0.00     0.002 A 
ENDBRANCH   2  15
BRANCH   3  21
ATOM     21  N   UNL d   1      46.645 -18.547  40.681  0.00  0.00    -0.221 NA
BRANCH  21  22
ATOM     22  C   UNL d   1      46.114 -18.168  40.172  0.00  0.00     0.084 A 
ATOM     23  C   UNL d   1      45.299 -18.229  40.314  0.00  0.00     0.021 A 
ATOM     24  C   UNL d   1      44.772 -17.864  39.823  0.00  0.00     0.026 A 
ATOM     25  C   UNL d   1      45.063 -17.427  39.174  0.00  0.00     0.094 A 
ATOM     26  C   UNL d   1      45.836 -17.369  39.039  0.00  0.00     0.026 A 
ATOM     27  C   UNL d   1      46.386 -17.743  39.541  0.00  0.00     0.021 A 
BRANCH  25  28
ATOM     28  O   UNL d   1      44.527 -17.035  38.646  0.00  0.00    -0.328 OA
ATOM     29  C   UNL d   1      44.761 -16.799  37.886  0.00  0.00     0.181 C 
ENDBRANCH  25  28
ENDBRANCH  21  22
ENDBRANCH   3  21
TORSDOF 6
ENDMDL
