MODEL 1
REMARK VINA RESULT:      -7.1      0.000      0.000
REMARK  3 active torsions:
REMARK  status: ('A' for Active; 'I' for Inactive)
REMARK    1  A    between atoms: C_6  and  N_1 
REMARK    2  A    between atoms: C_7  and  O_10 
REMARK    3  A    between atoms: O_10  and  C_13 
ROOT
ATOM      1  C   UNL d   1     -47.730  12.779  22.914  0.00  0.00     0.070 A 
ATOM      2  C   UNL d   1     -48.031  12.490  23.638  0.00  0.00     0.020 A 
ATOM      3  C   UNL d   1     -48.123  12.611  22.208  0.00  0.00     0.020 A 
ATOM      4  C   UNL d   1     -49.116  11.868  22.918  0.00  0.00     0.105 A 
ATOM      5  C   UNL d   1     -48.811  12.159  22.202  0.00  0.00     0.026 A 
ATOM      6  C   UNL d   1     -48.721  12.036  23.632  0.00  0.00     0.026 A 
ENDROOT
BRANCH   1   7
ATOM      7  N   UNL d   1     -47.045  13.229  22.919  0.00  0.00    -0.242 N 
ATOM      8  C   UNL d   1     -46.247  12.955  22.951  0.00  0.00     0.267 A 
ATOM      9  C   UNL d   1     -45.768  13.603  22.944  0.00  0.00     0.066 A 
ATOM     10  O   UNL d   1     -45.988  12.175  22.985  0.00  0.00    -0.267 OA
ATOM     11  C   UNL d   1     -46.211  14.277  22.909  0.00  0.00     0.066 A 
ATOM     12  C   UNL d   1     -47.019  14.028  22.894  0.00  0.00     0.267 A 
ATOM     13  O   UNL d   1     -47.683  14.521  22.858  0.00  0.00    -0.267 OA
ENDBRANCH   1   7
BRANCH   4  14
ATOM     14  O   UNL d   1     -49.785  11.428  22.913  0.00  0.00    -0.260 OA
BRANCH  14  15
ATOM     15  C   UNL d   1     -50.510  11.789  22.992  0.00  0.00     0.391 C 
ATOM     16  F   UNL d   1     -50.900  11.767  23.698  0.00  0.00    -0.145 F 
ATOM     17  F   UNL d   1     -50.845  12.174  22.357  0.00  0.00    -0.145 F 
ENDBRANCH  14  15
ENDBRANCH   4  14
TORSDOF 3
ENDMDL
MODEL 2
REMARK VINA RESULT:      -7.0      1.528      2.186
REMARK  3 active torsions:
REMARK  status: ('A' for Active; 'I' for Inactive)
REMARK    1  A    between atoms: C_6  and  N_1 
REMARK    2  A    between atoms: C_7  and  O_10 
REMARK    3  A    between atoms: O_10  and  C_13 
ROOT
ATOM      1  C   UNL d   1     -48.677  12.529  22.908  0.00  0.00     0.070 A 
ATOM      2  C   UNL d   1     -48.934  12.305  22.145  0.00  0.00     0.020 A 
ATOM      3  C   UNL d   1     -49.171  12.977  23.394  0.00  0.00     0.020 A 
ATOM      4  C   UNL d   1     -50.181  12.992  22.382  0.00  0.00     0.105 A 
ATOM      5  C   UNL d   1     -49.918  13.210  23.140  0.00  0.00     0.026 A 
ATOM      6  C   UNL d   1     -49.684  12.539  21.889  0.00  0.00     0.026 A 
ENDROOT
BRANCH   1   7
ATOM      7  N   UNL d   1     -47.933  12.297  23.161  0.00  0.00    -0.242 N 
ATOM      8  C   UNL d   1     -47.208  12.725  23.096  0.00  0.00     0.267 A 
ATOM      9  C   UNL d   1     -46.629  12.271  23.424  0.00  0.00     0.066 A 
ATOM     10  O   UNL d   1     -47.095  13.468  22.763  0.00  0.00    -0.267 OA
ATOM     11  C   UNL d   1     -46.938  11.577  23.695  0.00  0.00     0.066 A 
ATOM     12  C   UNL d   1     -47.765  11.604  23.524  0.00  0.00     0.267 A 
ATOM     13  O   UNL d   1     -48.322  11.016  23.697  0.00  0.00    -0.267 OA
ENDBRANCH   1   7
BRANCH   4  14
ATOM     14  O   UNL d   1     -50.907  13.218  22.135  0.00  0.00    -0.260 OA
BRANCH  14  15
ATOM     15  C   UNL d   1     -50.988  13.864  21.644  0.00  0.00     0.391 C 
ATOM     16  F   UNL d   1     -51.064  14.603  21.958  0.00  0.00    -0.145 F 
ATOM     17  F   UNL d   1     -50.992  13.764  20.837  0.00  0.00    -0.145 F 
ENDBRANCH  14  15
ENDBRANCH   4  14
TORSDOF 3
ENDMDL
