MODEL 1
REMARK VINA RESULT:      43.8      0.000      0.000
REMARK  5 active torsions:
REMARK  status: ('A' for Active; 'I' for Inactive)
REMARK    1  A    between atoms: C_3  and  C_2 
REMARK    2  A    between atoms: C_7  and  C_3 
REMARK    3  A    between atoms: C_10  and  C_4 
REMARK    4  A    between atoms: C_12  and  C_7 
REMARK    5  A    between atoms: C_18  and  C_11 
ROOT
ATOM      1  C   UNL d   1      45.040 -13.636  44.359  0.00  0.00     0.092 C 
ATOM      2  C   UNL d   1      44.237 -13.691  44.540  0.00  0.00     0.103 C 
ATOM      3  N   UNL d   1      43.434 -13.746  44.721  0.00  0.00    -0.191 NA
ENDROOT
BRANCH   1   4
ATOM      4  C   UNL d   1      45.294 -13.099  43.787  0.00  0.00     0.120 A 
ATOM      5  N   UNL d   1      44.973 -13.119  43.034  0.00  0.00    -0.238 NA
ATOM      6  C   UNL d   1      45.337 -12.517  42.588  0.00  0.00     0.088 A 
ATOM      7  C   UNL d   1      45.868 -12.146  43.076  0.00  0.00     0.056 A 
ATOM      8  S   UNL d   1      45.852 -12.492  43.811  0.00  0.00    -0.065 SA
BRANCH   6   9
ATOM      9  C   UNL d   1      45.117 -12.409  41.799  0.00  0.00     0.018 A 
ATOM     10  C   UNL d   1      45.670 -12.318  41.207  0.00  0.00     0.005 A 
ATOM     11  C   UNL d   1      45.441 -12.213  40.442  0.00  0.00     0.042 A 
ATOM     12  C   UNL d   1      44.644 -12.194  40.226  0.00  0.00     0.196 A 
ATOM     13  C   UNL d   1      44.075 -12.285  40.815  0.00  0.00     0.042 A 
ATOM     14  O   UNL d   1      44.266 -12.107  39.573  0.00  0.00    -0.287 OA
ATOM     15  C   UNL d   1      44.314 -12.392  41.597  0.00  0.00     0.005 A 
ENDBRANCH   6   9
ENDBRANCH   1   4
BRANCH   1  16
ATOM     16  C   UNL d   1      45.590 -14.115  44.747  0.00  0.00     0.012 C 
BRANCH  16  17
ATOM     17  C   UNL d   1      45.649 -14.934  44.559  0.00  0.00     0.001 A 
ATOM     18  C   UNL d   1      46.318 -15.180  44.150  0.00  0.00     0.000 A 
ATOM     19  C   UNL d   1      46.393 -16.017  43.950  0.00  0.00     0.000 A 
ATOM     20  C   UNL d   1      45.784 -16.537  44.179  0.00  0.00     0.000 A 
ATOM     21  C   UNL d   1      45.122 -16.263  44.589  0.00  0.00     0.000 A 
ATOM     22  C   UNL d   1      45.043 -15.478  44.782  0.00  0.00     0.000 A 
BRANCH  20  23
ATOM     23  C   UNL d   1      45.880 -17.354  43.971  0.00  0.00     0.000 C 
ATOM     24  C   UNL d   1      45.982 -17.930  44.545  0.00  0.00     0.000 C 
ATOM     25  C   UNL d   1      45.867 -17.560  43.169  0.00  0.00     0.000 C 
ENDBRANCH  20  23
ENDBRANCH  16  17
ENDBRANCH   1  16
TORSDOF 5
ENDMDL
