MODEL 1
REMARK VINA RESULT:      32.2      0.000      0.000
REMARK  3 active torsions:
REMARK  status: ('A' for Active; 'I' for Inactive)
REMARK    1  A    between atoms: C_10  and  C_4 
REMARK    2  A    between atoms: C_11  and  C_6 
REMARK    3  A    between atoms: C_12  and  C_9 
ROOT
ATOM      1  N   UNL d   1      46.138 -18.329  42.587  0.00  0.00    -0.212 N 
ATOM      2  C   UNL d   1      46.103 -17.579  42.226  0.00  0.00     0.166 A 
ATOM      3  N   UNL d   1      46.283 -18.892  42.002  0.00  0.00    -0.158 NA
ATOM      4  C   UNL d   1      46.338 -18.487  41.274  0.00  0.00     0.169 A 
ATOM      5  C   UNL d   1      46.227 -17.691  41.423  0.00  0.00     0.066 A 
ATOM      6  C   UNL d   1      46.033 -18.394  43.405  0.00  0.00     0.086 A 
ATOM      7  N   UNL d   1      45.963 -16.899  42.684  0.00  0.00    -0.227 NA
ATOM      8  C   UNL d   1      45.892 -17.721  43.872  0.00  0.00     0.038 A 
ATOM      9  C   UNL d   1      45.857 -16.971  43.511  0.00  0.00     0.085 A 
ENDROOT
BRANCH   6  10
ATOM     10  C   UNL d   1      46.036 -19.049  43.915  0.00  0.00     0.018 A 
ATOM     11  C   UNL d   1      46.635 -19.118  44.475  0.00  0.00     0.002 A 
ATOM     12  C   UNL d   1      46.647 -19.723  44.954  0.00  0.00     0.000 A 
ATOM     13  C   UNL d   1      46.046 -20.330  44.916  0.00  0.00     0.000 A 
ATOM     14  C   UNL d   1      45.453 -20.283  44.378  0.00  0.00     0.000 A 
ATOM     15  C   UNL d   1      45.450 -19.631  43.871  0.00  0.00     0.002 A 
ENDBRANCH   6  10
BRANCH   9  16
ATOM     16  C   UNL d   1      45.720 -16.300  43.950  0.00  0.00     0.018 A 
ATOM     17  C   UNL d   1      46.316 -15.752  44.081  0.00  0.00     0.002 A 
ATOM     18  C   UNL d   1      46.163 -15.092  44.519  0.00  0.00     0.000 A 
ATOM     19  C   UNL d   1      45.400 -14.941  44.853  0.00  0.00     0.000 A 
ATOM     20  C   UNL d   1      44.804 -15.488  44.722  0.00  0.00     0.000 A 
ATOM     21  C   UNL d   1      44.957 -16.174  44.269  0.00  0.00     0.002 A 
ENDBRANCH   9  16
BRANCH   4  22
ATOM     22  C   UNL d   1      46.478 -18.832  40.545  0.00  0.00     0.231 C 
ATOM     23  O   UNL d   1      46.502 -18.356  39.874  0.00  0.00    -0.643 OA
ATOM     24  O   UNL d   1      46.591 -19.651  40.504  0.00  0.00    -0.643 OA
ENDBRANCH   4  22
TORSDOF 3
ENDMDL
