MODEL 1
REMARK VINA RESULT:      -3.3      0.000      0.000
REMARK  3 active torsions:
REMARK  status: ('A' for Active; 'I' for Inactive)
REMARK    1  A    between atoms: C_7  and  C_1 
REMARK    2  A    between atoms: C_13  and  C_7 
REMARK    3  A    between atoms: N_12  and  C_11 
ROOT
ATOM      1  C   UNL d   1      30.511  16.675 -24.811  0.00  0.00     0.010 C 
ENDROOT
BRANCH   1   2
ATOM      2  C   UNL d   1      29.809  16.636 -24.426  0.00  0.00     0.116 A 
ATOM      3  C   UNL d   1      29.654  16.027 -23.892  0.00  0.00     0.288 A 
ATOM      4  N   UNL d   1      28.938  15.978 -23.492  0.00  0.00    -0.152 NA
ATOM      5  O   UNL d   1      30.233  15.453 -23.756  0.00  0.00    -0.265 OA
ATOM      6  C   UNL d   1      28.368  16.543 -23.625  0.00  0.00     0.374 A 
ATOM      7  N   UNL d   1      28.496  17.159 -24.151  0.00  0.00    -0.152 NA
ATOM      8  O   UNL d   1      27.638  16.488 -23.214  0.00  0.00    -0.242 OA
ATOM      9  C   UNL d   1      29.215  17.201 -24.547  0.00  0.00     0.288 A 
ATOM     10  O   UNL d   1      29.352  17.824 -25.083  0.00  0.00    -0.265 OA
ENDBRANCH   1   2
BRANCH   1  11
ATOM     11  C   UNL d   1      31.125  17.141 -24.509  0.00  0.00     0.000 A 
ATOM     12  C   UNL d   1      31.533  16.899 -23.861  0.00  0.00     0.002 A 
ATOM     13  C   UNL d   1      32.135  17.339 -23.550  0.00  0.00     0.018 A 
ATOM     14  C   UNL d   1      32.326  18.053 -23.917  0.00  0.00     0.064 A 
ATOM     15  C   UNL d   1      31.909  18.308 -24.586  0.00  0.00     0.018 A 
ATOM     16  C   UNL d   1      31.310  17.853 -24.881  0.00  0.00     0.002 A 
BRANCH  14  17
ATOM     17  N   UNL d   1      32.943  18.509 -23.603  0.00  0.00    -0.301 N 
ATOM     18  C   UNL d   1      33.241  18.330 -22.865  0.00  0.00     0.100 C 
ATOM     19  C   UNL d   1      33.241  19.138 -24.053  0.00  0.00     0.100 C 
ENDBRANCH  14  17
ENDBRANCH   1  11
TORSDOF 3
ENDMDL
MODEL 2
REMARK VINA RESULT:      -3.1      1.525      3.893
REMARK  3 active torsions:
REMARK  status: ('A' for Active; 'I' for Inactive)
REMARK    1  A    between atoms: C_7  and  C_1 
REMARK    2  A    between atoms: C_13  and  C_7 
REMARK    3  A    between atoms: N_12  and  C_11 
ROOT
ATOM      1  C   UNL d   1      31.868  16.838 -24.418  0.00  0.00     0.010 C 
ENDROOT
BRANCH   1   2
ATOM      2  C   UNL d   1      32.204  17.418 -23.977  0.00  0.00     0.116 A 
ATOM      3  C   UNL d   1      32.155  18.207 -24.211  0.00  0.00     0.288 A 
ATOM      4  N   UNL d   1      32.496  18.809 -23.767  0.00  0.00    -0.152 NA
ATOM      5  O   UNL d   1      31.753  18.397 -24.908  0.00  0.00    -0.265 OA
ATOM      6  C   UNL d   1      32.891  18.622 -23.081  0.00  0.00     0.374 A 
ATOM      7  N   UNL d   1      32.955  17.845 -22.826  0.00  0.00    -0.152 NA
ATOM      8  O   UNL d   1      33.237  19.240 -22.631  0.00  0.00    -0.242 OA
ATOM      9  C   UNL d   1      32.611  17.250 -23.276  0.00  0.00     0.288 A 
ATOM     10  O   UNL d   1      32.672  16.458 -23.023  0.00  0.00    -0.265 OA
ENDBRANCH   1   2
BRANCH   1  11
ATOM     11  C   UNL d   1      31.081  16.621 -24.287  0.00  0.00     0.000 A 
ATOM     12  C   UNL d   1      30.903  16.057 -23.744  0.00  0.00     0.002 A 
ATOM     13  C   UNL d   1      30.141  15.830 -23.600  0.00  0.00     0.018 A 
ATOM     14  C   UNL d   1      29.538  16.196 -24.030  0.00  0.00     0.064 A 
ATOM     15  C   UNL d   1      29.714  16.779 -24.592  0.00  0.00     0.018 A 
ATOM     16  C   UNL d   1      30.484  16.991 -24.720  0.00  0.00     0.002 A 
BRANCH  14  17
ATOM     17  N   UNL d   1      28.754  15.969 -23.887  0.00  0.00    -0.301 N 
ATOM     18  C   UNL d   1      28.385  15.453 -24.400  0.00  0.00     0.100 C 
ATOM     19  C   UNL d   1      28.366  16.275 -23.222  0.00  0.00     0.100 C 
ENDBRANCH  14  17
ENDBRANCH   1  11
TORSDOF 3
ENDMDL
MODEL 3
REMARK VINA RESULT:      -3.0      1.740      3.839
REMARK  3 active torsions:
REMARK  status: ('A' for Active; 'I' for Inactive)
REMARK    1  A    between atoms: C_7  and  C_1 
REMARK    2  A    between atoms: C_13  and  C_7 
REMARK    3  A    between atoms: N_12  and  C_11 
ROOT
ATOM      1  C   UNL d   1      32.391  17.052 -24.271  0.00  0.00     0.010 C 
ENDROOT
BRANCH   1   2
ATOM      2  C   UNL d   1      32.596  17.735 -23.904  0.00  0.00     0.116 A 
ATOM      3  C   UNL d   1      32.883  17.728 -23.131  0.00  0.00     0.288 A 
ATOM      4  N   UNL d   1      33.097  18.422 -22.746  0.00  0.00    -0.152 NA
ATOM      5  O   UNL d   1      32.959  17.006 -22.735  0.00  0.00    -0.265 OA
ATOM      6  C   UNL d   1      33.022  19.132 -23.135  0.00  0.00     0.374 A 
ATOM      7  N   UNL d   1      32.738  19.168 -23.904  0.00  0.00    -0.152 NA
ATOM      8  O   UNL d   1      33.241  19.838 -22.737  0.00  0.00    -0.242 OA
ATOM      9  C   UNL d   1      32.528  18.469 -24.282  0.00  0.00     0.288 A 
ATOM     10  O   UNL d   1      32.239  18.497 -25.063  0.00  0.00    -0.265 OA
ENDBRANCH   1   2
BRANCH   1  11
ATOM     11  C   UNL d   1      31.618  16.763 -24.208  0.00  0.00     0.000 A 
ATOM     12  C   UNL d   1      31.030  17.088 -24.646  0.00  0.00     0.002 A 
ATOM     13  C   UNL d   1      30.268  16.821 -24.600  0.00  0.00     0.018 A 
ATOM     14  C   UNL d   1      30.104  16.197 -24.084  0.00  0.00     0.064 A 
ATOM     15  C   UNL d   1      30.707  15.858 -23.629  0.00  0.00     0.018 A 
ATOM     16  C   UNL d   1      31.462  16.140 -23.690  0.00  0.00     0.002 A 
BRANCH  14  17
ATOM     17  N   UNL d   1      29.326  15.919 -24.032  0.00  0.00    -0.301 N 
ATOM     18  C   UNL d   1      28.879  16.094 -23.372  0.00  0.00     0.100 C 
ATOM     19  C   UNL d   1      29.023  15.467 -24.657  0.00  0.00     0.100 C 
ENDBRANCH  14  17
ENDBRANCH   1  11
TORSDOF 3
ENDMDL
MODEL 4
REMARK VINA RESULT:      -2.8      1.791      2.877
REMARK  3 active torsions:
REMARK  status: ('A' for Active; 'I' for Inactive)
REMARK    1  A    between atoms: C_7  and  C_1 
REMARK    2  A    between atoms: C_13  and  C_7 
REMARK    3  A    between atoms: N_12  and  C_11 
ROOT
ATOM      1  C   UNL d   1      33.137  18.098 -23.965  0.00  0.00     0.010 C 
ENDROOT
BRANCH   1   2
ATOM      2  C   UNL d   1      32.469  17.660 -24.044  0.00  0.00     0.116 A 
ATOM      3  C   UNL d   1      32.353  16.984 -23.585  0.00  0.00     0.288 A 
ATOM      4  N   UNL d   1      31.673  16.528 -23.657  0.00  0.00    -0.152 NA
ATOM      5  O   UNL d   1      32.934  16.761 -23.041  0.00  0.00    -0.265 OA
ATOM      6  C   UNL d   1      31.102  16.747 -24.193  0.00  0.00     0.374 A 
ATOM      7  N   UNL d   1      31.192  17.414 -24.661  0.00  0.00    -0.152 NA
ATOM      8  O   UNL d   1      30.409  16.277 -24.263  0.00  0.00    -0.242 OA
ATOM      9  C   UNL d   1      31.875  17.865 -24.583  0.00  0.00     0.288 A 
ATOM     10  O   UNL d   1      31.974  18.544 -25.055  0.00  0.00    -0.265 OA
ENDBRANCH   1   2
BRANCH   1  11
ATOM     11  C   UNL d   1      33.159  18.727 -23.429  0.00  0.00     0.000 A 
ATOM     12  C   UNL d   1      33.131  19.484 -23.694  0.00  0.00     0.002 A 
ATOM     13  C   UNL d   1      33.151  20.114 -23.188  0.00  0.00     0.018 A 
ATOM     14  C   UNL d   1      33.202  19.960 -22.378  0.00  0.00     0.064 A 
ATOM     15  C   UNL d   1      33.231  19.181 -22.097  0.00  0.00     0.018 A 
ATOM     16  C   UNL d   1      33.210  18.566 -22.621  0.00  0.00     0.002 A 
BRANCH  14  17
ATOM     17  N   UNL d   1      33.223  20.600 -21.853  0.00  0.00    -0.301 N 
ATOM     18  C   UNL d   1      33.227  20.463 -21.049  0.00  0.00     0.100 C 
ATOM     19  C   UNL d   1      33.241  21.368 -22.164  0.00  0.00     0.100 C 
ENDBRANCH  14  17
ENDBRANCH   1  11
TORSDOF 3
ENDMDL
MODEL 5
REMARK VINA RESULT:      -2.6      2.321      4.334
REMARK  3 active torsions:
REMARK  status: ('A' for Active; 'I' for Inactive)
REMARK    1  A    between atoms: C_7  and  C_1 
REMARK    2  A    between atoms: C_13  and  C_7 
REMARK    3  A    between atoms: N_12  and  C_11 
ROOT
ATOM      1  C   UNL d   1      33.241  18.536 -23.635  0.00  0.00     0.010 C 
ENDROOT
BRANCH   1   2
ATOM      2  C   UNL d   1      33.196  19.103 -23.070  0.00  0.00     0.116 A 
ATOM      3  C   UNL d   1      33.151  19.901 -23.276  0.00  0.00     0.288 A 
ATOM      4  N   UNL d   1      33.104  20.490 -22.705  0.00  0.00    -0.152 NA
ATOM      5  O   UNL d   1      33.153  20.111 -24.076  0.00  0.00    -0.265 OA
ATOM      6  C   UNL d   1      33.102  20.283 -21.919  0.00  0.00     0.374 A 
ATOM      7  N   UNL d   1      33.146  19.498 -21.686  0.00  0.00    -0.152 NA
ATOM      8  O   UNL d   1      33.055  20.889 -21.340  0.00  0.00    -0.242 OA
ATOM      9  C   UNL d   1      33.192  18.915 -22.263  0.00  0.00     0.288 A 
ATOM     10  O   UNL d   1      33.237  18.115 -22.034  0.00  0.00    -0.265 OA
ENDBRANCH   1   2
BRANCH   1  11
ATOM     11  C   UNL d   1      32.550  18.205 -23.946  0.00  0.00     0.000 A 
ATOM     12  C   UNL d   1      32.345  18.345 -24.709  0.00  0.00     0.002 A 
ATOM     13  C   UNL d   1      31.674  18.032 -25.034  0.00  0.00     0.018 A 
ATOM     14  C   UNL d   1      31.195  17.557 -24.557  0.00  0.00     0.064 A 
ATOM     15  C   UNL d   1      31.402  17.409 -23.768  0.00  0.00     0.018 A 
ATOM     16  C   UNL d   1      32.077  17.732 -23.464  0.00  0.00     0.002 A 
BRANCH  14  17
ATOM     17  N   UNL d   1      30.507  17.233 -24.883  0.00  0.00    -0.301 N 
ATOM     18  C   UNL d   1      30.492  16.445 -25.093  0.00  0.00     0.100 C 
ATOM     19  C   UNL d   1      29.847  17.724 -24.986  0.00  0.00     0.100 C 
ENDBRANCH  14  17
ENDBRANCH   1  11
TORSDOF 3
ENDMDL
MODEL 6
REMARK VINA RESULT:      -1.8      3.888      5.603
REMARK  3 active torsions:
REMARK  status: ('A' for Active; 'I' for Inactive)
REMARK    1  A    between atoms: C_7  and  C_1 
REMARK    2  A    between atoms: C_13  and  C_7 
REMARK    3  A    between atoms: N_12  and  C_11 
ROOT
ATOM      1  C   UNL d   1      33.240  21.265 -21.672  0.00  0.00     0.010 C 
ENDROOT
BRANCH   1   2
ATOM      2  C   UNL d   1      32.710  21.855 -21.551  0.00  0.00     0.116 A 
ATOM      3  C   UNL d   1      32.698  22.518 -22.041  0.00  0.00     0.288 A 
ATOM      4  N   UNL d   1      32.159  23.128 -21.926  0.00  0.00    -0.152 NA
ATOM      5  O   UNL d   1      33.240  22.570 -22.663  0.00  0.00    -0.265 OA
ATOM      6  C   UNL d   1      31.625  23.077 -21.315  0.00  0.00     0.374 A 
ATOM      7  N   UNL d   1      31.615  22.428 -20.812  0.00  0.00    -0.152 NA
ATOM      8  O   UNL d   1      31.077  23.702 -21.201  0.00  0.00    -0.242 OA
ATOM      9  C   UNL d   1      32.158  21.823 -20.934  0.00  0.00     0.288 A 
ATOM     10  O   UNL d   1      32.154  21.162 -20.427  0.00  0.00    -0.265 OA
ENDBRANCH   1   2
BRANCH   1  11
ATOM     11  C   UNL d   1      33.059  20.645 -22.188  0.00  0.00     0.000 A 
ATOM     12  C   UNL d   1      32.915  20.795 -22.963  0.00  0.00     0.002 A 
ATOM     13  C   UNL d   1      32.736  20.203 -23.485  0.00  0.00     0.018 A 
ATOM     14  C   UNL d   1      32.705  19.429 -23.200  0.00  0.00     0.064 A 
ATOM     15  C   UNL d   1      32.853  19.267 -22.401  0.00  0.00     0.018 A 
ATOM     16  C   UNL d   1      33.030  19.873 -21.896  0.00  0.00     0.002 A 
BRANCH  14  17
ATOM     17  N   UNL d   1      32.523  18.818 -23.728  0.00  0.00    -0.301 N 
ATOM     18  C   UNL d   1      32.009  18.227 -23.500  0.00  0.00     0.100 C 
ATOM     19  C   UNL d   1      32.871  18.827 -24.480  0.00  0.00     0.100 C 
ENDBRANCH  14  17
ENDBRANCH   1  11
TORSDOF 3
ENDMDL
