MODEL 1
REMARK VINA RESULT:      -7.4      0.000      0.000
REMARK  3 active torsions:
REMARK  status: ('A' for Active; 'I' for Inactive)
REMARK    1  A    between atoms: S_12  and  C_7 
REMARK    2  A    between atoms: C_10  and  C_13 
REMARK    3  A    between atoms: C_13  and  S_12 
ROOT
ATOM      1  N   UNL d   1     -47.147  11.413  23.410  0.00  0.00    -0.224 N 
ATOM      2  N   UNL d   1     -45.846  11.993  23.234  0.00  0.00    -0.241 N 
ATOM      3  C   UNL d   1     -46.318  11.352  23.447  0.00  0.00     0.343 A 
ATOM      4  C   UNL d   1     -46.205  12.702  22.980  0.00  0.00     0.160 A 
ATOM      5  C   UNL d   1     -47.498  12.115  23.159  0.00  0.00     0.273 A 
ATOM      6  C   UNL d   1     -47.027  12.763  22.943  0.00  0.00     0.115 A 
ATOM      7  C   UNL d   1     -47.378  13.457  22.695  0.00  0.00     0.120 A 
ATOM      8  N   UNL d   1     -45.733  13.347  22.765  0.00  0.00    -0.209 NA
ATOM      9  N   UNL d   1     -46.911  14.105  22.479  0.00  0.00    -0.220 NA
ATOM     10  C   UNL d   1     -46.085  14.048  22.515  0.00  0.00     0.165 A 
ATOM     11  O   UNL d   1     -45.966  10.651  23.698  0.00  0.00    -0.245 OA
ATOM     12  O   UNL d   1     -48.320  12.176  23.122  0.00  0.00    -0.266 OA
ATOM     13  C   UNL d   1     -47.610  10.773  23.624  0.00  0.00     0.107 C 
ATOM     14  C   UNL d   1     -45.024  11.940  23.268  0.00  0.00     0.105 C 
ATOM     15  C   UNL d   1     -45.618  14.690  22.301  0.00  0.00     0.042 C 
ENDROOT
BRANCH   7  16
ATOM     16  S   UNL d   1     -48.200  13.518  22.658  0.00  0.00    -0.067 SA
BRANCH  16  17
ATOM     17  C   UNL d   1     -48.557  14.239  22.476  0.00  0.00     0.040 C 
BRANCH  17  18
ATOM     18  C   UNL d   1     -49.376  14.288  22.386  0.00  0.00     0.045 A 
ATOM     19  C   UNL d   1     -49.836  14.598  23.000  0.00  0.00     0.060 A 
ATOM     20 CL   UNL d   1     -49.474  14.856  23.698  0.00  0.00    -0.082 Cl
ATOM     21  C   UNL d   1     -50.656  14.653  22.925  0.00  0.00     0.012 A 
ATOM     22  C   UNL d   1     -51.014  14.395  22.228  0.00  0.00     0.003 A 
ATOM     23  C   UNL d   1     -50.570  14.084  21.608  0.00  0.00     0.030 A 
ATOM     24  C   UNL d   1     -49.751  14.031  21.687  0.00  0.00     0.141 A 
ATOM     25  F   UNL d   1     -49.299  13.724  21.079  0.00  0.00    -0.204 F 
ENDBRANCH  17  18
ENDBRANCH  16  17
ENDBRANCH   7  16
TORSDOF 3
ENDMDL
MODEL 2
REMARK VINA RESULT:      -6.5      1.937      4.085
REMARK  3 active torsions:
REMARK  status: ('A' for Active; 'I' for Inactive)
REMARK    1  A    between atoms: S_12  and  C_7 
REMARK    2  A    between atoms: C_10  and  C_13 
REMARK    3  A    between atoms: C_13  and  S_12 
ROOT
ATOM      1  N   UNL d   1     -49.687  12.701  21.349  0.00  0.00    -0.224 N 
ATOM      2  N   UNL d   1     -50.329  13.908  21.788  0.00  0.00    -0.241 N 
ATOM      3  C   UNL d   1     -50.362  13.187  21.389  0.00  0.00     0.343 A 
ATOM      4  C   UNL d   1     -49.616  14.146  22.150  0.00  0.00     0.160 A 
ATOM      5  C   UNL d   1     -48.985  12.939  21.708  0.00  0.00     0.273 A 
ATOM      6  C   UNL d   1     -48.948  13.664  22.111  0.00  0.00     0.115 A 
ATOM      7  C   UNL d   1     -48.250  13.897  22.465  0.00  0.00     0.120 A 
ATOM      8  N   UNL d   1     -49.581  14.869  22.551  0.00  0.00    -0.209 NA
ATOM      9  N   UNL d   1     -48.209  14.619  22.868  0.00  0.00    -0.220 NA
ATOM     10  C   UNL d   1     -48.879  15.106  22.910  0.00  0.00     0.165 A 
ATOM     11  O   UNL d   1     -51.064  12.950  21.031  0.00  0.00    -0.245 OA
ATOM     12  O   UNL d   1     -48.317  12.458  21.668  0.00  0.00    -0.266 OA
ATOM     13  C   UNL d   1     -49.727  11.987  20.951  0.00  0.00     0.107 C 
ATOM     14  C   UNL d   1     -50.993  14.395  21.832  0.00  0.00     0.105 C 
ATOM     15  C   UNL d   1     -48.842  15.823  23.308  0.00  0.00     0.042 C 
ENDROOT
BRANCH   7  16
ATOM     16  S   UNL d   1     -47.582  13.415  22.425  0.00  0.00    -0.067 SA
BRANCH  16  17
ATOM     17  C   UNL d   1     -46.932  13.562  22.912  0.00  0.00     0.040 C 
BRANCH  17  18
ATOM     18  C   UNL d   1     -46.221  13.162  22.791  0.00  0.00     0.045 A 
ATOM     19  C   UNL d   1     -46.082  12.447  23.186  0.00  0.00     0.060 A 
ATOM     20 CL   UNL d   1     -46.656  12.141  23.697  0.00  0.00    -0.082 Cl
ATOM     21  C   UNL d   1     -45.376  12.036  23.075  0.00  0.00     0.012 A 
ATOM     22  C   UNL d   1     -44.807  12.344  22.564  0.00  0.00     0.003 A 
ATOM     23  C   UNL d   1     -44.929  13.054  22.164  0.00  0.00     0.030 A 
ATOM     24  C   UNL d   1     -45.637  13.463  22.278  0.00  0.00     0.141 A 
ATOM     25  F   UNL d   1     -45.771  14.168  21.887  0.00  0.00    -0.204 F 
ENDBRANCH  17  18
ENDBRANCH  16  17
ENDBRANCH   7  16
TORSDOF 3
ENDMDL
MODEL 3
REMARK VINA RESULT:      -5.6      1.262      2.223
REMARK  3 active torsions:
REMARK  status: ('A' for Active; 'I' for Inactive)
REMARK    1  A    between atoms: S_12  and  C_7 
REMARK    2  A    between atoms: C_10  and  C_13 
REMARK    3  A    between atoms: C_13  and  S_12 
ROOT
ATOM      1  N   UNL d   1     -46.206  13.260  22.786  0.00  0.00    -0.224 N 
ATOM      2  N   UNL d   1     -46.462  11.913  23.210  0.00  0.00    -0.241 N 
ATOM      3  C   UNL d   1     -45.929  12.502  22.990  0.00  0.00     0.343 A 
ATOM      4  C   UNL d   1     -47.279  12.081  23.227  0.00  0.00     0.160 A 
ATOM      5  C   UNL d   1     -47.014  13.423  22.804  0.00  0.00     0.273 A 
ATOM      6  C   UNL d   1     -47.553  12.833  23.025  0.00  0.00     0.115 A 
ATOM      7  C   UNL d   1     -48.353  12.998  23.042  0.00  0.00     0.120 A 
ATOM      8  N   UNL d   1     -47.815  11.491  23.448  0.00  0.00    -0.209 NA
ATOM      9  N   UNL d   1     -48.894  12.411  23.262  0.00  0.00    -0.220 NA
ATOM     10  C   UNL d   1     -48.622  11.655  23.466  0.00  0.00     0.165 A 
ATOM     11  O   UNL d   1     -45.123  12.338  22.973  0.00  0.00    -0.245 OA
ATOM     12  O   UNL d   1     -47.288  14.174  22.602  0.00  0.00    -0.266 OA
ATOM     13  C   UNL d   1     -45.672  13.841  22.568  0.00  0.00     0.107 C 
ATOM     14  C   UNL d   1     -46.195  11.159  23.414  0.00  0.00     0.105 C 
ATOM     15  C   UNL d   1     -49.156  11.071  23.685  0.00  0.00     0.042 C 
ENDROOT
BRANCH   7  16
ATOM     16  S   UNL d   1     -48.627  13.749  22.840  0.00  0.00    -0.067 SA
BRANCH  16  17
ATOM     17  C   UNL d   1     -49.356  13.839  22.463  0.00  0.00     0.040 C 
BRANCH  17  18
ATOM     18  C   UNL d   1     -49.841  14.482  22.643  0.00  0.00     0.045 A 
ATOM     19  C   UNL d   1     -50.565  14.569  22.250  0.00  0.00     0.060 A 
ATOM     20 CL   UNL d   1     -50.796  14.013  21.683  0.00  0.00    -0.082 Cl
ATOM     21  C   UNL d   1     -51.061  15.206  22.419  0.00  0.00     0.012 A 
ATOM     22  C   UNL d   1     -50.827  15.759  22.985  0.00  0.00     0.003 A 
ATOM     23  C   UNL d   1     -50.110  15.686  23.384  0.00  0.00     0.030 A 
ATOM     24  C   UNL d   1     -49.617  15.047  23.213  0.00  0.00     0.141 A 
ATOM     25  F   UNL d   1     -48.903  14.964  23.602  0.00  0.00    -0.204 F 
ENDBRANCH  17  18
ENDBRANCH  16  17
ENDBRANCH   7  16
TORSDOF 3
ENDMDL
MODEL 4
REMARK VINA RESULT:      -5.4      8.211      9.756
REMARK  3 active torsions:
REMARK  status: ('A' for Active; 'I' for Inactive)
REMARK    1  A    between atoms: S_12  and  C_7 
REMARK    2  A    between atoms: C_10  and  C_13 
REMARK    3  A    between atoms: C_13  and  S_12 
ROOT
ATOM      1  N   UNL d   1     -38.568  13.475  21.187  0.00  0.00    -0.224 N 
ATOM      2  N   UNL d   1     -39.634  14.188  21.831  0.00  0.00    -0.241 N 
ATOM      3  C   UNL d   1     -39.001  13.662  21.873  0.00  0.00     0.343 A 
ATOM      4  C   UNL d   1     -39.837  14.530  21.098  0.00  0.00     0.160 A 
ATOM      5  C   UNL d   1     -38.772  13.815  20.465  0.00  0.00     0.273 A 
ATOM      6  C   UNL d   1     -39.408  14.344  20.418  0.00  0.00     0.115 A 
ATOM      7  C   UNL d   1     -39.608  14.679  19.701  0.00  0.00     0.120 A 
ATOM      8  N   UNL d   1     -40.473  15.058  21.054  0.00  0.00    -0.209 NA
ATOM      9  N   UNL d   1     -40.242  15.208  19.651  0.00  0.00    -0.220 NA
ATOM     10  C   UNL d   1     -40.676  15.397  20.332  0.00  0.00     0.165 A 
ATOM     11  O   UNL d   1     -38.798  13.323  22.595  0.00  0.00    -0.245 OA
ATOM     12  O   UNL d   1     -38.343  13.629  19.785  0.00  0.00    -0.266 OA
ATOM     13  C   UNL d   1     -37.940  12.952  21.236  0.00  0.00     0.107 C 
ATOM     14  C   UNL d   1     -40.067  14.379  22.507  0.00  0.00     0.105 C 
ATOM     15  C   UNL d   1     -41.306  15.922  20.286  0.00  0.00     0.042 C 
ENDROOT
BRANCH   7  16
ATOM     16  S   UNL d   1     -39.179  14.494  19.021  0.00  0.00    -0.067 SA
BRANCH  16  17
ATOM     17  C   UNL d   1     -39.390  14.819  18.293  0.00  0.00     0.040 C 
BRANCH  17  18
ATOM     18  C   UNL d   1     -38.969  14.623  17.611  0.00  0.00     0.045 A 
ATOM     19  C   UNL d   1     -38.378  15.135  17.336  0.00  0.00     0.060 A 
ATOM     20 CL   UNL d   1     -38.216  15.836  17.745  0.00  0.00    -0.082 Cl
ATOM     21  C   UNL d   1     -37.948  14.953  16.655  0.00  0.00     0.012 A 
ATOM     22  C   UNL d   1     -38.113  14.254  16.250  0.00  0.00     0.003 A 
ATOM     23  C   UNL d   1     -38.697  13.735  16.511  0.00  0.00     0.030 A 
ATOM     24  C   UNL d   1     -39.125  13.920  17.192  0.00  0.00     0.141 A 
ATOM     25  F   UNL d   1     -39.707  13.413  17.462  0.00  0.00    -0.204 F 
ENDBRANCH  17  18
ENDBRANCH  16  17
ENDBRANCH   7  16
TORSDOF 3
ENDMDL
