MODEL 1
REMARK VINA RESULT:      12.9      0.000      0.000
REMARK  3 active torsions:
REMARK  status: ('A' for Active; 'I' for Inactive)
REMARK    1  A    between atoms: O_7  and  C_1 
REMARK    2  A    between atoms: C_12  and  O_7 
REMARK    3  A    between atoms: O_20  and  C_14 
ROOT
ATOM      1  C   UNL d   1      46.133 -17.649  44.134  0.00  0.00     0.163 A 
ATOM      2  C   UNL d   1      46.230 -18.452  44.208  0.00  0.00     0.222 A 
ATOM      3  C   UNL d   1      46.333 -18.908  43.535  0.00  0.00     0.064 A 
ATOM      4  C   UNL d   1      46.335 -18.539  42.790  0.00  0.00     0.106 A 
ATOM      5  C   UNL d   1      46.135 -17.301  43.430  0.00  0.00     0.150 A 
ATOM      6  O   UNL d   1      46.235 -17.727  42.743  0.00  0.00    -0.303 OA
ATOM      7  C   UNL d   1      46.434 -19.725  43.579  0.00  0.00     0.009 A 
ATOM      8  C   UNL d   1      46.438 -19.000  42.114  0.00  0.00     0.067 A 
ATOM      9  O   UNL d   1      46.228 -18.822  44.955  0.00  0.00    -0.284 OA
ATOM     10  C   UNL d   1      46.537 -19.818  42.185  0.00  0.00     0.198 A 
ATOM     11  C   UNL d   1      46.535 -20.167  42.890  0.00  0.00     0.042 A 
ATOM     12  O   UNL d   1      46.643 -20.300  41.507  0.00  0.00    -0.286 OA
ENDROOT
BRANCH   1  13
ATOM     13  O   UNL d   1      46.023 -17.157  44.848  0.00  0.00    -0.302 OA
BRANCH  13  14
ATOM     14  C   UNL d   1      45.823 -16.368  44.774  0.00  0.00     0.100 A 
ATOM     15  C   UNL d   1      46.391 -15.796  44.531  0.00  0.00     0.027 A 
ATOM     16  C   UNL d   1      46.184 -15.009  44.459  0.00  0.00     0.026 A 
ATOM     17  C   UNL d   1      45.390 -14.760  44.630  0.00  0.00     0.094 A 
ATOM     18  C   UNL d   1      44.822 -15.333  44.874  0.00  0.00     0.026 A 
ATOM     19  C   UNL d   1      45.050 -16.129  44.941  0.00  0.00     0.027 A 
BRANCH  17  20
ATOM     20  O   UNL d   1      45.141 -13.964  44.568  0.00  0.00    -0.328 OA
ATOM     21  C   UNL d   1      45.381 -13.372  44.018  0.00  0.00     0.181 C 
ENDBRANCH  17  20
ENDBRANCH  13  14
ENDBRANCH   1  13
TORSDOF 3
ENDMDL
