MODEL 1
REMARK VINA RESULT:      -7.8      0.000      0.000
REMARK  4 active torsions:
REMARK  status: ('A' for Active; 'I' for Inactive)
REMARK    1  A    between atoms: C_2  and  S_1 
REMARK    2  A    between atoms: N_3  and  S_1 
REMARK    3  A    between atoms: C_5  and  C_11 
REMARK    4  A    between atoms: O_20  and  C_8 
ROOT
ATOM      1  S   UNL d   1     -48.503  13.544  22.989  0.00  0.00     0.273 S 
ATOM      2  O   UNL d   1     -48.086  13.971  22.414  0.00  0.00    -0.200 OA
ATOM      3  O   UNL d   1     -48.925  13.120  23.564  0.00  0.00    -0.200 OA
ENDROOT
BRANCH   1   4
ATOM      4  C   UNL d   1     -49.146  14.041  22.873  0.00  0.00     0.128 A 
ATOM      5  C   UNL d   1     -49.223  14.730  23.318  0.00  0.00     0.044 A 
ATOM      6  C   UNL d   1     -49.869  15.230  23.200  0.00  0.00     0.141 A 
ATOM      7  F   UNL d   1     -49.944  15.921  23.648  0.00  0.00    -0.204 F 
ATOM      8  C   UNL d   1     -50.436  15.035  22.637  0.00  0.00     0.032 A 
ATOM      9  C   UNL d   1     -50.361  14.344  22.189  0.00  0.00     0.027 A 
ATOM     10  C   UNL d   1     -49.716  13.849  22.308  0.00  0.00     0.106 A 
BRANCH  10  11
ATOM     11  O   UNL d   1     -49.634  13.153  21.862  0.00  0.00    -0.327 OA
ATOM     12  C   UNL d   1     -50.196  12.968  21.282  0.00  0.00     0.181 C 
ENDBRANCH  10  11
ENDBRANCH   1   4
BRANCH   1  13
ATOM     13  N   UNL d   1     -47.855  13.043  23.107  0.00  0.00    -0.229 N 
ATOM     14  C   UNL d   1     -47.117  13.219  22.767  0.00  0.00     0.092 A 
ATOM     15  C   UNL d   1     -46.468  12.717  22.885  0.00  0.00     0.025 A 
ATOM     16  C   UNL d   1     -46.557  12.038  23.342  0.00  0.00     0.062 A 
ATOM     17  C   UNL d   1     -47.282  11.852  23.684  0.00  0.00     0.025 A 
ATOM     18  C   UNL d   1     -47.931  12.354  23.566  0.00  0.00     0.092 A 
BRANCH  16  19
ATOM     19  C   UNL d   1     -45.908  11.536  23.459  0.00  0.00     0.297 C 
ATOM     20  O   UNL d   1     -45.140  11.818  23.339  0.00  0.00    -0.264 OA
ATOM     21  N   UNL d   1     -46.022  10.748  23.698  0.00  0.00    -0.102 N 
ENDBRANCH  16  19
ENDBRANCH   1  13
TORSDOF 4
ENDMDL
MODEL 2
REMARK VINA RESULT:      -7.6      1.857      4.116
REMARK  4 active torsions:
REMARK  status: ('A' for Active; 'I' for Inactive)
REMARK    1  A    between atoms: C_2  and  S_1 
REMARK    2  A    between atoms: N_3  and  S_1 
REMARK    3  A    between atoms: C_5  and  C_11 
REMARK    4  A    between atoms: O_20  and  C_8 
ROOT
ATOM      1  S   UNL d   1     -47.670  13.619  22.586  0.00  0.00     0.273 S 
ATOM      2  O   UNL d   1     -47.475  14.047  23.269  0.00  0.00    -0.200 OA
ATOM      3  O   UNL d   1     -47.861  13.189  21.903  0.00  0.00    -0.200 OA
ENDROOT
BRANCH   1   4
ATOM      4  C   UNL d   1     -46.929  13.268  22.610  0.00  0.00     0.128 A 
ATOM      5  C   UNL d   1     -46.283  13.640  22.261  0.00  0.00     0.044 A 
ATOM      6  C   UNL d   1     -45.537  13.287  22.285  0.00  0.00     0.141 A 
ATOM      7  F   UNL d   1     -44.890  13.663  21.934  0.00  0.00    -0.204 F 
ATOM      8  C   UNL d   1     -45.444  12.561  22.661  0.00  0.00     0.032 A 
ATOM      9  C   UNL d   1     -46.092  12.185  23.012  0.00  0.00     0.027 A 
ATOM     10  C   UNL d   1     -46.832  12.540  22.986  0.00  0.00     0.106 A 
BRANCH  10  11
ATOM     11  O   UNL d   1     -47.488  12.169  23.336  0.00  0.00    -0.327 OA
ATOM     12  C   UNL d   1     -47.396  11.428  23.697  0.00  0.00     0.181 C 
ENDBRANCH  10  11
ENDBRANCH   1   4
BRANCH   1  13
ATOM     13  N   UNL d   1     -48.418  13.974  22.561  0.00  0.00    -0.229 N 
ATOM     14  C   UNL d   1     -48.616  14.581  23.094  0.00  0.00     0.092 A 
ATOM     15  C   UNL d   1     -49.365  14.936  23.069  0.00  0.00     0.025 A 
ATOM     16  C   UNL d   1     -49.916  14.684  22.513  0.00  0.00     0.062 A 
ATOM     17  C   UNL d   1     -49.733  14.083  21.980  0.00  0.00     0.025 A 
ATOM     18  C   UNL d   1     -48.985  13.729  22.004  0.00  0.00     0.092 A 
BRANCH  16  19
ATOM     19  C   UNL d   1     -50.665  15.039  22.488  0.00  0.00     0.297 C 
ATOM     20  O   UNL d   1     -51.023  15.199  21.760  0.00  0.00    -0.264 OA
ATOM     21  N   UNL d   1     -51.061  15.236  23.191  0.00  0.00    -0.102 N 
ENDBRANCH  16  19
ENDBRANCH   1  13
TORSDOF 4
ENDMDL
MODEL 3
REMARK VINA RESULT:      -7.2      1.676      2.093
REMARK  4 active torsions:
REMARK  status: ('A' for Active; 'I' for Inactive)
REMARK    1  A    between atoms: C_2  and  S_1 
REMARK    2  A    between atoms: N_3  and  S_1 
REMARK    3  A    between atoms: C_5  and  C_11 
REMARK    4  A    between atoms: O_20  and  C_8 
ROOT
ATOM      1  S   UNL d   1     -48.651  13.030  22.888  0.00  0.00     0.273 S 
ATOM      2  O   UNL d   1     -48.827  13.081  22.080  0.00  0.00    -0.200 OA
ATOM      3  O   UNL d   1     -48.480  12.978  23.698  0.00  0.00    -0.200 OA
ENDROOT
BRANCH   1   4
ATOM      4  C   UNL d   1     -49.454  12.967  23.046  0.00  0.00     0.128 A 
ATOM      5  C   UNL d   1     -49.813  12.227  23.079  0.00  0.00     0.044 A 
ATOM      6  C   UNL d   1     -50.620  12.164  23.237  0.00  0.00     0.141 A 
ATOM      7  F   UNL d   1     -50.979  11.420  23.270  0.00  0.00    -0.204 F 
ATOM      8  C   UNL d   1     -51.064  12.846  23.361  0.00  0.00     0.032 A 
ATOM      9  C   UNL d   1     -50.705  13.591  23.328  0.00  0.00     0.027 A 
ATOM     10  C   UNL d   1     -49.902  13.649  23.171  0.00  0.00     0.106 A 
BRANCH  10  11
ATOM     11  O   UNL d   1     -49.534  14.393  23.136  0.00  0.00    -0.327 OA
ATOM     12  C   UNL d   1     -49.985  15.079  23.252  0.00  0.00     0.181 C 
ENDBRANCH  10  11
ENDBRANCH   1   4
BRANCH   1  13
ATOM     13  N   UNL d   1     -47.841  13.093  22.729  0.00  0.00    -0.229 N 
ATOM     14  C   UNL d   1     -47.282  13.015  23.341  0.00  0.00     0.092 A 
ATOM     15  C   UNL d   1     -46.471  13.078  23.182  0.00  0.00     0.025 A 
ATOM     16  C   UNL d   1     -46.218  13.219  22.412  0.00  0.00     0.062 A 
ATOM     17  C   UNL d   1     -46.760  13.298  21.797  0.00  0.00     0.025 A 
ATOM     18  C   UNL d   1     -47.571  13.235  21.956  0.00  0.00     0.092 A 
BRANCH  16  19
ATOM     19  C   UNL d   1     -45.407  13.282  22.253  0.00  0.00     0.297 C 
ATOM     20  O   UNL d   1     -45.036  14.021  22.282  0.00  0.00    -0.264 OA
ATOM     21  N   UNL d   1     -44.961  12.607  22.063  0.00  0.00    -0.102 N 
ENDBRANCH  16  19
ENDBRANCH   1  13
TORSDOF 4
ENDMDL
MODEL 4
REMARK VINA RESULT:      -5.3      8.764     10.199
REMARK  4 active torsions:
REMARK  status: ('A' for Active; 'I' for Inactive)
REMARK    1  A    between atoms: C_2  and  S_1 
REMARK    2  A    between atoms: N_3  and  S_1 
REMARK    3  A    between atoms: C_5  and  C_11 
REMARK    4  A    between atoms: O_20  and  C_8 
ROOT
ATOM      1  S   UNL d   1     -39.700  15.121  19.199  0.00  0.00     0.273 S 
ATOM      2  O   UNL d   1     -39.577  14.375  19.539  0.00  0.00    -0.200 OA
ATOM      3  O   UNL d   1     -39.824  15.869  18.864  0.00  0.00    -0.200 OA
ENDROOT
BRANCH   1   4
ATOM      4  C   UNL d   1     -39.989  15.387  19.920  0.00  0.00     0.128 A 
ATOM      5  C   UNL d   1     -40.800  15.386  20.066  0.00  0.00     0.044 A 
ATOM      6  C   UNL d   1     -41.091  15.653  20.790  0.00  0.00     0.141 A 
ATOM      7  F   UNL d   1     -41.906  15.651  20.935  0.00  0.00    -0.204 F 
ATOM      8  C   UNL d   1     -40.567  15.920  21.365  0.00  0.00     0.032 A 
ATOM      9  C   UNL d   1     -39.752  15.922  21.220  0.00  0.00     0.027 A 
ATOM     10  C   UNL d   1     -39.466  15.655  20.499  0.00  0.00     0.106 A 
BRANCH  10  11
ATOM     11  O   UNL d   1     -38.650  15.654  20.346  0.00  0.00    -0.327 OA
ATOM     12  C   UNL d   1     -38.122  15.918  20.929  0.00  0.00     0.181 C 
ENDBRANCH  10  11
ENDBRANCH   1   4
BRANCH   1  13
ATOM     13  N   UNL d   1     -39.407  14.853  18.473  0.00  0.00    -0.229 N 
ATOM     14  C   UNL d   1     -39.282  14.041  18.341  0.00  0.00     0.092 A 
ATOM     15  C   UNL d   1     -38.989  13.773  17.613  0.00  0.00     0.025 A 
ATOM     16  C   UNL d   1     -38.822  14.316  17.017  0.00  0.00     0.062 A 
ATOM     17  C   UNL d   1     -38.941  15.122  17.134  0.00  0.00     0.025 A 
ATOM     18  C   UNL d   1     -39.234  15.390  17.862  0.00  0.00     0.092 A 
BRANCH  16  19
ATOM     19  C   UNL d   1     -38.529  14.048  16.290  0.00  0.00     0.297 C 
ATOM     20  O   UNL d   1     -38.649  14.496  15.605  0.00  0.00    -0.264 OA
ATOM     21  N   UNL d   1     -38.115  13.329  16.241  0.00  0.00    -0.102 N 
ENDBRANCH  16  19
ENDBRANCH   1  13
TORSDOF 4
ENDMDL
