MODEL 1
REMARK VINA RESULT:      -4.4      0.000      0.000
REMARK  4 active torsions:
REMARK  status: ('A' for Active; 'I' for Inactive)
REMARK    1  A    between atoms: C_30  and  N_11 
REMARK    2  A    between atoms: C_29  and  N_12 
REMARK    3  A    between atoms: C_16  and  C_13 
REMARK    4  A    between atoms: C_15  and  C_14 
ROOT
ATOM      1  N   UNL d   1     -48.334  12.752  23.013  0.00  0.00    -0.240 N 
ATOM      2  N   UNL d   1     -47.939  13.499  22.843  0.00  0.00    -0.240 N 
ATOM      3  C   UNL d   1     -47.738  12.180  23.195  0.00  0.00     0.144 A 
ATOM      4  C   UNL d   1     -48.535  14.071  22.662  0.00  0.00     0.144 A 
ATOM      5  C   UNL d   1     -49.309  13.687  22.716  0.00  0.00     0.097 A 
ATOM      6  C   UNL d   1     -46.975  12.568  23.139  0.00  0.00     0.097 A 
ATOM      7  C   UNL d   1     -47.601  11.370  23.411  0.00  0.00     0.285 A 
ATOM      8  C   UNL d   1     -48.653  14.887  22.445  0.00  0.00     0.285 A 
ATOM      9  C   UNL d   1     -46.376  11.993  23.321  0.00  0.00     0.270 A 
ATOM     10  C   UNL d   1     -49.901  14.274  22.531  0.00  0.00     0.270 A 
ATOM     11  N   UNL d   1     -49.500  15.015  22.363  0.00  0.00    -0.239 N 
ATOM     12  N   UNL d   1     -46.770  11.252  23.490  0.00  0.00    -0.239 N 
ATOM     13  C   UNL d   1     -49.175  12.879  22.932  0.00  0.00     0.094 A 
ATOM     14  C   UNL d   1     -47.106  13.372  22.924  0.00  0.00     0.094 A 
ATOM     15  O   UNL d   1     -48.076  15.448  22.334  0.00  0.00    -0.265 OA
ATOM     16  O   UNL d   1     -50.705  14.156  22.515  0.00  0.00    -0.266 OA
ATOM     17  O   UNL d   1     -45.572  12.118  23.336  0.00  0.00    -0.266 OA
ATOM     18  O   UNL d   1     -48.178  10.804  23.524  0.00  0.00    -0.265 OA
ENDROOT
BRANCH  13  19
ATOM     19  C   UNL d   1     -49.759  12.320  23.042  0.00  0.00     0.047 A 
ATOM     20  S   UNL d   1     -50.237  12.264  23.697  0.00  0.00    -0.085 SA
ATOM     21  C   UNL d   1     -50.734  11.634  23.577  0.00  0.00     0.035 A 
ATOM     22  C   UNL d   1     -50.560  11.305  22.851  0.00  0.00     0.007 A 
ATOM     23  C   UNL d   1     -49.953  11.739  22.529  0.00  0.00     0.009 A 
ENDBRANCH  13  19
BRANCH  11  24
ATOM     24  C   UNL d   1     -49.859  15.715  22.162  0.00  0.00     0.086 C 
ATOM     25  C   UNL d   1     -50.635  15.864  22.403  0.00  0.00     0.021 C 
ENDBRANCH  11  24
BRANCH  14  26
ATOM     26  C   UNL d   1     -46.536  13.931  22.813  0.00  0.00     0.047 A 
ATOM     27  S   UNL d   1     -46.050  13.992  22.160  0.00  0.00    -0.085 SA
ATOM     28  C   UNL d   1     -45.566  14.622  22.276  0.00  0.00     0.035 A 
ATOM     29  C   UNL d   1     -45.748  14.950  22.991  0.00  0.00     0.007 A 
ATOM     30  C   UNL d   1     -46.345  14.524  23.321  0.00  0.00     0.009 A 
ENDBRANCH  14  26
BRANCH  12  31
ATOM     31  C   UNL d   1     -46.399  10.553  23.691  0.00  0.00     0.086 C 
ATOM     32  C   UNL d   1     -45.588  10.466  23.564  0.00  0.00     0.021 C 
ENDBRANCH  12  31
TORSDOF 4
ENDMDL
MODEL 2
REMARK VINA RESULT:      -4.4      7.749     10.087
REMARK  4 active torsions:
REMARK  status: ('A' for Active; 'I' for Inactive)
REMARK    1  A    between atoms: C_30  and  N_11 
REMARK    2  A    between atoms: C_29  and  N_12 
REMARK    3  A    between atoms: C_16  and  C_13 
REMARK    4  A    between atoms: C_15  and  C_14 
ROOT
ATOM      1  N   UNL d   1     -40.355  14.837  18.670  0.00  0.00    -0.240 N 
ATOM      2  N   UNL d   1     -39.642  14.442  18.388  0.00  0.00    -0.240 N 
ATOM      3  C   UNL d   1     -40.780  15.116  17.995  0.00  0.00     0.144 A 
ATOM      4  C   UNL d   1     -39.217  14.163  19.063  0.00  0.00     0.144 A 
ATOM      5  C   UNL d   1     -39.660  14.380  19.774  0.00  0.00     0.097 A 
ATOM      6  C   UNL d   1     -40.337  14.897  17.295  0.00  0.00     0.097 A 
ATOM      7  C   UNL d   1     -41.478  15.530  17.740  0.00  0.00     0.285 A 
ATOM      8  C   UNL d   1     -38.512  13.745  19.300  0.00  0.00     0.285 A 
ATOM      9  C   UNL d   1     -40.764  15.178  16.616  0.00  0.00     0.270 A 
ATOM     10  C   UNL d   1     -39.220  14.092  20.449  0.00  0.00     0.270 A 
ATOM     11  N   UNL d   1     -38.512  13.701  20.159  0.00  0.00    -0.239 N 
ATOM     12  N   UNL d   1     -41.471  15.570  16.899  0.00  0.00    -0.239 N 
ATOM     13  C   UNL d   1     -40.354  14.792  19.524  0.00  0.00     0.094 A 
ATOM     14  C   UNL d   1     -39.644  14.486  17.542  0.00  0.00     0.094 A 
ATOM     15  O   UNL d   1     -37.940  13.442  18.809  0.00  0.00    -0.265 OA
ATOM     16  O   UNL d   1     -39.431  14.174  21.229  0.00  0.00    -0.266 OA
ATOM     17  O   UNL d   1     -40.547  15.093  15.836  0.00  0.00    -0.266 OA
ATOM     18  O   UNL d   1     -42.054  15.836  18.230  0.00  0.00    -0.265 OA
ENDROOT
BRANCH  13  19
ATOM     19  C   UNL d   1     -40.926  15.095  20.021  0.00  0.00     0.047 A 
ATOM     20  S   UNL d   1     -40.952  15.859  20.295  0.00  0.00    -0.085 SA
ATOM     21  C   UNL d   1     -41.607  15.922  20.768  0.00  0.00     0.035 A 
ATOM     22  C   UNL d   1     -41.983  15.197  20.785  0.00  0.00     0.007 A 
ATOM     23  C   UNL d   1     -41.550  14.693  20.317  0.00  0.00     0.009 A 
ENDBRANCH  13  19
BRANCH  11  24
ATOM     24  C   UNL d   1     -37.942  13.350  20.618  0.00  0.00     0.086 C 
ATOM     25  C   UNL d   1     -38.075  12.600  20.938  0.00  0.00     0.021 C 
ENDBRANCH  11  24
BRANCH  14  26
ATOM     26  C   UNL d   1     -39.074  14.184  17.058  0.00  0.00     0.047 A 
ATOM     27  S   UNL d   1     -39.033  13.412  16.796  0.00  0.00    -0.085 SA
ATOM     28  C   UNL d   1     -38.382  13.350  16.330  0.00  0.00     0.035 A 
ATOM     29  C   UNL d   1     -38.024  14.072  16.301  0.00  0.00     0.007 A 
ATOM     30  C   UNL d   1     -38.450  14.586  16.750  0.00  0.00     0.009 A 
ENDBRANCH  14  26
BRANCH  12  31
ATOM     31  C   UNL d   1     -42.039  15.920  16.427  0.00  0.00     0.086 C 
ATOM     32  C   UNL d   1     -42.282  15.550  15.731  0.00  0.00     0.021 C 
ENDBRANCH  12  31
TORSDOF 4
ENDMDL
MODEL 3
REMARK VINA RESULT:      -4.3      0.287      4.714
REMARK  4 active torsions:
REMARK  status: ('A' for Active; 'I' for Inactive)
REMARK    1  A    between atoms: C_30  and  N_11 
REMARK    2  A    between atoms: C_29  and  N_12 
REMARK    3  A    between atoms: C_16  and  C_13 
REMARK    4  A    between atoms: C_15  and  C_14 
ROOT
ATOM      1  N   UNL d   1     -47.706  13.375  22.749  0.00  0.00    -0.240 N 
ATOM      2  N   UNL d   1     -48.106  12.637  22.951  0.00  0.00    -0.240 N 
ATOM      3  C   UNL d   1     -48.298  13.944  22.552  0.00  0.00     0.144 A 
ATOM      4  C   UNL d   1     -47.513  12.068  23.147  0.00  0.00     0.144 A 
ATOM      5  C   UNL d   1     -46.737  12.442  23.071  0.00  0.00     0.097 A 
ATOM      6  C   UNL d   1     -49.064  13.567  22.630  0.00  0.00     0.097 A 
ATOM      7  C   UNL d   1     -48.430  14.747  22.307  0.00  0.00     0.285 A 
ATOM      8  C   UNL d   1     -47.400  11.259  23.394  0.00  0.00     0.285 A 
ATOM      9  C   UNL d   1     -49.660  14.140  22.433  0.00  0.00     0.270 A 
ATOM     10  C   UNL d   1     -46.147  11.856  23.272  0.00  0.00     0.270 A 
ATOM     11  N   UNL d   1     -46.554  11.126  23.471  0.00  0.00    -0.239 N 
ATOM     12  N   UNL d   1     -49.261  14.870  22.233  0.00  0.00    -0.239 N 
ATOM     13  C   UNL d   1     -46.865  13.242  22.826  0.00  0.00     0.094 A 
ATOM     14  C   UNL d   1     -48.939  12.770  22.874  0.00  0.00     0.094 A 
ATOM     15  O   UNL d   1     -47.981  10.708  23.532  0.00  0.00    -0.265 OA
ATOM     16  O   UNL d   1     -45.343  11.967  23.275  0.00  0.00    -0.266 OA
ATOM     17  O   UNL d   1     -50.465  14.022  22.431  0.00  0.00    -0.266 OA
ATOM     18  O   UNL d   1     -47.849  15.303  22.167  0.00  0.00    -0.265 OA
ENDROOT
BRANCH  13  19
ATOM     19  C   UNL d   1     -46.278  13.792  22.689  0.00  0.00     0.047 A 
ATOM     20  S   UNL d   1     -45.763  13.780  22.061  0.00  0.00    -0.085 SA
ATOM     21  C   UNL d   1     -45.276  14.424  22.139  0.00  0.00     0.035 A 
ATOM     22  C   UNL d   1     -45.491  14.829  22.814  0.00  0.00     0.007 A 
ATOM     23  C   UNL d   1     -46.114  14.426  23.146  0.00  0.00     0.009 A 
ENDBRANCH  13  19
BRANCH  11  24
ATOM     24  C   UNL d   1     -46.199  10.431  23.695  0.00  0.00     0.086 C 
ATOM     25  C   UNL d   1     -45.376  10.366  23.683  0.00  0.00     0.021 C 
ENDBRANCH  11  24
BRANCH  14  26
ATOM     26  C   UNL d   1     -49.513  12.221  23.011  0.00  0.00     0.047 A 
ATOM     27  S   UNL d   1     -49.948  12.150  23.698  0.00  0.00    -0.085 SA
ATOM     28  C   UNL d   1     -50.455  11.534  23.600  0.00  0.00     0.035 A 
ATOM     29  C   UNL d   1     -50.337  11.226  22.864  0.00  0.00     0.007 A 
ATOM     30  C   UNL d   1     -49.757  11.649  22.501  0.00  0.00     0.009 A 
ENDBRANCH  14  26
BRANCH  12  31
ATOM     31  C   UNL d   1     -49.628  15.565  22.009  0.00  0.00     0.086 C 
ATOM     32  C   UNL d   1     -50.392  15.730  22.274  0.00  0.00     0.021 C 
ENDBRANCH  12  31
TORSDOF 4
ENDMDL
MODEL 4
REMARK VINA RESULT:      -3.6      7.896      9.663
REMARK  4 active torsions:
REMARK  status: ('A' for Active; 'I' for Inactive)
REMARK    1  A    between atoms: C_30  and  N_11 
REMARK    2  A    between atoms: C_29  and  N_12 
REMARK    3  A    between atoms: C_16  and  C_13 
REMARK    4  A    between atoms: C_15  and  C_14 
ROOT
ATOM      1  N   UNL d   1     -39.461  14.179  18.979  0.00  0.00    -0.240 N 
ATOM      2  N   UNL d   1     -40.112  14.689  19.224  0.00  0.00    -0.240 N 
ATOM      3  C   UNL d   1     -39.096  13.872  19.677  0.00  0.00     0.144 A 
ATOM      4  C   UNL d   1     -40.477  14.996  18.526  0.00  0.00     0.144 A 
ATOM      5  C   UNL d   1     -40.059  14.680  17.837  0.00  0.00     0.097 A 
ATOM      6  C   UNL d   1     -39.516  14.189  20.355  0.00  0.00     0.097 A 
ATOM      7  C   UNL d   1     -38.475  13.372  19.969  0.00  0.00     0.285 A 
ATOM      8  C   UNL d   1     -41.107  15.502  18.252  0.00  0.00     0.285 A 
ATOM      9  C   UNL d   1     -39.148  13.881  21.057  0.00  0.00     0.270 A 
ATOM     10  C   UNL d   1     -40.437  14.997  17.139  0.00  0.00     0.270 A 
ATOM     11  N   UNL d   1     -41.083  15.504  17.391  0.00  0.00    -0.239 N 
ATOM     12  N   UNL d   1     -38.503  13.375  20.811  0.00  0.00    -0.239 N 
ATOM     13  C   UNL d   1     -39.439  14.181  18.124  0.00  0.00     0.094 A 
ATOM     14  C   UNL d   1     -40.134  14.687  20.071  0.00  0.00     0.094 A 
ATOM     15  O   UNL d   1     -41.635  15.911  18.713  0.00  0.00    -0.265 OA
ATOM     16  O   UNL d   1     -40.226  14.847  16.369  0.00  0.00    -0.266 OA
ATOM     17  O   UNL d   1     -39.365  14.036  21.825  0.00  0.00    -0.266 OA
ATOM     18  O   UNL d   1     -37.941  12.959  19.509  0.00  0.00    -0.265 OA
ENDROOT
BRANCH  13  19
ATOM     19  C   UNL d   1     -38.910  13.772  17.657  0.00  0.00     0.047 A 
ATOM     20  S   UNL d   1     -38.343  14.110  17.185  0.00  0.00    -0.085 SA
ATOM     21  C   UNL d   1     -37.942  13.506  16.821  0.00  0.00     0.035 A 
ATOM     22  C   UNL d   1     -38.264  12.798  17.070  0.00  0.00     0.007 A 
ATOM     23  C   UNL d   1     -38.864  12.977  17.588  0.00  0.00     0.009 A 
ENDBRANCH  13  19
BRANCH  11  24
ATOM     24  C   UNL d   1     -41.585  15.913  16.902  0.00  0.00     0.086 C 
ATOM     25  C   UNL d   1     -42.059  15.505  16.363  0.00  0.00     0.021 C 
ENDBRANCH  11  24
BRANCH  14  26
ATOM     26  C   UNL d   1     -40.660  15.094  20.525  0.00  0.00     0.047 A 
ATOM     27  S   UNL d   1     -40.470  15.655  21.086  0.00  0.00    -0.085 SA
ATOM     28  C   UNL d   1     -41.158  15.920  21.406  0.00  0.00     0.035 A 
ATOM     29  C   UNL d   1     -41.767  15.530  21.049  0.00  0.00     0.007 A 
ATOM     30  C   UNL d   1     -41.461  15.022  20.506  0.00  0.00     0.009 A 
ENDBRANCH  14  26
BRANCH  12  31
ATOM     31  C   UNL d   1     -38.004  12.967  21.313  0.00  0.00     0.086 C 
ATOM     32  C   UNL d   1     -38.171  12.183  21.512  0.00  0.00     0.021 C 
ENDBRANCH  12  31
TORSDOF 4
ENDMDL
MODEL 5
REMARK VINA RESULT:      -3.6      0.472      3.508
REMARK  4 active torsions:
REMARK  status: ('A' for Active; 'I' for Inactive)
REMARK    1  A    between atoms: C_30  and  N_11 
REMARK    2  A    between atoms: C_29  and  N_12 
REMARK    3  A    between atoms: C_16  and  C_13 
REMARK    4  A    between atoms: C_15  and  C_14 
ROOT
ATOM      1  N   UNL d   1     -48.454  13.103  22.899  0.00  0.00    -0.240 N 
ATOM      2  N   UNL d   1     -47.597  13.166  22.968  0.00  0.00    -0.240 N 
ATOM      3  C   UNL d   1     -48.755  13.868  22.702  0.00  0.00     0.144 A 
ATOM      4  C   UNL d   1     -47.296  12.402  23.165  0.00  0.00     0.144 A 
ATOM      5  C   UNL d   1     -47.962  11.852  23.222  0.00  0.00     0.097 A 
ATOM      6  C   UNL d   1     -48.091  14.407  22.648  0.00  0.00     0.097 A 
ATOM      7  C   UNL d   1     -49.462  14.311  22.537  0.00  0.00     0.285 A 
ATOM      8  C   UNL d   1     -46.577  11.973  23.329  0.00  0.00     0.285 A 
ATOM      9  C   UNL d   1     -48.393  15.176  22.449  0.00  0.00     0.270 A 
ATOM     10  C   UNL d   1     -47.645  11.083  23.421  0.00  0.00     0.270 A 
ATOM     11  N   UNL d   1     -46.791  11.155  23.488  0.00  0.00    -0.239 N 
ATOM     12  N   UNL d   1     -49.244  15.110  22.382  0.00  0.00    -0.239 N 
ATOM     13  C   UNL d   1     -48.667  12.290  23.058  0.00  0.00     0.094 A 
ATOM     14  C   UNL d   1     -47.388  13.972  22.811  0.00  0.00     0.094 A 
ATOM     15  O   UNL d   1     -45.823  12.276  23.335  0.00  0.00    -0.265 OA
ATOM     16  O   UNL d   1     -48.073  10.401  23.530  0.00  0.00    -0.266 OA
ATOM     17  O   UNL d   1     -47.959  15.855  22.342  0.00  0.00    -0.266 OA
ATOM     18  O   UNL d   1     -50.220  14.011  22.530  0.00  0.00    -0.265 OA
ENDROOT
BRANCH  13  19
ATOM     19  C   UNL d   1     -49.422  11.982  23.053  0.00  0.00     0.047 A 
ATOM     20  S   UNL d   1     -49.850  11.800  22.387  0.00  0.00    -0.085 SA
ATOM     21  C   UNL d   1     -50.566  11.510  22.634  0.00  0.00     0.035 A 
ATOM     22  C   UNL d   1     -50.577  11.515  23.450  0.00  0.00     0.007 A 
ATOM     23  C   UNL d   1     -49.862  11.810  23.698  0.00  0.00     0.009 A 
ENDBRANCH  13  19
BRANCH  11  24
ATOM     24  C   UNL d   1     -46.276  10.555  23.669  0.00  0.00     0.086 C 
ATOM     25  C   UNL d   1     -45.475  10.628  23.482  0.00  0.00     0.021 C 
ENDBRANCH  11  24
BRANCH  14  26
ATOM     26  C   UNL d   1     -46.638  14.268  22.818  0.00  0.00     0.047 A 
ATOM     27  S   UNL d   1     -46.146  14.333  22.170  0.00  0.00    -0.085 SA
ATOM     28  C   UNL d   1     -45.455  14.655  22.423  0.00  0.00     0.035 A 
ATOM     29  C   UNL d   1     -45.516  14.790  23.216  0.00  0.00     0.007 A 
ATOM     30  C   UNL d   1     -46.244  14.552  23.459  0.00  0.00     0.009 A 
ENDBRANCH  14  26
BRANCH  12  31
ATOM     31  C   UNL d   1     -49.753  15.722  22.198  0.00  0.00     0.086 C 
ATOM     32  C   UNL d   1     -50.494  15.764  22.561  0.00  0.00     0.021 C 
ENDBRANCH  12  31
TORSDOF 4
ENDMDL
MODEL 6
REMARK VINA RESULT:      -3.3      7.561      9.702
REMARK  4 active torsions:
REMARK  status: ('A' for Active; 'I' for Inactive)
REMARK    1  A    between atoms: C_30  and  N_11 
REMARK    2  A    between atoms: C_29  and  N_12 
REMARK    3  A    between atoms: C_16  and  C_13 
REMARK    4  A    between atoms: C_15  and  C_14 
ROOT
ATOM      1  N   UNL d   1     -39.395  13.931  19.310  0.00  0.00    -0.240 N 
ATOM      2  N   UNL d   1     -39.989  14.481  19.013  0.00  0.00    -0.240 N 
ATOM      3  C   UNL d   1     -39.026  13.566  18.643  0.00  0.00     0.144 A 
ATOM      4  C   UNL d   1     -40.359  14.847  19.680  0.00  0.00     0.144 A 
ATOM      5  C   UNL d   1     -40.000  14.529  20.400  0.00  0.00     0.097 A 
ATOM      6  C   UNL d   1     -39.386  13.885  17.934  0.00  0.00     0.097 A 
ATOM      7  C   UNL d   1     -38.435  13.004  18.402  0.00  0.00     0.285 A 
ATOM      8  C   UNL d   1     -40.956  15.414  19.902  0.00  0.00     0.285 A 
ATOM      9  C   UNL d   1     -39.015  13.518  17.263  0.00  0.00     0.270 A 
ATOM     10  C   UNL d   1     -40.382  14.906  21.066  0.00  0.00     0.270 A 
ATOM     11  N   UNL d   1     -40.971  15.452  20.762  0.00  0.00    -0.239 N 
ATOM     12  N   UNL d   1     -38.426  12.972  17.560  0.00  0.00    -0.239 N 
ATOM     13  C   UNL d   1     -39.411  13.969  20.164  0.00  0.00     0.094 A 
ATOM     14  C   UNL d   1     -39.973  14.443  18.167  0.00  0.00     0.094 A 
ATOM     15  O   UNL d   1     -41.428  15.844  19.400  0.00  0.00    -0.265 OA
ATOM     16  O   UNL d   1     -40.218  14.773  21.851  0.00  0.00    -0.266 OA
ATOM     17  O   UNL d   1     -39.184  13.655  16.479  0.00  0.00    -0.266 OA
ATOM     18  O   UNL d   1     -37.959  12.570  18.904  0.00  0.00    -0.265 OA
ENDROOT
BRANCH  13  19
ATOM     19  C   UNL d   1     -38.939  13.540  20.672  0.00  0.00     0.047 A 
ATOM     20  S   UNL d   1     -38.215  13.777  20.953  0.00  0.00    -0.085 SA
ATOM     21  C   UNL d   1     -37.941  13.188  21.438  0.00  0.00     0.035 A 
ATOM     22  C   UNL d   1     -38.496  12.590  21.454  0.00  0.00     0.007 A 
ATOM     23  C   UNL d   1     -39.111  12.820  20.975  0.00  0.00     0.009 A 
ENDBRANCH  13  19
BRANCH  11  24
ATOM     24  C   UNL d   1     -41.459  15.922  21.209  0.00  0.00     0.086 C 
ATOM     25  C   UNL d   1     -42.209  15.651  21.425  0.00  0.00     0.021 C 
ENDBRANCH  11  24
BRANCH  14  26
ATOM     26  C   UNL d   1     -40.443  14.871  17.672  0.00  0.00     0.047 A 
ATOM     27  S   UNL d   1     -40.251  15.590  17.337  0.00  0.00    -0.085 SA
ATOM     28  C   UNL d   1     -40.873  15.820  16.884  0.00  0.00     0.035 A 
ATOM     29  C   UNL d   1     -41.445  15.252  16.936  0.00  0.00     0.007 A 
ATOM     30  C   UNL d   1     -41.180  14.668  17.421  0.00  0.00     0.009 A 
ENDBRANCH  14  26
BRANCH  12  31
ATOM     31  C   UNL d   1     -37.940  12.503  17.100  0.00  0.00     0.086 C 
ATOM     32  C   UNL d   1     -38.028  11.682  17.113  0.00  0.00     0.021 C 
ENDBRANCH  12  31
TORSDOF 4
ENDMDL
MODEL 7
REMARK VINA RESULT:      -2.6      1.212      3.466
REMARK  4 active torsions:
REMARK  status: ('A' for Active; 'I' for Inactive)
REMARK    1  A    between atoms: C_30  and  N_11 
REMARK    2  A    between atoms: C_29  and  N_12 
REMARK    3  A    between atoms: C_16  and  C_13 
REMARK    4  A    between atoms: C_15  and  C_14 
ROOT
ATOM      1  N   UNL d   1     -48.540  13.490  22.976  0.00  0.00    -0.240 N 
ATOM      2  N   UNL d   1     -47.813  13.029  22.928  0.00  0.00    -0.240 N 
ATOM      3  C   UNL d   1     -49.168  12.962  23.181  0.00  0.00     0.144 A 
ATOM      4  C   UNL d   1     -47.185  13.556  22.723  0.00  0.00     0.144 A 
ATOM      5  C   UNL d   1     -47.513  14.353  22.641  0.00  0.00     0.097 A 
ATOM      6  C   UNL d   1     -48.836  12.176  23.261  0.00  0.00     0.097 A 
ATOM      7  C   UNL d   1     -50.001  12.909  23.339  0.00  0.00     0.285 A 
ATOM      8  C   UNL d   1     -46.347  13.590  22.568  0.00  0.00     0.285 A 
ATOM      9  C   UNL d   1     -49.467  11.645  23.467  0.00  0.00     0.270 A 
ATOM     10  C   UNL d   1     -46.868  14.876  22.434  0.00  0.00     0.270 A 
ATOM     11  N   UNL d   1     -46.149  14.408  22.388  0.00  0.00    -0.239 N 
ATOM     12  N   UNL d   1     -50.188  12.106  23.514  0.00  0.00    -0.239 N 
ATOM     13  C   UNL d   1     -48.342  14.302  22.798  0.00  0.00     0.094 A 
ATOM     14  C   UNL d   1     -48.009  12.224  23.105  0.00  0.00     0.094 A 
ATOM     15  O   UNL d   1     -45.824  12.969  22.585  0.00  0.00    -0.265 OA
ATOM     16  O   UNL d   1     -46.924  15.676  22.302  0.00  0.00    -0.266 OA
ATOM     17  O   UNL d   1     -49.405  10.845  23.597  0.00  0.00    -0.266 OA
ATOM     18  O   UNL d   1     -50.529  13.531  23.323  0.00  0.00    -0.265 OA
ENDROOT
BRANCH  13  19
ATOM     19  C   UNL d   1     -48.864  14.930  22.779  0.00  0.00     0.047 A 
ATOM     20  S   UNL d   1     -49.121  15.345  23.429  0.00  0.00    -0.085 SA
ATOM     21  C   UNL d   1     -49.629  15.917  23.161  0.00  0.00     0.035 A 
ATOM     22  C   UNL d   1     -49.683  15.853  22.350  0.00  0.00     0.007 A 
ATOM     23  C   UNL d   1     -49.204  15.237  22.125  0.00  0.00     0.009 A 
ENDBRANCH  13  19
BRANCH  11  24
ATOM     24  C   UNL d   1     -45.410  14.691  22.207  0.00  0.00     0.086 C 
ATOM     25  C   UNL d   1     -44.774  14.168  22.142  0.00  0.00     0.021 C 
ENDBRANCH  11  24
BRANCH  14  26
ATOM     26  C   UNL d   1     -47.488  11.609  23.121  0.00  0.00     0.047 A 
ATOM     27  S   UNL d   1     -46.922  11.480  23.695  0.00  0.00    -0.085 SA
ATOM     28  C   UNL d   1     -46.525  10.810  23.497  0.00  0.00     0.035 A 
ATOM     29  C   UNL d   1     -46.840  10.526  22.810  0.00  0.00     0.007 A 
ATOM     30  C   UNL d   1     -47.432  11.018  22.579  0.00  0.00     0.009 A 
ENDBRANCH  14  26
BRANCH  12  31
ATOM     31  C   UNL d   1     -50.927  11.811  23.698  0.00  0.00     0.086 C 
ATOM     32  C   UNL d   1     -51.059  10.996  23.691  0.00  0.00     0.021 C 
ENDBRANCH  12  31
TORSDOF 4
ENDMDL
MODEL 8
REMARK VINA RESULT:      -2.4      1.153      3.501
REMARK  4 active torsions:
REMARK  status: ('A' for Active; 'I' for Inactive)
REMARK    1  A    between atoms: C_30  and  N_11 
REMARK    2  A    between atoms: C_29  and  N_12 
REMARK    3  A    between atoms: C_16  and  C_13 
REMARK    4  A    between atoms: C_15  and  C_14 
ROOT
ATOM      1  N   UNL d   1     -48.173  12.776  22.967  0.00  0.00    -0.240 N 
ATOM      2  N   UNL d   1     -48.132  13.629  22.849  0.00  0.00    -0.240 N 
ATOM      3  C   UNL d   1     -48.985  12.569  23.075  0.00  0.00     0.144 A 
ATOM      4  C   UNL d   1     -47.319  13.836  22.741  0.00  0.00     0.144 A 
ATOM      5  C   UNL d   1     -46.844  13.115  22.790  0.00  0.00     0.097 A 
ATOM      6  C   UNL d   1     -49.450  13.289  23.025  0.00  0.00     0.097 A 
ATOM      7  C   UNL d   1     -49.522  11.925  23.214  0.00  0.00     0.285 A 
ATOM      8  C   UNL d   1     -46.797  14.496  22.600  0.00  0.00     0.285 A 
ATOM      9  C   UNL d   1     -50.267  13.081  23.134  0.00  0.00     0.270 A 
ATOM     10  C   UNL d   1     -46.026  13.337  22.679  0.00  0.00     0.270 A 
ATOM     11  N   UNL d   1     -45.994  14.188  22.562  0.00  0.00    -0.239 N 
ATOM     12  N   UNL d   1     -50.305  12.233  23.251  0.00  0.00    -0.239 N 
ATOM     13  C   UNL d   1     -47.376  12.471  22.928  0.00  0.00     0.094 A 
ATOM     14  C   UNL d   1     -48.922  13.931  22.887  0.00  0.00     0.094 A 
ATOM     15  O   UNL d   1     -47.010  15.275  22.518  0.00  0.00    -0.265 OA
ATOM     16  O   UNL d   1     -45.388  12.835  22.683  0.00  0.00    -0.266 OA
ATOM     17  O   UNL d   1     -50.902  13.589  23.129  0.00  0.00    -0.266 OA
ATOM     18  O   UNL d   1     -49.311  11.141  23.298  0.00  0.00    -0.265 OA
ENDROOT
BRANCH  13  19
ATOM     19  C   UNL d   1     -47.156  11.690  23.011  0.00  0.00     0.047 A 
ATOM     20  S   UNL d   1     -47.098  11.152  22.405  0.00  0.00    -0.085 SA
ATOM     21  C   UNL d   1     -46.865  10.448  22.731  0.00  0.00     0.035 A 
ATOM     22  C   UNL d   1     -46.780  10.552  23.536  0.00  0.00     0.007 A 
ATOM     23  C   UNL d   1     -46.964  11.327  23.697  0.00  0.00     0.009 A 
ENDBRANCH  13  19
BRANCH  11  24
ATOM     24  C   UNL d   1     -45.322  14.625  22.437  0.00  0.00     0.086 C 
ATOM     25  C   UNL d   1     -44.602  14.244  22.298  0.00  0.00     0.021 C 
ENDBRANCH  11  24
BRANCH  14  26
ATOM     26  C   UNL d   1     -49.130  14.705  22.804  0.00  0.00     0.047 A 
ATOM     27  S   UNL d   1     -49.364  15.203  23.408  0.00  0.00    -0.085 SA
ATOM     28  C   UNL d   1     -49.519  15.920  23.083  0.00  0.00     0.035 A 
ATOM     29  C   UNL d   1     -49.385  15.872  22.289  0.00  0.00     0.007 A 
ATOM     30  C   UNL d   1     -49.146  15.123  22.118  0.00  0.00     0.009 A 
ENDBRANCH  14  26
BRANCH  12  31
ATOM     31  C   UNL d   1     -50.988  11.803  23.376  0.00  0.00     0.086 C 
ATOM     32  C   UNL d   1     -50.942  11.037  23.681  0.00  0.00     0.021 C 
ENDBRANCH  12  31
TORSDOF 4
ENDMDL
MODEL 9
REMARK VINA RESULT:      -2.4      0.483      3.116
REMARK  4 active torsions:
REMARK  status: ('A' for Active; 'I' for Inactive)
REMARK    1  A    between atoms: C_30  and  N_11 
REMARK    2  A    between atoms: C_29  and  N_12 
REMARK    3  A    between atoms: C_16  and  C_13 
REMARK    4  A    between atoms: C_15  and  C_14 
ROOT
ATOM      1  N   UNL d   1     -47.633  13.239  22.948  0.00  0.00    -0.240 N 
ATOM      2  N   UNL d   1     -48.489  13.130  22.940  0.00  0.00    -0.240 N 
ATOM      3  C   UNL d   1     -47.280  12.502  23.162  0.00  0.00     0.144 A 
ATOM      4  C   UNL d   1     -48.842  13.867  22.726  0.00  0.00     0.144 A 
ATOM      5  C   UNL d   1     -48.211  14.446  22.598  0.00  0.00     0.097 A 
ATOM      6  C   UNL d   1     -47.911  11.934  23.287  0.00  0.00     0.097 A 
ATOM      7  C   UNL d   1     -46.543  12.104  23.301  0.00  0.00     0.285 A 
ATOM      8  C   UNL d   1     -49.592  14.250  22.590  0.00  0.00     0.285 A 
ATOM      9  C   UNL d   1     -47.556  11.192  23.502  0.00  0.00     0.270 A 
ATOM     10  C   UNL d   1     -48.581  15.186  22.382  0.00  0.00     0.270 A 
ATOM     11  N   UNL d   1     -49.432  15.069  22.377  0.00  0.00    -0.239 N 
ATOM     12  N   UNL d   1     -46.707  11.304  23.509  0.00  0.00    -0.239 N 
ATOM     13  C   UNL d   1     -47.475  14.052  22.736  0.00  0.00     0.094 A 
ATOM     14  C   UNL d   1     -48.645  12.324  23.150  0.00  0.00     0.094 A 
ATOM     15  O   UNL d   1     -50.327  13.911  22.649  0.00  0.00    -0.265 OA
ATOM     16  O   UNL d   1     -48.197  15.882  22.212  0.00  0.00    -0.266 OA
ATOM     17  O   UNL d   1     -47.946  10.499  23.672  0.00  0.00    -0.266 OA
ATOM     18  O   UNL d   1     -45.802  12.441  23.243  0.00  0.00    -0.265 OA
ENDROOT
BRANCH  13  19
ATOM     19  C   UNL d   1     -46.738  14.398  22.675  0.00  0.00     0.047 A 
ATOM     20  S   UNL d   1     -46.299  14.448  21.994  0.00  0.00    -0.085 SA
ATOM     21  C   UNL d   1     -45.609  14.830  22.182  0.00  0.00     0.035 A 
ATOM     22  C   UNL d   1     -45.625  15.014  22.977  0.00  0.00     0.007 A 
ATOM     23  C   UNL d   1     -46.331  14.740  23.272  0.00  0.00     0.009 A 
ENDBRANCH  13  19
BRANCH  11  24
ATOM     24  C   UNL d   1     -49.988  15.632  22.201  0.00  0.00     0.086 C 
ATOM     25  C   UNL d   1     -50.705  15.647  22.611  0.00  0.00     0.021 C 
ENDBRANCH  11  24
BRANCH  14  26
ATOM     26  C   UNL d   1     -49.377  11.991  23.207  0.00  0.00     0.047 A 
ATOM     27  S   UNL d   1     -49.639  11.344  22.785  0.00  0.00    -0.085 SA
ATOM     28  C   UNL d   1     -50.396  11.198  23.012  0.00  0.00     0.035 A 
ATOM     29  C   UNL d   1     -50.602  11.746  23.567  0.00  0.00     0.007 A 
ATOM     30  C   UNL d   1     -49.974  12.234  23.688  0.00  0.00     0.009 A 
ENDBRANCH  14  26
BRANCH  12  31
ATOM     31  C   UNL d   1     -46.155  10.728  23.688  0.00  0.00     0.086 C 
ATOM     32  C   UNL d   1     -45.401  10.763  23.355  0.00  0.00     0.021 C 
ENDBRANCH  12  31
TORSDOF 4
ENDMDL
