MODEL 1
REMARK VINA RESULT:      -7.5      0.000      0.000
REMARK  6 active torsions:
REMARK  status: ('A' for Active; 'I' for Inactive)
REMARK    1  A    between atoms: C_10  and  C_1 
REMARK    2  A    between atoms: C_4  and  O_8 
REMARK       I    between atoms: N_12  and  C_4 
REMARK    3  A    between atoms: O_8  and  C_13 
REMARK    4  A    between atoms: C_23  and  N_12 
REMARK    5  A    between atoms: C_24  and  N_12 
REMARK    6  A    between atoms: O_22  and  C_19 
ROOT
ATOM      1  C   UNL d   1      50.291  34.457  52.750  0.00  0.00     0.064 A 
ATOM      2  C   UNL d   1      49.904  34.454  52.007  0.00  0.00     0.199 A 
ATOM      3  C   UNL d   1      49.180  34.832  51.919  0.00  0.00     0.062 A 
ATOM      4  C   UNL d   1      49.943  34.843  53.396  0.00  0.00     0.126 A 
ATOM      5  C   UNL d   1      48.828  35.223  52.571  0.00  0.00     0.105 A 
ATOM      6  O   UNL d   1      49.204  35.231  53.310  0.00  0.00    -0.305 OA
ATOM      7  C   UNL d   1      48.096  35.605  52.481  0.00  0.00     0.050 A 
ATOM      8  C   UNL d   1      48.787  34.835  51.185  0.00  0.00     0.007 A 
ATOM      9  C   UNL d   1      47.719  35.599  51.746  0.00  0.00     0.107 A 
ATOM     10  O   UNL d   1      50.253  34.069  51.367  0.00  0.00    -0.286 OA
ATOM     11  C   UNL d   1      48.062  35.216  51.101  0.00  0.00     0.025 A 
ENDROOT
BRANCH   1  12
ATOM     12  C   UNL d   1      51.016  34.076  52.834  0.00  0.00     0.005 A 
ATOM     13  C   UNL d   1      51.049  33.311  53.140  0.00  0.00     0.002 A 
ATOM     14  C   UNL d   1      51.775  32.931  53.224  0.00  0.00     0.024 A 
ATOM     15  C   UNL d   1      52.467  33.316  53.001  0.00  0.00     0.094 A 
ATOM     16  C   UNL d   1      52.434  34.085  52.694  0.00  0.00     0.024 A 
ATOM     17  C   UNL d   1      51.710  34.462  52.611  0.00  0.00     0.002 A 
BRANCH  15  18
ATOM     18  O   UNL d   1      53.193  32.940  53.083  0.00  0.00    -0.328 OA
ATOM     19  C   UNL d   1      53.295  32.374  53.678  0.00  0.00     0.181 C 
ENDBRANCH  15  18
ENDBRANCH   1  12
BRANCH   9  20
ATOM     20  O   UNL d   1      46.993  35.980  51.661  0.00  0.00    -0.259 OA
BRANCH  20  21
ATOM     21  C   UNL d   1      46.322  35.543  51.470  0.00  0.00     0.377 C 
ATOM     22  N   UNL d   1      45.575  35.840  51.653  0.00  0.00    -0.252 N 
ATOM     23  O   UNL d   1      46.396  34.813  51.096  0.00  0.00    -0.237 OA
BRANCH  22  24
ATOM     24  C   UNL d   1      44.900  35.403  51.461  0.00  0.00     0.085 C 
ATOM     25  C   UNL d   1      44.489  35.564  50.765  0.00  0.00     0.021 C 
ENDBRANCH  22  24
BRANCH  22  26
ATOM     26  C   UNL d   1      45.500  36.571  52.027  0.00  0.00     0.085 C 
ATOM     27  C   UNL d   1      44.894  36.697  52.571  0.00  0.00     0.021 C 
ENDBRANCH  22  26
ENDBRANCH  20  21
ENDBRANCH   9  20
TORSDOF 6
ENDMDL
MODEL 2
REMARK VINA RESULT:      -7.4      1.845      5.986
REMARK  6 active torsions:
REMARK  status: ('A' for Active; 'I' for Inactive)
REMARK    1  A    between atoms: C_10  and  C_1 
REMARK    2  A    between atoms: C_4  and  O_8 
REMARK       I    between atoms: N_12  and  C_4 
REMARK    3  A    between atoms: O_8  and  C_13 
REMARK    4  A    between atoms: C_23  and  N_12 
REMARK    5  A    between atoms: C_24  and  N_12 
REMARK    6  A    between atoms: O_22  and  C_19 
ROOT
ATOM      1  C   UNL d   1      49.051  34.923  51.890  0.00  0.00     0.064 A 
ATOM      2  C   UNL d   1      49.427  34.852  52.636  0.00  0.00     0.199 A 
ATOM      3  C   UNL d   1      50.166  34.497  52.693  0.00  0.00     0.062 A 
ATOM      4  C   UNL d   1      49.426  34.634  51.210  0.00  0.00     0.126 A 
ATOM      5  C   UNL d   1      50.545  34.205  52.005  0.00  0.00     0.105 A 
ATOM      6  O   UNL d   1      50.181  34.271  51.263  0.00  0.00    -0.305 OA
ATOM      7  C   UNL d   1      51.292  33.846  52.063  0.00  0.00     0.050 A 
ATOM      8  C   UNL d   1      50.547  34.422  53.428  0.00  0.00     0.007 A 
ATOM      9  C   UNL d   1      51.657  33.780  52.802  0.00  0.00     0.107 A 
ATOM     10  O   UNL d   1      49.050  35.141  53.311  0.00  0.00    -0.286 OA
ATOM     11  C   UNL d   1      51.288  34.066  53.481  0.00  0.00     0.025 A 
ENDROOT
BRANCH   1  12
ATOM     12  C   UNL d   1      48.311  35.279  51.838  0.00  0.00     0.005 A 
ATOM     13  C   UNL d   1      48.152  35.968  52.264  0.00  0.00     0.002 A 
ATOM     14  C   UNL d   1      47.411  36.324  52.211  0.00  0.00     0.024 A 
ATOM     15  C   UNL d   1      46.830  35.991  51.733  0.00  0.00     0.094 A 
ATOM     16  C   UNL d   1      46.989  35.299  51.306  0.00  0.00     0.024 A 
ATOM     17  C   UNL d   1      47.729  34.946  51.360  0.00  0.00     0.002 A 
BRANCH  15  18
ATOM     18  O   UNL d   1      46.090  36.344  51.678  0.00  0.00    -0.328 OA
ATOM     19  C   UNL d   1      45.531  36.217  52.275  0.00  0.00     0.181 C 
ENDBRANCH  15  18
ENDBRANCH   1  12
BRANCH   9  20
ATOM     20  O   UNL d   1      52.398  33.423  52.855  0.00  0.00    -0.259 OA
BRANCH  20  21
ATOM     21  C   UNL d   1      52.459  32.642  53.107  0.00  0.00     0.377 C 
ATOM     22  N   UNL d   1      53.198  32.328  53.294  0.00  0.00    -0.252 N 
ATOM     23  O   UNL d   1      51.784  32.175  53.172  0.00  0.00    -0.237 OA
BRANCH  22  24
ATOM     24  C   UNL d   1      53.261  31.544  53.548  0.00  0.00     0.085 C 
ATOM     25  C   UNL d   1      53.585  30.975  53.048  0.00  0.00     0.021 C 
ENDBRANCH  22  24
BRANCH  22  26
ATOM     26  C   UNL d   1      53.874  32.796  53.229  0.00  0.00     0.085 C 
ATOM     27  C   UNL d   1      54.450  32.775  53.818  0.00  0.00     0.021 C 
ENDBRANCH  22  26
ENDBRANCH  20  21
ENDBRANCH   9  20
TORSDOF 6
ENDMDL
MODEL 3
REMARK VINA RESULT:      -5.4      1.638      3.010
REMARK  6 active torsions:
REMARK  status: ('A' for Active; 'I' for Inactive)
REMARK    1  A    between atoms: C_10  and  C_1 
REMARK    2  A    between atoms: C_4  and  O_8 
REMARK       I    between atoms: N_12  and  C_4 
REMARK    3  A    between atoms: O_8  and  C_13 
REMARK    4  A    between atoms: C_23  and  N_12 
REMARK    5  A    between atoms: C_24  and  N_12 
REMARK    6  A    between atoms: O_22  and  C_19 
ROOT
ATOM      1  C   UNL d   1      52.256  32.674  53.076  0.00  0.00     0.064 A 
ATOM      2  C   UNL d   1      51.424  32.644  53.178  0.00  0.00     0.199 A 
ATOM      3  C   UNL d   1      50.967  33.309  53.025  0.00  0.00     0.062 A 
ATOM      4  C   UNL d   1      52.616  33.376  52.820  0.00  0.00     0.126 A 
ATOM      5  C   UNL d   1      51.330  34.018  52.766  0.00  0.00     0.105 A 
ATOM      6  O   UNL d   1      52.152  34.057  52.662  0.00  0.00    -0.305 OA
ATOM      7  C   UNL d   1      50.867  34.690  52.611  0.00  0.00     0.050 A 
ATOM      8  C   UNL d   1      50.141  33.290  53.123  0.00  0.00     0.007 A 
ATOM      9  C   UNL d   1      50.047  34.654  52.714  0.00  0.00     0.107 A 
ATOM     10  O   UNL d   1      51.070  31.944  53.433  0.00  0.00    -0.286 OA
ATOM     11  C   UNL d   1      49.686  33.958  52.968  0.00  0.00     0.025 A 
ENDROOT
BRANCH   1  12
ATOM     12  C   UNL d   1      52.711  32.005  53.231  0.00  0.00     0.005 A 
ATOM     13  C   UNL d   1      52.633  31.334  52.758  0.00  0.00     0.002 A 
ATOM     14  C   UNL d   1      53.089  30.666  52.914  0.00  0.00     0.024 A 
ATOM     15  C   UNL d   1      53.621  30.669  53.542  0.00  0.00     0.094 A 
ATOM     16  C   UNL d   1      53.698  31.344  54.017  0.00  0.00     0.024 A 
ATOM     17  C   UNL d   1      53.243  32.009  53.859  0.00  0.00     0.002 A 
BRANCH  15  18
ATOM     18  O   UNL d   1      54.077  30.004  53.700  0.00  0.00    -0.328 OA
ATOM     19  C   UNL d   1      53.795  29.431  54.226  0.00  0.00     0.181 C 
ENDBRANCH  15  18
ENDBRANCH   1  12
BRANCH   9  20
ATOM     20  O   UNL d   1      49.592  35.323  52.559  0.00  0.00    -0.259 OA
BRANCH  20  21
ATOM     21  C   UNL d   1      49.041  35.580  53.114  0.00  0.00     0.377 C 
ATOM     22  N   UNL d   1      48.332  35.916  52.862  0.00  0.00    -0.252 N 
ATOM     23  O   UNL d   1      49.198  35.502  53.919  0.00  0.00    -0.237 OA
BRANCH  22  24
ATOM     24  C   UNL d   1      47.778  36.175  53.418  0.00  0.00     0.085 C 
ATOM     25  C   UNL d   1      47.190  36.709  53.196  0.00  0.00     0.021 C 
ENDBRANCH  22  24
BRANCH  22  26
ATOM     26  C   UNL d   1      48.175  35.994  52.056  0.00  0.00     0.085 C 
ATOM     27  C   UNL d   1      47.402  35.927  51.778  0.00  0.00     0.021 C 
ENDBRANCH  22  26
ENDBRANCH  20  21
ENDBRANCH   9  20
TORSDOF 6
ENDMDL
MODEL 4
REMARK VINA RESULT:      -5.2     10.240     11.054
REMARK  6 active torsions:
REMARK  status: ('A' for Active; 'I' for Inactive)
REMARK    1  A    between atoms: C_10  and  C_1 
REMARK    2  A    between atoms: C_4  and  O_8 
REMARK       I    between atoms: N_12  and  C_4 
REMARK    3  A    between atoms: O_8  and  C_13 
REMARK    4  A    between atoms: C_23  and  N_12 
REMARK    5  A    between atoms: C_24  and  N_12 
REMARK    6  A    between atoms: O_22  and  C_19 
ROOT
ATOM      1  C   UNL d   1      44.780  28.500  57.939  0.00  0.00     0.064 A 
ATOM      2  C   UNL d   1      44.642  27.703  58.160  0.00  0.00     0.199 A 
ATOM      3  C   UNL d   1      44.577  27.122  57.583  0.00  0.00     0.062 A 
ATOM      4  C   UNL d   1      44.851  28.701  57.138  0.00  0.00     0.126 A 
ATOM      5  C   UNL d   1      44.649  27.325  56.773  0.00  0.00     0.105 A 
ATOM      6  O   UNL d   1      44.785  28.110  56.545  0.00  0.00    -0.305 OA
ATOM      7  C   UNL d   1      44.583  26.737  56.190  0.00  0.00     0.050 A 
ATOM      8  C   UNL d   1      44.440  26.328  57.791  0.00  0.00     0.007 A 
ATOM      9  C   UNL d   1      44.446  25.952  56.414  0.00  0.00     0.107 A 
ATOM     10  O   UNL d   1      44.572  27.508  58.958  0.00  0.00    -0.286 OA
ATOM     11  C   UNL d   1      44.376  25.749  57.209  0.00  0.00     0.025 A 
ENDROOT
BRANCH   1  12
ATOM     12  C   UNL d   1      44.845  29.079  58.521  0.00  0.00     0.005 A 
ATOM     13  C   UNL d   1      45.436  29.653  58.470  0.00  0.00     0.002 A 
ATOM     14  C   UNL d   1      45.499  30.232  59.052  0.00  0.00     0.024 A 
ATOM     15  C   UNL d   1      44.973  30.237  59.684  0.00  0.00     0.094 A 
ATOM     16  C   UNL d   1      44.379  29.661  59.735  0.00  0.00     0.024 A 
ATOM     17  C   UNL d   1      44.317  29.085  59.154  0.00  0.00     0.002 A 
BRANCH  15  18
ATOM     18  O   UNL d   1      45.033  30.813  60.267  0.00  0.00    -0.328 OA
ATOM     19  C   UNL d   1      44.922  30.606  61.060  0.00  0.00     0.181 C 
ENDBRANCH  15  18
ENDBRANCH   1  12
BRANCH   9  20
ATOM     20  O   UNL d   1      44.382  25.372  55.832  0.00  0.00    -0.259 OA
BRANCH  20  21
ATOM     21  C   UNL d   1      44.903  24.735  55.831  0.00  0.00     0.377 C 
ATOM     22  N   UNL d   1      44.869  24.180  55.222  0.00  0.00    -0.252 N 
ATOM     23  O   UNL d   1      45.455  24.651  56.436  0.00  0.00    -0.237 OA
BRANCH  22  24
ATOM     24  C   UNL d   1      45.391  23.539  55.218  0.00  0.00     0.085 C 
ATOM     25  C   UNL d   1      45.105  22.775  55.330  0.00  0.00     0.021 C 
ENDBRANCH  22  24
BRANCH  22  26
ATOM     26  C   UNL d   1      44.316  24.264  54.616  0.00  0.00     0.085 C 
ATOM     27  C   UNL d   1      44.517  24.064  53.842  0.00  0.00     0.021 C 
ENDBRANCH  22  26
ENDBRANCH  20  21
ENDBRANCH   9  20
TORSDOF 6
ENDMDL
MODEL 5
REMARK VINA RESULT:      -5.1     10.438     11.015
REMARK  6 active torsions:
REMARK  status: ('A' for Active; 'I' for Inactive)
REMARK    1  A    between atoms: C_10  and  C_1 
REMARK    2  A    between atoms: C_4  and  O_8 
REMARK       I    between atoms: N_12  and  C_4 
REMARK    3  A    between atoms: O_8  and  C_13 
REMARK    4  A    between atoms: C_23  and  N_12 
REMARK    5  A    between atoms: C_24  and  N_12 
REMARK    6  A    between atoms: O_22  and  C_19 
ROOT
ATOM      1  C   UNL d   1      44.707  25.275  57.214  0.00  0.00     0.064 A 
ATOM      2  C   UNL d   1      44.964  25.952  56.793  0.00  0.00     0.199 A 
ATOM      3  C   UNL d   1      45.028  26.676  57.176  0.00  0.00     0.062 A 
ATOM      4  C   UNL d   1      44.517  25.337  58.019  0.00  0.00     0.126 A 
ATOM      5  C   UNL d   1      44.836  26.739  57.989  0.00  0.00     0.105 A 
ATOM      6  O   UNL d   1      44.581  26.074  58.415  0.00  0.00    -0.305 OA
ATOM      7  C   UNL d   1      44.901  27.471  58.376  0.00  0.00     0.050 A 
ATOM      8  C   UNL d   1      45.282  27.354  56.767  0.00  0.00     0.007 A 
ATOM      9  C   UNL d   1      45.156  28.135  57.955  0.00  0.00     0.107 A 
ATOM     10  O   UNL d   1      45.152  25.887  55.992  0.00  0.00    -0.286 OA
ATOM     11  C   UNL d   1      45.345  28.078  57.155  0.00  0.00     0.025 A 
ENDROOT
BRANCH   1  12
ATOM     12  C   UNL d   1      44.645  24.552  56.826  0.00  0.00     0.005 A 
ATOM     13  C   UNL d   1      44.377  24.522  56.046  0.00  0.00     0.002 A 
ATOM     14  C   UNL d   1      44.315  23.798  55.659  0.00  0.00     0.024 A 
ATOM     15  C   UNL d   1      44.520  23.104  56.051  0.00  0.00     0.094 A 
ATOM     16  C   UNL d   1      44.789  23.134  56.835  0.00  0.00     0.024 A 
ATOM     17  C   UNL d   1      44.850  23.857  57.219  0.00  0.00     0.002 A 
BRANCH  15  18
ATOM     18  O   UNL d   1      44.459  22.380  55.668  0.00  0.00    -0.328 OA
ATOM     19  C   UNL d   1      45.059  21.818  55.758  0.00  0.00     0.181 C 
ENDBRANCH  15  18
ENDBRANCH   1  12
BRANCH   9  20
ATOM     20  O   UNL d   1      45.218  28.859  58.343  0.00  0.00    -0.259 OA
BRANCH  20  21
ATOM     21  C   UNL d   1      44.803  29.512  58.061  0.00  0.00     0.377 C 
ATOM     22  N   UNL d   1      44.815  30.219  58.484  0.00  0.00    -0.252 N 
ATOM     23  O   UNL d   1      44.375  29.458  57.359  0.00  0.00    -0.237 OA
BRANCH  22  24
ATOM     24  C   UNL d   1      44.398  30.875  58.204  0.00  0.00     0.085 C 
ATOM     25  C   UNL d   1      44.806  31.522  57.898  0.00  0.00     0.021 C 
ENDBRANCH  22  24
BRANCH  22  26
ATOM     26  C   UNL d   1      45.242  30.272  59.188  0.00  0.00     0.085 C 
ATOM     27  C   UNL d   1      44.907  30.634  59.848  0.00  0.00     0.021 C 
ENDBRANCH  22  26
ENDBRANCH  20  21
ENDBRANCH   9  20
TORSDOF 6
ENDMDL
MODEL 6
REMARK VINA RESULT:      -4.8     10.729     11.354
REMARK  6 active torsions:
REMARK  status: ('A' for Active; 'I' for Inactive)
REMARK    1  A    between atoms: C_10  and  C_1 
REMARK    2  A    between atoms: C_4  and  O_8 
REMARK       I    between atoms: N_12  and  C_4 
REMARK    3  A    between atoms: O_8  and  C_13 
REMARK    4  A    between atoms: C_23  and  N_12 
REMARK    5  A    between atoms: C_24  and  N_12 
REMARK    6  A    between atoms: O_22  and  C_19 
ROOT
ATOM      1  C   UNL d   1      44.646  25.211  56.499  0.00  0.00     0.064 A 
ATOM      2  C   UNL d   1      44.841  25.256  57.313  0.00  0.00     0.199 A 
ATOM      3  C   UNL d   1      44.773  25.970  57.713  0.00  0.00     0.062 A 
ATOM      4  C   UNL d   1      44.385  25.888  56.098  0.00  0.00     0.126 A 
ATOM      5  C   UNL d   1      44.509  26.655  57.308  0.00  0.00     0.105 A 
ATOM      6  O   UNL d   1      44.314  26.620  56.503  0.00  0.00    -0.305 OA
ATOM      7  C   UNL d   1      44.441  27.377  57.713  0.00  0.00     0.050 A 
ATOM      8  C   UNL d   1      44.964  26.027  58.521  0.00  0.00     0.007 A 
ATOM      9  C   UNL d   1      44.634  27.415  58.516  0.00  0.00     0.107 A 
ATOM     10  O   UNL d   1      45.100  24.580  57.708  0.00  0.00    -0.286 OA
ATOM     11  C   UNL d   1      44.894  26.744  58.918  0.00  0.00     0.025 A 
ENDROOT
BRANCH   1  12
ATOM     12  C   UNL d   1      44.716  24.493  56.102  0.00  0.00     0.005 A 
ATOM     13  C   UNL d   1      44.442  23.798  56.452  0.00  0.00     0.002 A 
ATOM     14  C   UNL d   1      44.512  23.080  56.054  0.00  0.00     0.024 A 
ATOM     15  C   UNL d   1      44.855  23.058  55.307  0.00  0.00     0.094 A 
ATOM     16  C   UNL d   1      45.130  23.756  54.955  0.00  0.00     0.024 A 
ATOM     17  C   UNL d   1      45.059  24.470  55.353  0.00  0.00     0.002 A 
BRANCH  15  18
ATOM     18  O   UNL d   1      44.927  22.344  54.907  0.00  0.00    -0.328 OA
ATOM     19  C   UNL d   1      45.569  22.221  54.401  0.00  0.00     0.181 C 
ENDBRANCH  15  18
ENDBRANCH   1  12
BRANCH   9  20
ATOM     20  O   UNL d   1      44.565  28.134  58.914  0.00  0.00    -0.259 OA
BRANCH  20  21
ATOM     21  C   UNL d   1      45.082  28.750  58.739  0.00  0.00     0.377 C 
ATOM     22  N   UNL d   1      44.957  29.495  59.067  0.00  0.00    -0.252 N 
ATOM     23  O   UNL d   1      45.724  28.621  58.239  0.00  0.00    -0.237 OA
BRANCH  22  24
ATOM     24  C   UNL d   1      45.475  30.115  58.893  0.00  0.00     0.085 C 
ATOM     25  C   UNL d   1      45.202  30.779  58.489  0.00  0.00     0.021 C 
ENDBRANCH  22  24
BRANCH  22  26
ATOM     26  C   UNL d   1      44.314  29.624  59.568  0.00  0.00     0.085 C 
ATOM     27  C   UNL d   1      44.427  29.988  60.299  0.00  0.00     0.021 C 
ENDBRANCH  22  26
ENDBRANCH  20  21
ENDBRANCH   9  20
TORSDOF 6
ENDMDL
