MODEL 1
REMARK VINA RESULT:      -5.0      0.000      0.000
REMARK  5 active torsions:
REMARK  status: ('A' for Active; 'I' for Inactive)
REMARK    1  A    between atoms: C_8  and  C_1 
REMARK    2  A    between atoms: C_6  and  O_10 
REMARK       I    between atoms: N_7  and  C_6 
REMARK    3  A    between atoms: C_15  and  C_8 
REMARK    4  A    between atoms: O_10  and  C_12 
REMARK    5  A    between atoms: C_27  and  C_18 
ROOT
ATOM      1  C   UNL d   1      58.827  -0.973  29.176  0.00  0.00     0.139 A 
ATOM      2  C   UNL d   1      58.207  -0.025  29.897  0.00  0.00     0.064 A 
ATOM      3  C   UNL d   1      58.703  -0.160  29.252  0.00  0.00     0.220 A 
ATOM      4  C   UNL d   1      58.017  -0.754  30.228  0.00  0.00     0.105 A 
ATOM      5  O   UNL d   1      58.400  -1.350  29.784  0.00  0.00    -0.304 OA
ATOM      6  C   UNL d   1      57.526  -0.792  30.884  0.00  0.00     0.050 A 
ATOM      7  C   UNL d   1      57.907   0.669  30.221  0.00  0.00     0.007 A 
ATOM      8  C   UNL d   1      57.230  -0.106  31.204  0.00  0.00     0.107 A 
ATOM      9  O   UNL d   1      59.032   0.422  28.752  0.00  0.00    -0.284 OA
ATOM     10  C   UNL d   1      57.414   0.626  30.880  0.00  0.00     0.025 A 
ENDROOT
BRANCH   1  11
ATOM     11  C   UNL d   1      59.288  -1.352  28.604  0.00  0.00     0.028 C 
BRANCH  11  12
ATOM     12  C   UNL d   1      59.697  -2.042  28.796  0.00  0.00     0.002 A 
ATOM     13  C   UNL d   1      60.468  -1.997  29.079  0.00  0.00     0.000 A 
ATOM     14  C   UNL d   1      60.888  -2.682  29.275  0.00  0.00     0.000 A 
ATOM     15  C   UNL d   1      60.522  -3.421  29.182  0.00  0.00     0.000 A 
ATOM     16  C   UNL d   1      59.744  -3.466  28.896  0.00  0.00     0.000 A 
ATOM     17  C   UNL d   1      59.334  -2.773  28.704  0.00  0.00     0.000 A 
BRANCH  15  18
ATOM     18  C   UNL d   1      60.935  -4.111  29.375  0.00  0.00     0.000 C 
ATOM     19  C   UNL d   1      61.128  -4.655  28.790  0.00  0.00     0.000 C 
ENDBRANCH  15  18
ENDBRANCH  11  12
ENDBRANCH   1  11
BRANCH   8  20
ATOM     20  O   UNL d   1      56.734  -0.141  31.867  0.00  0.00    -0.259 OA
BRANCH  20  21
ATOM     21  C   UNL d   1      56.978   0.176  32.596  0.00  0.00     0.378 C 
ATOM     22  N   UNL d   1      56.441   0.264  33.210  0.00  0.00    -0.247 N 
ATOM     23  C   UNL d   1      55.645   0.034  33.106  0.00  0.00     0.112 A 
ATOM     24  C   UNL d   1      56.675   0.575  33.930  0.00  0.00     0.112 A 
ATOM     25  C   UNL d   1      55.100   0.120  33.720  0.00  0.00     0.142 A 
ATOM     26  O   UNL d   1      55.353   0.439  34.449  0.00  0.00    -0.300 OA
ATOM     27  C   UNL d   1      56.136   0.665  34.552  0.00  0.00     0.142 A 
ATOM     28  O   UNL d   1      57.762   0.402  32.698  0.00  0.00    -0.237 OA
ENDBRANCH  20  21
ENDBRANCH   8  20
TORSDOF 5
ENDMDL
MODEL 2
REMARK VINA RESULT:      -2.8      8.229      9.128
REMARK  5 active torsions:
REMARK  status: ('A' for Active; 'I' for Inactive)
REMARK    1  A    between atoms: C_8  and  C_1 
REMARK    2  A    between atoms: C_6  and  O_10 
REMARK       I    between atoms: N_7  and  C_6 
REMARK    3  A    between atoms: C_15  and  C_8 
REMARK    4  A    between atoms: O_10  and  C_12 
REMARK    5  A    between atoms: C_27  and  C_18 
ROOT
ATOM      1  C   UNL d   1      59.574  -9.792  29.994  0.00  0.00     0.139 A 
ATOM      2  C   UNL d   1      60.385  -9.751  31.064  0.00  0.00     0.064 A 
ATOM      3  C   UNL d   1      60.362  -9.751  30.239  0.00  0.00     0.220 A 
ATOM      4  C   UNL d   1      59.612  -9.792  31.339  0.00  0.00     0.105 A 
ATOM      5  O   UNL d   1      59.100  -9.818  30.678  0.00  0.00    -0.304 OA
ATOM      6  C   UNL d   1      59.463  -9.802  32.146  0.00  0.00     0.050 A 
ATOM      7  C   UNL d   1      61.014  -9.720  31.594  0.00  0.00     0.007 A 
ATOM      8  C   UNL d   1      60.084  -9.770  32.669  0.00  0.00     0.107 A 
ATOM      9  O   UNL d   1      61.020  -9.716  29.727  0.00  0.00    -0.284 OA
ATOM     10  C   UNL d   1      60.861  -9.729  32.403  0.00  0.00     0.025 A 
ENDROOT
BRANCH   1  11
ATOM     11  C   UNL d   1      59.298  -9.805  29.216  0.00  0.00     0.028 C 
BRANCH  11  12
ATOM     12  C   UNL d   1      58.585  -9.437  29.025  0.00  0.00     0.002 A 
ATOM     13  C   UNL d   1      57.872  -9.809  29.196  0.00  0.00     0.000 A 
ATOM     14  C   UNL d   1      57.151  -9.449  29.009  0.00  0.00     0.000 A 
ATOM     15  C   UNL d   1      57.154  -8.704  28.645  0.00  0.00     0.000 A 
ATOM     16  C   UNL d   1      57.874  -8.328  28.473  0.00  0.00     0.000 A 
ATOM     17  C   UNL d   1      58.588  -8.699  28.665  0.00  0.00     0.000 A 
BRANCH  15  18
ATOM     18  C   UNL d   1      56.437  -8.337  28.455  0.00  0.00     0.000 C 
ATOM     19  C   UNL d   1      55.729  -8.744  28.543  0.00  0.00     0.000 C 
ENDBRANCH  15  18
ENDBRANCH  11  12
ENDBRANCH   1  11
BRANCH   8  20
ATOM     20  O   UNL d   1      59.938  -9.779  33.485  0.00  0.00    -0.259 OA
BRANCH  20  21
ATOM     21  C   UNL d   1      60.002  -9.083  33.934  0.00  0.00     0.378 C 
ATOM     22  N   UNL d   1      59.761  -9.072  34.718  0.00  0.00    -0.247 N 
ATOM     23  C   UNL d   1      59.449  -9.763  35.069  0.00  0.00     0.112 A 
ATOM     24  C   UNL d   1      59.822  -8.391  35.167  0.00  0.00     0.112 A 
ATOM     25  C   UNL d   1      59.204  -9.759  35.858  0.00  0.00     0.142 A 
ATOM     26  O   UNL d   1      59.272  -9.056  36.303  0.00  0.00    -0.300 OA
ATOM     27  C   UNL d   1      59.579  -8.376  35.958  0.00  0.00     0.142 A 
ATOM     28  O   UNL d   1      60.310  -8.403  33.589  0.00  0.00    -0.237 OA
ENDBRANCH  20  21
ENDBRANCH   8  20
TORSDOF 5
ENDMDL
