MODEL 1
REMARK VINA RESULT:      43.0      0.000      0.000
REMARK  2 active torsions:
REMARK  status: ('A' for Active; 'I' for Inactive)
REMARK    1  A    between atoms: C_13  and  N_5 
REMARK    2  A    between atoms: C_19  and  C_12 
ROOT
ATOM      1  C   UNL d   1     -50.931  25.637  33.468  0.00  0.00     0.170 A 
ATOM      2  C   UNL d   1     -50.233  26.034  33.477  0.00  0.00     0.093 A 
ATOM      3  N   UNL d   1     -50.903  27.239  33.638  0.00  0.00    -0.256 N 
ATOM      4  C   UNL d   1     -50.207  26.841  33.562  0.00  0.00     0.176 A 
ATOM      5  N   UNL d   1     -50.948  24.840  33.383  0.00  0.00    -0.212 N 
ATOM      6  N   UNL d   1     -51.622  26.052  33.546  0.00  0.00    -0.206 NA
ATOM      7  N   UNL d   1     -49.510  27.228  33.570  0.00  0.00    -0.128 NA
ATOM      8  N   UNL d   1     -50.250  24.438  33.307  0.00  0.00    -0.162 NA
ATOM      9  C   UNL d   1     -51.601  26.842  33.629  0.00  0.00     0.187 A 
ATOM     10  N   UNL d   1     -50.191  28.427  33.731  0.00  0.00    -0.128 NA
ATOM     11  C   UNL d   1     -49.551  24.826  33.315  0.00  0.00     0.127 A 
ATOM     12  C   UNL d   1     -50.888  28.036  33.723  0.00  0.00     0.172 A 
ENDROOT
BRANCH   5  13
ATOM     13  C   UNL d   1     -51.669  24.440  33.375  0.00  0.00     0.085 A 
ATOM     14  C   UNL d   1     -52.371  24.859  33.362  0.00  0.00     0.019 A 
ATOM     15  C   UNL d   1     -53.102  24.449  33.354  0.00  0.00     0.002 A 
ATOM     16  C   UNL d   1     -53.856  24.890  33.340  0.00  0.00     0.000 C 
ATOM     17  C   UNL d   1     -53.115  23.617  33.359  0.00  0.00     0.000 A 
ATOM     18  C   UNL d   1     -52.392  23.195  33.372  0.00  0.00     0.002 A 
ATOM     19  C   UNL d   1     -53.871  23.189  33.351  0.00  0.00     0.000 C 
ATOM     20  C   UNL d   1     -51.673  23.600  33.380  0.00  0.00     0.019 A 
ENDBRANCH   5  13
BRANCH  12  21
ATOM     21  C   UNL d   1     -51.575  28.447  33.800  0.00  0.00     0.039 C 
ATOM     22  C   UNL d   1     -51.732  29.057  33.310  0.00  0.00     0.003 C 
ENDBRANCH  12  21
TORSDOF 2
ENDMDL
