MODEL 1
REMARK VINA RESULT:      -8.7      0.000      0.000
REMARK  2 active torsions:
REMARK  status: ('A' for Active; 'I' for Inactive)
REMARK    1  A    between atoms: C_6  and  N_1 
REMARK    2  A    between atoms: C_11  and  C_6 
ROOT
ATOM      1  N   UNL d   1     -48.399  12.138  22.709  0.00  0.00    -0.251 N 
ATOM      2  C   UNL d   1     -48.171  11.566  23.268  0.00  0.00     0.378 A 
ATOM      3  C   UNL d   1     -49.214  12.260  22.796  0.00  0.00     0.092 A 
ATOM      4  O   UNL d   1     -48.838  11.334  23.698  0.00  0.00    -0.258 OA
ATOM      5  C   UNL d   1     -49.490  11.765  23.406  0.00  0.00     0.121 A 
ATOM      6  O   UNL d   1     -47.405  11.283  23.368  0.00  0.00    -0.237 OA
ATOM      7  C   UNL d   1     -49.740  12.756  22.400  0.00  0.00     0.020 A 
ATOM      8  C   UNL d   1     -50.288  11.773  23.612  0.00  0.00     0.026 A 
ATOM      9  C   UNL d   1     -50.538  12.757  22.613  0.00  0.00     0.002 A 
ATOM     10  C   UNL d   1     -50.810  12.268  23.216  0.00  0.00     0.002 A 
ATOM     11  C   UNL d   1     -51.064  13.261  22.210  0.00  0.00     0.000 C 
ENDROOT
BRANCH   1  12
ATOM     12  C   UNL d   1     -47.938  12.538  22.152  0.00  0.00     0.085 C 
BRANCH  12  13
ATOM     13  C   UNL d   1     -47.376  13.083  22.403  0.00  0.00     0.018 A 
ATOM     14  C   UNL d   1     -47.611  13.835  22.634  0.00  0.00     0.002 A 
ATOM     15  C   UNL d   1     -47.040  14.380  22.885  0.00  0.00     0.000 A 
ATOM     16  C   UNL d   1     -46.243  14.165  22.901  0.00  0.00     0.000 A 
ATOM     17  C   UNL d   1     -46.016  13.409  22.668  0.00  0.00     0.000 A 
ATOM     18  C   UNL d   1     -46.581  12.865  22.417  0.00  0.00     0.002 A 
ENDBRANCH  12  13
ENDBRANCH   1  12
TORSDOF 2
ENDMDL
MODEL 2
REMARK VINA RESULT:      -8.5      0.956      3.121
REMARK  2 active torsions:
REMARK  status: ('A' for Active; 'I' for Inactive)
REMARK    1  A    between atoms: C_6  and  N_1 
REMARK    2  A    between atoms: C_11  and  C_6 
ROOT
ATOM      1  N   UNL d   1     -48.627  12.430  22.165  0.00  0.00    -0.251 N 
ATOM      2  C   UNL d   1     -48.937  11.744  22.520  0.00  0.00     0.378 A 
ATOM      3  C   UNL d   1     -47.897  12.586  22.523  0.00  0.00     0.092 A 
ATOM      4  O   UNL d   1     -48.405  11.478  23.093  0.00  0.00    -0.258 OA
ATOM      5  C   UNL d   1     -47.755  12.001  23.098  0.00  0.00     0.121 A 
ATOM      6  O   UNL d   1     -49.657  11.396  22.325  0.00  0.00    -0.237 OA
ATOM      7  C   UNL d   1     -47.344  13.185  22.402  0.00  0.00     0.020 A 
ATOM      8  C   UNL d   1     -47.061  12.022  23.543  0.00  0.00     0.026 A 
ATOM      9  C   UNL d   1     -46.652  13.198  22.852  0.00  0.00     0.002 A 
ATOM     10  C   UNL d   1     -46.511  12.620  23.420  0.00  0.00     0.002 A 
ATOM     11  C   UNL d   1     -46.096  13.806  22.725  0.00  0.00     0.000 C 
ENDROOT
BRANCH   1  12
ATOM     12  C   UNL d   1     -48.948  12.899  21.566  0.00  0.00     0.085 C 
BRANCH  12  13
ATOM     13  C   UNL d   1     -49.619  13.350  21.716  0.00  0.00     0.018 A 
ATOM     14  C   UNL d   1     -49.544  14.092  22.060  0.00  0.00     0.002 A 
ATOM     15  C   UNL d   1     -50.223  14.542  22.208  0.00  0.00     0.000 A 
ATOM     16  C   UNL d   1     -50.967  14.244  22.010  0.00  0.00     0.000 A 
ATOM     17  C   UNL d   1     -51.034  13.499  21.665  0.00  0.00     0.000 A 
ATOM     18  C   UNL d   1     -50.360  13.049  21.516  0.00  0.00     0.002 A 
ENDBRANCH  12  13
ENDBRANCH   1  12
TORSDOF 2
ENDMDL
MODEL 3
REMARK VINA RESULT:      -8.4      0.900      1.254
REMARK  2 active torsions:
REMARK  status: ('A' for Active; 'I' for Inactive)
REMARK    1  A    between atoms: C_6  and  N_1 
REMARK    2  A    between atoms: C_11  and  C_6 
ROOT
ATOM      1  N   UNL d   1     -48.556  12.477  22.968  0.00  0.00    -0.251 N 
ATOM      2  C   UNL d   1     -48.530  11.671  22.763  0.00  0.00     0.378 A 
ATOM      3  C   UNL d   1     -49.211  12.809  22.585  0.00  0.00     0.092 A 
ATOM      4  O   UNL d   1     -49.163  11.505  22.258  0.00  0.00    -0.258 OA
ATOM      5  C   UNL d   1     -49.590  12.213  22.145  0.00  0.00     0.121 A 
ATOM      6  O   UNL d   1     -47.964  11.135  23.026  0.00  0.00    -0.237 OA
ATOM      7  C   UNL d   1     -49.512  13.577  22.581  0.00  0.00     0.020 A 
ATOM      8  C   UNL d   1     -50.264  12.392  21.706  0.00  0.00     0.026 A 
ATOM      9  C   UNL d   1     -50.188  13.747  22.137  0.00  0.00     0.002 A 
ATOM     10  C   UNL d   1     -50.562  13.157  21.702  0.00  0.00     0.002 A 
ATOM     11  C   UNL d   1     -50.487  14.524  22.136  0.00  0.00     0.000 C 
ENDROOT
BRANCH   1  12
ATOM     12  C   UNL d   1     -48.049  12.908  23.456  0.00  0.00     0.085 C 
BRANCH  12  13
ATOM     13  C   UNL d   1     -47.312  13.140  23.176  0.00  0.00     0.018 A 
ATOM     14  C   UNL d   1     -46.710  12.587  23.101  0.00  0.00     0.002 A 
ATOM     15  C   UNL d   1     -45.970  12.827  22.818  0.00  0.00     0.000 A 
ATOM     16  C   UNL d   1     -45.842  13.617  22.615  0.00  0.00     0.000 A 
ATOM     17  C   UNL d   1     -46.450  14.166  22.694  0.00  0.00     0.000 A 
ATOM     18  C   UNL d   1     -47.188  13.930  22.975  0.00  0.00     0.002 A 
ENDBRANCH  12  13
ENDBRANCH   1  12
TORSDOF 2
ENDMDL
MODEL 4
REMARK VINA RESULT:      -8.4      1.668      3.685
REMARK  2 active torsions:
REMARK  status: ('A' for Active; 'I' for Inactive)
REMARK    1  A    between atoms: C_6  and  N_1 
REMARK    2  A    between atoms: C_11  and  C_6 
ROOT
ATOM      1  N   UNL d   1     -48.436  14.036  22.966  0.00  0.00    -0.251 N 
ATOM      2  C   UNL d   1     -48.226  14.778  22.655  0.00  0.00     0.378 A 
ATOM      3  C   UNL d   1     -47.739  13.595  23.047  0.00  0.00     0.092 A 
ATOM      4  O   UNL d   1     -47.407  14.798  22.543  0.00  0.00    -0.258 OA
ATOM      5  C   UNL d   1     -47.101  14.061  22.787  0.00  0.00     0.121 A 
ATOM      6  O   UNL d   1     -48.754  15.387  22.488  0.00  0.00    -0.237 OA
ATOM      7  C   UNL d   1     -47.603  12.830  23.324  0.00  0.00     0.020 A 
ATOM      8  C   UNL d   1     -46.334  13.757  22.807  0.00  0.00     0.026 A 
ATOM      9  C   UNL d   1     -46.833  12.534  23.340  0.00  0.00     0.002 A 
ATOM     10  C   UNL d   1     -46.201  12.995  23.083  0.00  0.00     0.002 A 
ATOM     11  C   UNL d   1     -46.701  11.761  23.621  0.00  0.00     0.000 C 
ENDROOT
BRANCH   1  12
ATOM     12  C   UNL d   1     -49.182  13.748  23.171  0.00  0.00     0.085 C 
BRANCH  12  13
ATOM     13  C   UNL d   1     -49.738  13.598  22.585  0.00  0.00     0.018 A 
ATOM     14  C   UNL d   1     -49.694  12.906  22.146  0.00  0.00     0.002 A 
ATOM     15  C   UNL d   1     -50.257  12.761  21.557  0.00  0.00     0.000 A 
ATOM     16  C   UNL d   1     -50.856  13.311  21.415  0.00  0.00     0.000 A 
ATOM     17  C   UNL d   1     -50.894  14.003  21.859  0.00  0.00     0.000 A 
ATOM     18  C   UNL d   1     -50.335  14.150  22.446  0.00  0.00     0.002 A 
ENDBRANCH  12  13
ENDBRANCH   1  12
TORSDOF 2
ENDMDL
MODEL 5
REMARK VINA RESULT:      -6.4      8.915     10.342
REMARK  2 active torsions:
REMARK  status: ('A' for Active; 'I' for Inactive)
REMARK    1  A    between atoms: C_6  and  N_1 
REMARK    2  A    between atoms: C_11  and  C_6 
ROOT
ATOM      1  N   UNL d   1     -40.292  14.696  18.267  0.00  0.00    -0.251 N 
ATOM      2  C   UNL d   1     -40.512  15.348  17.800  0.00  0.00     0.378 A 
ATOM      3  C   UNL d   1     -39.730  14.263  17.839  0.00  0.00     0.092 A 
ATOM      4  O   UNL d   1     -40.091  15.321  17.090  0.00  0.00    -0.258 OA
ATOM      5  C   UNL d   1     -39.602  14.645  17.111  0.00  0.00     0.121 A 
ATOM      6  O   UNL d   1     -41.060  15.922  18.019  0.00  0.00    -0.237 OA
ATOM      7  C   UNL d   1     -39.319  13.571  18.018  0.00  0.00     0.020 A 
ATOM      8  C   UNL d   1     -39.064  14.331  16.571  0.00  0.00     0.026 A 
ATOM      9  C   UNL d   1     -38.782  13.264  17.471  0.00  0.00     0.002 A 
ATOM     10  C   UNL d   1     -38.655  13.642  16.751  0.00  0.00     0.002 A 
ATOM     11  C   UNL d   1     -38.369  12.565  17.656  0.00  0.00     0.000 C 
ENDROOT
BRANCH   1  12
ATOM     12  C   UNL d   1     -40.556  14.478  19.018  0.00  0.00     0.085 C 
BRANCH  12  13
ATOM     13  C   UNL d   1     -40.381  14.953  19.666  0.00  0.00     0.018 A 
ATOM     14  C   UNL d   1     -39.630  14.932  19.997  0.00  0.00     0.002 A 
ATOM     15  C   UNL d   1     -39.459  15.412  20.650  0.00  0.00     0.000 A 
ATOM     16  C   UNL d   1     -40.042  15.906  20.962  0.00  0.00     0.000 A 
ATOM     17  C   UNL d   1     -40.793  15.922  20.625  0.00  0.00     0.000 A 
ATOM     18  C   UNL d   1     -40.965  15.445  19.976  0.00  0.00     0.002 A 
ENDBRANCH  12  13
ENDBRANCH   1  12
TORSDOF 2
ENDMDL
MODEL 6
REMARK VINA RESULT:      -6.3      9.006     10.021
REMARK  2 active torsions:
REMARK  status: ('A' for Active; 'I' for Inactive)
REMARK    1  A    between atoms: C_6  and  N_1 
REMARK    2  A    between atoms: C_11  and  C_6 
ROOT
ATOM      1  N   UNL d   1     -40.510  14.656  18.381  0.00  0.00    -0.251 N 
ATOM      2  C   UNL d   1     -40.792  15.338  17.996  0.00  0.00     0.378 A 
ATOM      3  C   UNL d   1     -40.481  14.823  19.192  0.00  0.00     0.092 A 
ATOM      4  O   UNL d   1     -40.937  15.922  18.562  0.00  0.00    -0.258 OA
ATOM      5  C   UNL d   1     -40.744  15.604  19.309  0.00  0.00     0.121 A 
ATOM      6  O   UNL d   1     -40.905  15.409  17.184  0.00  0.00    -0.237 OA
ATOM      7  C   UNL d   1     -40.250  14.366  19.838  0.00  0.00     0.020 A 
ATOM      8  C   UNL d   1     -40.772  15.918  20.071  0.00  0.00     0.026 A 
ATOM      9  C   UNL d   1     -40.281  14.688  20.597  0.00  0.00     0.002 A 
ATOM     10  C   UNL d   1     -40.541  15.461  20.714  0.00  0.00     0.002 A 
ATOM     11  C   UNL d   1     -40.047  14.222  21.246  0.00  0.00     0.000 C 
ENDROOT
BRANCH   1  12
ATOM     12  C   UNL d   1     -40.288  13.929  18.059  0.00  0.00     0.085 C 
BRANCH  12  13
ATOM     13  C   UNL d   1     -39.567  13.857  17.670  0.00  0.00     0.018 A 
ATOM     14  C   UNL d   1     -39.446  14.246  16.958  0.00  0.00     0.002 A 
ATOM     15  C   UNL d   1     -38.718  14.170  16.571  0.00  0.00     0.000 A 
ATOM     16  C   UNL d   1     -38.122  13.704  16.902  0.00  0.00     0.000 A 
ATOM     17  C   UNL d   1     -38.251  13.316  17.617  0.00  0.00     0.000 A 
ATOM     18  C   UNL d   1     -38.974  13.391  18.004  0.00  0.00     0.002 A 
ENDBRANCH  12  13
ENDBRANCH   1  12
TORSDOF 2
ENDMDL
MODEL 7
REMARK VINA RESULT:      -6.2      9.052      9.844
REMARK  2 active torsions:
REMARK  status: ('A' for Active; 'I' for Inactive)
REMARK    1  A    between atoms: C_6  and  N_1 
REMARK    2  A    between atoms: C_11  and  C_6 
ROOT
ATOM      1  N   UNL d   1     -40.019  14.337  18.772  0.00  0.00    -0.251 N 
ATOM      2  C   UNL d   1     -39.241  14.044  18.743  0.00  0.00     0.378 A 
ATOM      3  C   UNL d   1     -40.170  14.714  18.050  0.00  0.00     0.092 A 
ATOM      4  O   UNL d   1     -38.911  14.238  18.011  0.00  0.00    -0.258 OA
ATOM      5  C   UNL d   1     -39.488  14.656  17.576  0.00  0.00     0.121 A 
ATOM      6  O   UNL d   1     -38.869  13.631  19.349  0.00  0.00    -0.237 OA
ATOM      7  C   UNL d   1     -40.838  15.103  17.763  0.00  0.00     0.020 A 
ATOM      8  C   UNL d   1     -39.484  14.988  16.821  0.00  0.00     0.026 A 
ATOM      9  C   UNL d   1     -40.824  15.432  17.006  0.00  0.00     0.002 A 
ATOM     10  C   UNL d   1     -40.150  15.374  16.537  0.00  0.00     0.002 A 
ATOM     11  C   UNL d   1     -41.502  15.823  16.721  0.00  0.00     0.000 C 
ENDROOT
BRANCH   1  12
ATOM     12  C   UNL d   1     -40.574  14.285  19.381  0.00  0.00     0.085 C 
BRANCH  12  13
ATOM     13  C   UNL d   1     -40.464  14.716  20.072  0.00  0.00     0.018 A 
ATOM     14  C   UNL d   1     -40.773  15.474  20.136  0.00  0.00     0.002 A 
ATOM     15  C   UNL d   1     -40.658  15.903  20.835  0.00  0.00     0.000 A 
ATOM     16  C   UNL d   1     -40.235  15.567  21.460  0.00  0.00     0.000 A 
ATOM     17  C   UNL d   1     -39.929  14.807  21.389  0.00  0.00     0.000 A 
ATOM     18  C   UNL d   1     -40.041  14.378  20.695  0.00  0.00     0.002 A 
ENDBRANCH  12  13
ENDBRANCH   1  12
TORSDOF 2
ENDMDL
MODEL 8
REMARK VINA RESULT:      -6.0      8.487      9.807
REMARK  2 active torsions:
REMARK  status: ('A' for Active; 'I' for Inactive)
REMARK    1  A    between atoms: C_6  and  N_1 
REMARK    2  A    between atoms: C_11  and  C_6 
ROOT
ATOM      1  N   UNL d   1     -39.907  14.251  19.155  0.00  0.00    -0.251 N 
ATOM      2  C   UNL d   1     -39.140  13.946  19.258  0.00  0.00     0.378 A 
ATOM      3  C   UNL d   1     -40.093  14.686  19.835  0.00  0.00     0.092 A 
ATOM      4  O   UNL d   1     -38.853  14.189  19.994  0.00  0.00    -0.258 OA
ATOM      5  C   UNL d   1     -39.446  14.651  20.357  0.00  0.00     0.121 A 
ATOM      6  O   UNL d   1     -38.740  13.480  18.710  0.00  0.00    -0.237 OA
ATOM      7  C   UNL d   1     -40.769  15.109  20.047  0.00  0.00     0.020 A 
ATOM      8  C   UNL d   1     -39.481  15.039  21.083  0.00  0.00     0.026 A 
ATOM      9  C   UNL d   1     -40.795  15.495  20.777  0.00  0.00     0.002 A 
ATOM     10  C   UNL d   1     -40.155  15.460  21.293  0.00  0.00     0.002 A 
ATOM     11  C   UNL d   1     -41.480  15.921  20.986  0.00  0.00     0.000 C 
ENDROOT
BRANCH   1  12
ATOM     12  C   UNL d   1     -40.422  14.165  18.516  0.00  0.00     0.085 C 
BRANCH  12  13
ATOM     13  C   UNL d   1     -40.305  14.608  17.834  0.00  0.00     0.018 A 
ATOM     14  C   UNL d   1     -39.646  14.470  17.365  0.00  0.00     0.002 A 
ATOM     15  C   UNL d   1     -39.533  14.919  16.679  0.00  0.00     0.000 A 
ATOM     16  C   UNL d   1     -40.082  15.500  16.471  0.00  0.00     0.000 A 
ATOM     17  C   UNL d   1     -40.741  15.632  16.946  0.00  0.00     0.000 A 
ATOM     18  C   UNL d   1     -40.855  15.187  17.629  0.00  0.00     0.002 A 
ENDBRANCH  12  13
ENDBRANCH   1  12
TORSDOF 2
ENDMDL
MODEL 9
REMARK VINA RESULT:      -5.7      8.851      9.704
REMARK  2 active torsions:
REMARK  status: ('A' for Active; 'I' for Inactive)
REMARK    1  A    between atoms: C_6  and  N_1 
REMARK    2  A    between atoms: C_11  and  C_6 
ROOT
ATOM      1  N   UNL d   1     -40.444  14.803  20.134  0.00  0.00    -0.251 N 
ATOM      2  C   UNL d   1     -40.766  15.565  20.215  0.00  0.00     0.378 A 
ATOM      3  C   UNL d   1     -39.920  14.687  20.765  0.00  0.00     0.092 A 
ATOM      4  O   UNL d   1     -40.445  15.919  20.889  0.00  0.00    -0.258 OA
ATOM      5  C   UNL d   1     -39.917  15.373  21.235  0.00  0.00     0.121 A 
ATOM      6  O   UNL d   1     -41.314  15.903  19.702  0.00  0.00    -0.237 OA
ATOM      7  C   UNL d   1     -39.445  14.045  20.973  0.00  0.00     0.020 A 
ATOM      8  C   UNL d   1     -39.440  15.410  21.906  0.00  0.00     0.026 A 
ATOM      9  C   UNL d   1     -38.970  14.091  21.647  0.00  0.00     0.002 A 
ATOM     10  C   UNL d   1     -38.968  14.770  22.111  0.00  0.00     0.002 A 
ATOM     11  C   UNL d   1     -38.493  13.440  21.852  0.00  0.00     0.000 C 
ENDROOT
BRANCH   1  12
ATOM     12  C   UNL d   1     -40.587  14.234  19.553  0.00  0.00     0.085 C 
BRANCH  12  13
ATOM     13  C   UNL d   1     -40.322  14.357  18.785  0.00  0.00     0.018 A 
ATOM     14  C   UNL d   1     -40.784  14.783  18.257  0.00  0.00     0.002 A 
ATOM     15  C   UNL d   1     -40.512  14.904  17.484  0.00  0.00     0.000 A 
ATOM     16  C   UNL d   1     -39.781  14.598  17.251  0.00  0.00     0.000 A 
ATOM     17  C   UNL d   1     -39.324  14.172  17.787  0.00  0.00     0.000 A 
ATOM     18  C   UNL d   1     -39.592  14.050  18.556  0.00  0.00     0.002 A 
ENDBRANCH  12  13
ENDBRANCH   1  12
TORSDOF 2
ENDMDL
