MODEL 1
REMARK VINA RESULT:     109.8      0.000      0.000
REMARK  5 active torsions:
REMARK  status: ('A' for Active; 'I' for Inactive)
REMARK    1  A    between atoms: C_3  and  C_1 
REMARK    2  A    between atoms: N_2  and  C_11 
REMARK    3  A    between atoms: N_6  and  C_3 
REMARK    4  A    between atoms: C_14  and  C_5 
REMARK    5  A    between atoms: C_10  and  N_7 
ROOT
ATOM      1  C   UNL d   1      61.660  48.046  49.982  0.00  0.00     0.143 C 
ATOM      2  S   UNL d   1      62.276  48.402  49.597  0.00  0.00    -0.057 SA
ENDROOT
BRANCH   1   3
ATOM      3  C   UNL d   1      61.033  48.471  50.257  0.00  0.00     0.126 A 
ATOM      4  O   UNL d   1      60.219  48.332  50.192  0.00  0.00    -0.305 OA
ATOM      5  C   UNL d   1      59.832  48.955  50.582  0.00  0.00     0.100 A 
ATOM      6  C   UNL d   1      60.381  49.447  50.869  0.00  0.00     0.027 A 
ATOM      7  C   UNL d   1      61.137  49.164  50.678  0.00  0.00     0.029 A 
BRANCH   5   8
ATOM      8  C   UNL d   1      59.047  49.113  50.697  0.00  0.00     0.023 A 
ATOM      9  C   UNL d   1      58.791  49.535  51.368  0.00  0.00     0.004 A 
ATOM     10  C   UNL d   1      57.985  49.690  51.474  0.00  0.00     0.024 A 
ATOM     11  C   UNL d   1      57.425  49.434  50.924  0.00  0.00     0.127 A 
ATOM     12  C   UNL d   1      57.699  49.009  50.250  0.00  0.00     0.024 A 
ATOM     13  C   UNL d   1      58.487  48.857  50.146  0.00  0.00     0.004 A 
BRANCH  11  14
ATOM     14  N   UNL d   1      56.640  49.592  51.039  0.00  0.00    -0.114 N 
ATOM     15  O   UNL d   1      56.284  49.707  51.785  0.00  0.00    -0.532 OA
ATOM     16  O   UNL d   1      56.086  49.662  50.439  0.00  0.00    -0.532 OA
ENDBRANCH  11  14
ENDBRANCH   5   8
ENDBRANCH   1   3
BRANCH   1  17
ATOM     17  N   UNL d   1      61.665  47.202  50.104  0.00  0.00    -0.291 N 
ATOM     18  C   UNL d   1      62.208  46.729  49.689  0.00  0.00     0.100 A 
ATOM     19  C   UNL d   1      62.221  45.914  49.800  0.00  0.00     0.100 A 
ATOM     20  N   UNL d   1      61.686  45.569  50.332  0.00  0.00    -0.301 N 
ATOM     21  C   UNL d   1      61.159  46.032  50.734  0.00  0.00     0.100 A 
ATOM     22  C   UNL d   1      61.147  46.851  50.621  0.00  0.00     0.100 A 
BRANCH  20  23
ATOM     23  C   UNL d   1      61.700  44.753  50.442  0.00  0.00     0.064 A 
ATOM     24  C   UNL d   1      61.255  44.454  51.076  0.00  0.00     0.016 A 
ATOM     25  C   UNL d   1      60.811  44.941  51.583  0.00  0.00     0.002 C 
ATOM     26  C   UNL d   1      61.254  43.644  51.204  0.00  0.00     0.001 A 
ATOM     27  C   UNL d   1      61.693  43.133  50.708  0.00  0.00     0.000 A 
ATOM     28  C   UNL d   1      62.122  43.445  50.093  0.00  0.00     0.002 A 
ATOM     29  C   UNL d   1      62.125  44.252  49.961  0.00  0.00     0.018 A 
ENDBRANCH  20  23
ENDBRANCH   1  17
TORSDOF 5
ENDMDL
