MODEL 1
REMARK VINA RESULT:     103.0      0.000      0.000
REMARK  5 active torsions:
REMARK  status: ('A' for Active; 'I' for Inactive)
REMARK    1  A    between atoms: C_10  and  N_1 
REMARK    2  A    between atoms: C_7  and  C_2 
REMARK    3  A    between atoms: C_3  and  C_11 
REMARK    4  A    between atoms: O_14  and  C_10 
REMARK    5  A    between atoms: C_11  and  O_14 
ROOT
ATOM      1  C   UNL d   1     -56.768-100.737 -44.084  0.00  0.00     0.305 C 
ATOM      2  O   UNL d   1     -57.383-101.177 -44.424  0.00  0.00    -0.259 OA
ENDROOT
BRANCH   1   3
ATOM      3  C   UNL d   1     -56.517-100.038 -44.436  0.00  0.00     0.108 A 
ATOM      4  C   UNL d   1     -56.956 -99.338 -44.501  0.00  0.00     0.118 A 
ATOM      5  N   UNL d   1     -56.502 -98.778 -44.889  0.00  0.00    -0.126 NA
ATOM      6  O   UNL d   1     -55.771 -99.137 -45.066  0.00  0.00    -0.211 OA
ATOM      7  C   UNL d   1     -55.787 -99.910 -44.786  0.00  0.00     0.132 A 
ATOM      8  C   UNL d   1     -55.178-100.453 -44.848  0.00  0.00     0.029 C 
BRANCH   4   9
ATOM      9  C   UNL d   1     -57.724 -99.219 -44.223  0.00  0.00     0.058 A 
ATOM     10  C   UNL d   1     -57.851 -99.002 -43.442  0.00  0.00     0.061 A 
ATOM     11 CL   UNL d   1     -57.508 -98.811 -42.664  0.00  0.00    -0.082 Cl
ATOM     12  C   UNL d   1     -58.611 -98.882 -43.160  0.00  0.00     0.012 A 
ATOM     13  C   UNL d   1     -59.250 -98.983 -43.668  0.00  0.00     0.003 A 
ATOM     14  C   UNL d   1     -59.128 -99.205 -44.466  0.00  0.00     0.030 A 
ATOM     15  C   UNL d   1     -58.367 -99.320 -44.733  0.00  0.00     0.142 A 
ATOM     16  F   UNL d   1     -58.230 -99.538 -45.514  0.00  0.00    -0.204 F 
ENDBRANCH   4   9
ENDBRANCH   1   3
BRANCH   1  17
ATOM     17  O   UNL d   1     -56.405-101.005 -43.385  0.00  0.00    -0.252 OA
BRANCH  17  18
ATOM     18  C   UNL d   1     -56.502-101.794 -43.147  0.00  0.00     0.216 C 
BRANCH  18  19
ATOM     19  N   UNL d   1     -56.205-102.042 -42.415  0.00  0.00    -0.218 N 
ATOM     20  C   UNL d   1     -56.649-102.232 -41.753  0.00  0.00     0.269 A 
ATOM     21  C   UNL d   1     -56.133-102.451 -41.146  0.00  0.00     0.061 A 
ATOM     22  O   UNL d   1     -57.479-102.209 -41.700  0.00  0.00    -0.267 OA
ATOM     23  C   UNL d   1     -56.260-102.694 -40.367  0.00  0.00     0.005 A 
ATOM     24  C   UNL d   1     -55.357-102.393 -41.441  0.00  0.00     0.061 A 
ATOM     25  C   UNL d   1     -55.621-102.878 -39.885  0.00  0.00     0.000 A 
ATOM     26  C   UNL d   1     -54.845-102.821 -40.180  0.00  0.00     0.000 A 
ATOM     27  C   UNL d   1     -54.716-102.580 -40.955  0.00  0.00     0.005 A 
ATOM     28  C   UNL d   1     -55.396-102.140 -42.230  0.00  0.00     0.269 A 
ATOM     29  O   UNL d   1     -54.762-102.009 -42.735  0.00  0.00    -0.267 OA
ENDBRANCH  18  19
ENDBRANCH  17  18
ENDBRANCH   1  17
TORSDOF 5
ENDMDL
