MODEL 1
REMARK VINA RESULT:      33.3      0.000      0.000
REMARK  4 active torsions:
REMARK  status: ('A' for Active; 'I' for Inactive)
REMARK    1  A    between atoms: C_3  and  C_1 
REMARK       I    between atoms: N_6  and  C_3 
REMARK    2  A    between atoms: C_12  and  N_5 
REMARK    3  A    between atoms: C_8  and  N_6 
REMARK    4  A    between atoms: S_11  and  C_10 
ROOT
ATOM      1  C   UNL d   1     -52.885  25.513  33.596  0.00  0.00     0.348 C 
ATOM      2  N   UNL d   1     -52.078  25.721  33.593  0.00  0.00    -0.363 NA
ATOM      3  O   UNL d   1     -53.476  26.096  33.402  0.00  0.00    -0.249 OA
ENDROOT
BRANCH   1   4
ATOM      4  C   UNL d   1     -53.104  24.731  33.791  0.00  0.00     0.173 A 
ATOM      5  N   UNL d   1     -53.458  24.487  34.505  0.00  0.00    -0.159 NA
ATOM      6  N   UNL d   1     -53.575  23.665  34.453  0.00  0.00    -0.227 N 
ATOM      7  C   UNL d   1     -53.298  23.409  33.721  0.00  0.00     0.102 A 
ATOM      8  C   UNL d   1     -53.006  24.065  33.308  0.00  0.00     0.048 A 
BRANCH   6   9
ATOM      9  C   UNL d   1     -53.913  23.188  35.040  0.00  0.00     0.101 C 
ATOM     10  C   UNL d   1     -53.962  23.227  35.863  0.00  0.00     0.022 C 
ENDBRANCH   6   9
ENDBRANCH   1   4
BRANCH   2  11
ATOM     11  C   UNL d   1     -51.318  26.187  33.518  0.00  0.00     0.141 A 
ATOM     12  C   UNL d   1     -50.610  25.779  33.601  0.00  0.00     0.055 A 
ATOM     13  C   UNL d   1     -49.913  26.177  33.538  0.00  0.00     0.009 A 
ATOM     14  C   UNL d   1     -49.913  26.991  33.389  0.00  0.00     0.001 A 
ATOM     15  C   UNL d   1     -50.617  27.387  33.308  0.00  0.00     0.003 A 
ATOM     16  C   UNL d   1     -51.323  26.977  33.374  0.00  0.00     0.033 A 
BRANCH  12  17
ATOM     17  S   UNL d   1     -50.603  24.963  33.750  0.00  0.00    -0.110 SA
ATOM     18  C   UNL d   1     -50.042  24.463  33.391  0.00  0.00     0.074 C 
ENDBRANCH  12  17
ENDBRANCH   2  11
TORSDOF 4
ENDMDL
