MODEL 1
REMARK VINA RESULT:      57.7      0.000      0.000
REMARK  2 active torsions:
REMARK  status: ('A' for Active; 'I' for Inactive)
REMARK       I    between atoms: N_2  and  C_1 
REMARK       I    between atoms: N_3  and  C_1 
REMARK    1  A    between atoms: C_12  and  N_3 
REMARK    2  A    between atoms: C_5  and  N_4 
ROOT
ATOM      1  C   UNL d   1      13.953  13.132  -2.605  0.00  0.00     0.339 C 
ATOM      2  N   UNL d   1      13.847  13.666  -3.224  0.00  0.00    -0.254 N 
ATOM      3  N   UNL d   1      14.236  13.392  -1.874  0.00  0.00    -0.257 N 
ATOM      4  N   UNL d   1      13.633  14.743  -4.473  0.00  0.00    -0.286 N 
ATOM      5  O   UNL d   1      13.771  12.331  -2.726  0.00  0.00    -0.245 OA
ATOM      6  C   UNL d   1      13.563  13.409  -3.958  0.00  0.00     0.104 A 
ATOM      7  C   UNL d   1      14.025  14.475  -3.118  0.00  0.00     0.104 A 
ATOM      8  C   UNL d   1      13.457  13.944  -4.577  0.00  0.00     0.101 A 
ATOM      9  C   UNL d   1      13.918  15.012  -3.741  0.00  0.00     0.101 A 
ATOM     10  C   UNL d   1      14.414  14.183  -1.761  0.00  0.00     0.104 C 
ENDROOT
BRANCH   3  11
ATOM     11  C   UNL d   1      14.342  12.849  -1.251  0.00  0.00     0.068 A 
ATOM     12  C   UNL d   1      13.734  12.320  -1.052  0.00  0.00     0.018 A 
ATOM     13  C   UNL d   1      13.850  11.787  -0.433  0.00  0.00     0.002 A 
ATOM     14  C   UNL d   1      14.563  11.779  -0.014  0.00  0.00     0.000 A 
ATOM     15  C   UNL d   1      15.162  12.313  -0.224  0.00  0.00     0.002 A 
ATOM     16  C   UNL d   1      15.049  12.848  -0.842  0.00  0.00     0.018 A 
ENDBRANCH   3  11
BRANCH   4  17
ATOM     17  C   UNL d   1      13.526  15.277  -5.093  0.00  0.00     0.148 A 
ATOM     18  N   UNL d   1      12.881  15.779  -5.082  0.00  0.00    -0.227 NA
ATOM     19  C   UNL d   1      12.775  16.311  -5.699  0.00  0.00     0.101 A 
ATOM     20  C   UNL d   1      13.305  16.339  -6.313  0.00  0.00     0.021 A 
ATOM     21  C   UNL d   1      13.953  15.830  -6.315  0.00  0.00     0.005 A 
ATOM     22  C   UNL d   1      14.057  15.304  -5.704  0.00  0.00     0.037 A 
ENDBRANCH   4  17
TORSDOF 2
ENDMDL
MODEL 2
REMARK VINA RESULT:      58.5      2.045      3.375
REMARK  2 active torsions:
REMARK  status: ('A' for Active; 'I' for Inactive)
REMARK       I    between atoms: N_2  and  C_1 
REMARK       I    between atoms: N_3  and  C_1 
REMARK    1  A    between atoms: C_12  and  N_3 
REMARK    2  A    between atoms: C_5  and  N_4 
ROOT
ATOM      1  C   UNL d   1      14.616  14.993  -1.872  0.00  0.00     0.339 C 
ATOM      2  N   UNL d   1      14.332  14.485  -2.457  0.00  0.00    -0.254 N 
ATOM      3  N   UNL d   1      14.729  15.795  -2.035  0.00  0.00    -0.257 N 
ATOM      4  N   UNL d   1      13.758  13.462  -3.636  0.00  0.00    -0.286 N 
ATOM      5  O   UNL d   1      14.787  14.687  -1.120  0.00  0.00    -0.245 OA
ATOM      6  C   UNL d   1      14.217  13.682  -2.298  0.00  0.00     0.104 A 
ATOM      7  C   UNL d   1      14.155  14.778  -3.219  0.00  0.00     0.104 A 
ATOM      8  C   UNL d   1      13.932  13.174  -2.883  0.00  0.00     0.101 A 
ATOM      9  C   UNL d   1      13.869  14.268  -3.807  0.00  0.00     0.101 A 
ATOM     10  C   UNL d   1      14.559  16.090  -2.780  0.00  0.00     0.104 C 
ENDROOT
BRANCH   3  11
ATOM     11  C   UNL d   1      15.017  16.304  -1.442  0.00  0.00     0.068 A 
ATOM     12  C   UNL d   1      15.351  15.989  -0.750  0.00  0.00     0.018 A 
ATOM     13  C   UNL d   1      15.633  16.503  -0.169  0.00  0.00     0.002 A 
ATOM     14  C   UNL d   1      15.583  17.322  -0.274  0.00  0.00     0.000 A 
ATOM     15  C   UNL d   1      15.248  17.622  -0.970  0.00  0.00     0.002 A 
ATOM     16  C   UNL d   1      14.965  17.111  -1.553  0.00  0.00     0.018 A 
ENDBRANCH   3  11
BRANCH   4  17
ATOM     17  C   UNL d   1      13.473  12.955  -4.221  0.00  0.00     0.148 A 
ATOM     18  N   UNL d   1      13.613  13.132  -5.007  0.00  0.00    -0.227 NA
ATOM     19  C   UNL d   1      13.330  12.627  -5.589  0.00  0.00     0.101 A 
ATOM     20  C   UNL d   1      12.915  11.958  -5.388  0.00  0.00     0.021 A 
ATOM     21  C   UNL d   1      12.779  11.789  -4.593  0.00  0.00     0.005 A 
ATOM     22  C   UNL d   1      13.059  12.289  -4.017  0.00  0.00     0.037 A 
ENDBRANCH   4  17
TORSDOF 2
ENDMDL
