MODEL 1
REMARK VINA RESULT:      -3.4      0.000      0.000
REMARK  4 active torsions:
REMARK  status: ('A' for Active; 'I' for Inactive)
REMARK    1  A    between atoms: C_7  and  C_5 
REMARK    2  A    between atoms: C_8  and  C_7 
REMARK    3  A    between atoms: C_10  and  C_8 
REMARK    4  A    between atoms: O_18  and  C_11 
ROOT
ATOM      1  C   UNL d   1      32.130  18.120 -24.103  0.00  0.00     0.303 A 
ATOM      2  N   UNL d   1      33.184  18.119 -22.830  0.00  0.00    -0.222 NA
ATOM      3  O   UNL d   1      32.365  18.834 -23.760  0.00  0.00    -0.255 OA
ATOM      4  C   UNL d   1      32.422  17.405 -23.808  0.00  0.00     0.081 A 
ATOM      5  C   UNL d   1      32.889  18.833 -23.128  0.00  0.00     0.186 A 
ATOM      6  C   UNL d   1      32.946  17.404 -23.176  0.00  0.00     0.089 A 
ATOM      7  O   UNL d   1      31.601  18.121 -24.741  0.00  0.00    -0.259 OA
ATOM      8  C   UNL d   1      32.186  16.698 -24.151  0.00  0.00     0.007 A 
ATOM      9  C   UNL d   1      33.241  16.697 -22.878  0.00  0.00     0.019 A 
ATOM     10  C   UNL d   1      32.479  15.984 -23.856  0.00  0.00     0.000 A 
ATOM     11  C   UNL d   1      33.003  15.983 -23.224  0.00  0.00     0.002 A 
ENDROOT
BRANCH   5  12
ATOM     12  C   UNL d   1      33.137  19.560 -22.769  0.00  0.00     0.045 C 
BRANCH  12  13
ATOM     13  C   UNL d   1      32.861  19.755 -22.017  0.00  0.00     0.004 C 
BRANCH  13  14
ATOM     14  C   UNL d   1      32.870  20.538 -21.759  0.00  0.00     0.000 A 
ATOM     15  C   UNL d   1      32.524  20.741 -21.043  0.00  0.00     0.002 A 
ATOM     16  C   UNL d   1      32.533  21.525 -20.785  0.00  0.00     0.024 A 
ATOM     17  C   UNL d   1      32.893  22.108 -21.251  0.00  0.00     0.094 A 
ATOM     18  C   UNL d   1      33.241  21.902 -21.971  0.00  0.00     0.024 A 
ATOM     19  C   UNL d   1      33.230  21.121 -22.226  0.00  0.00     0.002 A 
BRANCH  17  20
ATOM     20  O   UNL d   1      32.899  22.903 -20.984  0.00  0.00    -0.328 OA
ATOM     21  C   UNL d   1      32.201  23.333 -20.933  0.00  0.00     0.181 C 
ENDBRANCH  17  20
ENDBRANCH  13  14
ENDBRANCH  12  13
ENDBRANCH   5  12
TORSDOF 4
ENDMDL
MODEL 2
REMARK VINA RESULT:      -2.0      1.735      2.460
REMARK  4 active torsions:
REMARK  status: ('A' for Active; 'I' for Inactive)
REMARK    1  A    between atoms: C_7  and  C_5 
REMARK    2  A    between atoms: C_8  and  C_7 
REMARK    3  A    between atoms: C_10  and  C_8 
REMARK    4  A    between atoms: O_18  and  C_11 
ROOT
ATOM      1  C   UNL d   1      31.269  16.277 -23.808  0.00  0.00     0.303 A 
ATOM      2  N   UNL d   1      31.085  17.863 -24.237  0.00  0.00    -0.222 NA
ATOM      3  O   UNL d   1      31.907  16.799 -23.748  0.00  0.00    -0.255 OA
ATOM      4  C   UNL d   1      30.538  16.550 -24.082  0.00  0.00     0.081 A 
ATOM      5  C   UNL d   1      31.816  17.586 -23.962  0.00  0.00     0.186 A 
ATOM      6  C   UNL d   1      30.447  17.337 -24.296  0.00  0.00     0.089 A 
ATOM      7  O   UNL d   1      31.361  15.482 -23.593  0.00  0.00    -0.259 OA
ATOM      8  C   UNL d   1      29.907  16.029 -24.140  0.00  0.00     0.007 A 
ATOM      9  C   UNL d   1      29.723  17.615 -24.570  0.00  0.00     0.019 A 
ATOM     10  C   UNL d   1      29.177  16.302 -24.415  0.00  0.00     0.000 A 
ATOM     11  C   UNL d   1      29.086  17.090 -24.628  0.00  0.00     0.002 A 
ENDROOT
BRANCH   5  12
ATOM     12  C   UNL d   1      32.464  18.129 -23.905  0.00  0.00     0.045 C 
BRANCH  12  13
ATOM     13  C   UNL d   1      32.826  18.251 -23.174  0.00  0.00     0.004 C 
BRANCH  13  14
ATOM     14  C   UNL d   1      32.930  19.015 -22.882  0.00  0.00     0.000 A 
ATOM     15  C   UNL d   1      32.888  19.158 -22.075  0.00  0.00     0.002 A 
ATOM     16  C   UNL d   1      32.991  19.922 -21.782  0.00  0.00     0.024 A 
ATOM     17  C   UNL d   1      33.137  20.548 -22.306  0.00  0.00     0.094 A 
ATOM     18  C   UNL d   1      33.178  20.403 -23.118  0.00  0.00     0.024 A 
ATOM     19  C   UNL d   1      33.075  19.641 -23.406  0.00  0.00     0.002 A 
BRANCH  17  20
ATOM     20  O   UNL d   1      33.241  21.323 -22.003  0.00  0.00    -0.328 OA
ATOM     21  C   UNL d   1      32.957  21.523 -21.258  0.00  0.00     0.181 C 
ENDBRANCH  17  20
ENDBRANCH  13  14
ENDBRANCH  12  13
ENDBRANCH   5  12
TORSDOF 4
ENDMDL
MODEL 3
REMARK VINA RESULT:      -1.1      2.861      4.435
REMARK  4 active torsions:
REMARK  status: ('A' for Active; 'I' for Inactive)
REMARK    1  A    between atoms: C_7  and  C_5 
REMARK    2  A    between atoms: C_8  and  C_7 
REMARK    3  A    between atoms: C_10  and  C_8 
REMARK    4  A    between atoms: O_18  and  C_11 
ROOT
ATOM      1  C   UNL d   1      29.600  15.647 -22.843  0.00  0.00     0.303 A 
ATOM      2  N   UNL d   1      29.948  16.034 -24.412  0.00  0.00    -0.222 NA
ATOM      3  O   UNL d   1      30.379  15.808 -23.066  0.00  0.00    -0.255 OA
ATOM      4  C   UNL d   1      28.995  15.681 -23.405  0.00  0.00     0.081 A 
ATOM      5  C   UNL d   1      30.552  16.000 -23.846  0.00  0.00     0.186 A 
ATOM      6  C   UNL d   1      29.168  15.873 -24.184  0.00  0.00     0.089 A 
ATOM      7  O   UNL d   1      29.426  15.453 -22.056  0.00  0.00    -0.259 OA
ATOM      8  C   UNL d   1      28.222  15.521 -23.180  0.00  0.00     0.007 A 
ATOM      9  C   UNL d   1      28.571  15.908 -24.748  0.00  0.00     0.019 A 
ATOM     10  C   UNL d   1      27.618  15.555 -23.742  0.00  0.00     0.000 A 
ATOM     11  C   UNL d   1      27.791  15.747 -24.521  0.00  0.00     0.002 A 
ENDROOT
BRANCH   5  12
ATOM     12  C   UNL d   1      31.348  16.166 -24.085  0.00  0.00     0.045 C 
BRANCH  12  13
ATOM     13  C   UNL d   1      31.802  16.692 -23.642  0.00  0.00     0.004 C 
BRANCH  13  14
ATOM     14  C   UNL d   1      32.160  17.342 -24.003  0.00  0.00     0.000 A 
ATOM     15  C   UNL d   1      32.136  18.079 -23.644  0.00  0.00     0.002 A 
ATOM     16  C   UNL d   1      32.494  18.729 -24.005  0.00  0.00     0.024 A 
ATOM     17  C   UNL d   1      32.879  18.635 -24.734  0.00  0.00     0.094 A 
ATOM     18  C   UNL d   1      32.902  17.893 -25.093  0.00  0.00     0.024 A 
ATOM     19  C   UNL d   1      32.545  17.248 -24.731  0.00  0.00     0.002 A 
BRANCH  17  20
ATOM     20  O   UNL d   1      33.241  19.299 -25.096  0.00  0.00    -0.328 OA
ATOM     21  C   UNL d   1      33.201  20.042 -24.745  0.00  0.00     0.181 C 
ENDBRANCH  17  20
ENDBRANCH  13  14
ENDBRANCH  12  13
ENDBRANCH   5  12
TORSDOF 4
ENDMDL
MODEL 4
REMARK VINA RESULT:      -1.0      3.667      5.326
REMARK  4 active torsions:
REMARK  status: ('A' for Active; 'I' for Inactive)
REMARK    1  A    between atoms: C_7  and  C_5 
REMARK    2  A    between atoms: C_8  and  C_7 
REMARK    3  A    between atoms: C_10  and  C_8 
REMARK    4  A    between atoms: O_18  and  C_11 
ROOT
ATOM      1  C   UNL d   1      32.917  21.786 -21.109  0.00  0.00     0.303 A 
ATOM      2  N   UNL d   1      33.084  23.426 -20.988  0.00  0.00    -0.222 NA
ATOM      3  O   UNL d   1      32.999  22.140 -20.367  0.00  0.00    -0.255 OA
ATOM      4  C   UNL d   1      32.919  22.253 -21.792  0.00  0.00     0.081 A 
ATOM      5  C   UNL d   1      33.081  22.955 -20.307  0.00  0.00     0.186 A 
ATOM      6  C   UNL d   1      33.002  23.068 -21.731  0.00  0.00     0.089 A 
ATOM      7  O   UNL d   1      32.834  20.963 -21.170  0.00  0.00    -0.259 OA
ATOM      8  C   UNL d   1      32.839  21.898 -22.527  0.00  0.00     0.007 A 
ATOM      9  C   UNL d   1      33.005  23.539 -22.405  0.00  0.00     0.019 A 
ATOM     10  C   UNL d   1      32.841  22.366 -23.208  0.00  0.00     0.000 A 
ATOM     11  C   UNL d   1      32.923  23.180 -23.148  0.00  0.00     0.002 A 
ENDROOT
BRANCH   5  12
ATOM     12  C   UNL d   1      33.165  23.328 -19.551  0.00  0.00     0.045 C 
BRANCH  12  13
ATOM     13  C   UNL d   1      32.496  23.453 -19.086  0.00  0.00     0.004 C 
BRANCH  13  14
ATOM     14  C   UNL d   1      32.544  23.398 -18.264  0.00  0.00     0.000 A 
ATOM     15  C   UNL d   1      33.194  23.043 -17.910  0.00  0.00     0.002 A 
ATOM     16  C   UNL d   1      33.241  22.988 -17.088  0.00  0.00     0.024 A 
ATOM     17  C   UNL d   1      32.629  23.292 -16.619  0.00  0.00     0.094 A 
ATOM     18  C   UNL d   1      31.976  23.649 -16.976  0.00  0.00     0.024 A 
ATOM     19  C   UNL d   1      31.932  23.702 -17.795  0.00  0.00     0.002 A 
BRANCH  17  20
ATOM     20  O   UNL d   1      32.683  23.233 -15.784  0.00  0.00    -0.328 OA
ATOM     21  C   UNL d   1      33.183  22.683 -15.434  0.00  0.00     0.181 C 
ENDBRANCH  17  20
ENDBRANCH  13  14
ENDBRANCH  12  13
ENDBRANCH   5  12
TORSDOF 4
ENDMDL
MODEL 5
REMARK VINA RESULT:      -0.7      2.833      5.423
REMARK  4 active torsions:
REMARK  status: ('A' for Active; 'I' for Inactive)
REMARK    1  A    between atoms: C_7  and  C_5 
REMARK    2  A    between atoms: C_8  and  C_7 
REMARK    3  A    between atoms: C_10  and  C_8 
REMARK    4  A    between atoms: O_18  and  C_11 
ROOT
ATOM      1  C   UNL d   1      32.615  17.408 -23.288  0.00  0.00     0.303 A 
ATOM      2  N   UNL d   1      31.476  17.567 -24.476  0.00  0.00    -0.222 NA
ATOM      3  O   UNL d   1      32.025  16.836 -23.375  0.00  0.00    -0.255 OA
ATOM      4  C   UNL d   1      32.634  18.061 -23.796  0.00  0.00     0.081 A 
ATOM      5  C   UNL d   1      31.459  16.915 -23.965  0.00  0.00     0.186 A 
ATOM      6  C   UNL d   1      32.069  18.139 -24.386  0.00  0.00     0.089 A 
ATOM      7  O   UNL d   1      33.186  17.328 -22.692  0.00  0.00    -0.259 OA
ATOM      8  C   UNL d   1      33.221  18.626 -23.706  0.00  0.00     0.007 A 
ATOM      9  C   UNL d   1      32.083  18.785 -24.894  0.00  0.00     0.019 A 
ATOM     10  C   UNL d   1      33.241  19.278 -24.214  0.00  0.00     0.000 A 
ATOM     11  C   UNL d   1      32.675  19.357 -24.804  0.00  0.00     0.002 A 
ENDROOT
BRANCH   5  12
ATOM     12  C   UNL d   1      30.850  16.334 -24.063  0.00  0.00     0.045 C 
BRANCH  12  13
ATOM     13  C   UNL d   1      30.140  16.549 -24.422  0.00  0.00     0.004 C 
BRANCH  13  14
ATOM     14  C   UNL d   1      29.422  16.275 -24.123  0.00  0.00     0.000 A 
ATOM     15  C   UNL d   1      29.410  15.730 -23.511  0.00  0.00     0.002 A 
ATOM     16  C   UNL d   1      28.691  15.456 -23.212  0.00  0.00     0.024 A 
ATOM     17  C   UNL d   1      27.979  15.734 -23.532  0.00  0.00     0.094 A 
ATOM     18  C   UNL d   1      27.993  16.283 -24.148  0.00  0.00     0.024 A 
ATOM     19  C   UNL d   1      28.710  16.554 -24.444  0.00  0.00     0.002 A 
BRANCH  17  20
ATOM     20  O   UNL d   1      27.252  15.453 -23.224  0.00  0.00    -0.328 OA
ATOM     21  C   UNL d   1      26.572  15.453 -23.686  0.00  0.00     0.181 C 
ENDBRANCH  17  20
ENDBRANCH  13  14
ENDBRANCH  12  13
ENDBRANCH   5  12
TORSDOF 4
ENDMDL
