MODEL 1
REMARK VINA RESULT:     -10.4      0.000      0.000
REMARK  4 active torsions:
REMARK  status: ('A' for Active; 'I' for Inactive)
REMARK    1  A    between atoms: N_5  and  C_1 
REMARK    2  A    between atoms: N_8  and  C_3 
REMARK    3  A    between atoms: C_14  and  N_8 
REMARK    4  A    between atoms: C_16  and  C_14 
ROOT
ATOM      1  C   UNL d   1      52.326  33.573  53.467  0.00  0.00     0.737 A 
ATOM      2  N   UNL d   1      52.551  32.774  53.455  0.00  0.00    -0.041 NA
ATOM      3  C   UNL d   1      53.228  32.525  53.868  0.00  0.00     0.182 A 
ATOM      4  N   UNL d   1      52.776  34.127  53.893  0.00  0.00    -0.060 NA
ATOM      5  C   UNL d   1      53.679  33.075  54.294  0.00  0.00     0.055 A 
ATOM      6  C   UNL d   1      53.459  33.870  54.309  0.00  0.00     0.103 A 
ATOM      7  C   UNL d   1      54.354  32.825  54.707  0.00  0.00     0.005 A 
ATOM      8  C   UNL d   1      53.911  34.429  54.737  0.00  0.00     0.020 A 
ATOM      9  C   UNL d   1      54.803  33.370  55.130  0.00  0.00     0.000 A 
ATOM     10  C   UNL d   1      54.581  34.174  55.145  0.00  0.00     0.002 A 
ENDROOT
BRANCH   3  11
ATOM     11  N   UNL d   1      53.461  31.694  53.856  0.00  0.00    -0.225 NA
BRANCH  11  12
ATOM     12  C   UNL d   1      53.266  31.208  53.303  0.00  0.00     0.101 C 
BRANCH  12  13
ATOM     13  C   UNL d   1      53.198  30.470  53.465  0.00  0.00     0.019 A 
ATOM     14  C   UNL d   1      52.618  30.081  53.171  0.00  0.00     0.002 A 
ATOM     15  C   UNL d   1      52.543  29.353  53.324  0.00  0.00     0.000 A 
ATOM     16  C   UNL d   1      53.049  29.000  53.777  0.00  0.00     0.000 A 
ATOM     17  C   UNL d   1      53.622  29.393  54.065  0.00  0.00     0.000 A 
ATOM     18  C   UNL d   1      53.702  30.129  53.912  0.00  0.00     0.002 A 
ENDBRANCH  12  13
ENDBRANCH  11  12
ENDBRANCH   3  11
BRANCH   1  19
ATOM     19  N   UNL d   1      51.636  33.832  53.046  0.00  0.00    -0.134 N 
ATOM     20  C   UNL d   1      50.874  33.832  53.431  0.00  0.00     0.117 A 
ATOM     21  C   UNL d   1      50.183  34.094  53.001  0.00  0.00     0.100 A 
ATOM     22  N   UNL d   1      50.249  34.353  52.196  0.00  0.00    -0.299 N 
ATOM     23  C   UNL d   1      51.011  34.353  51.811  0.00  0.00     0.100 A 
ATOM     24  C   UNL d   1      49.555  34.613  51.772  0.00  0.00     0.100 C 
ATOM     25  C   UNL d   1      51.706  34.094  52.230  0.00  0.00     0.117 A 
ENDBRANCH   1  19
TORSDOF 4
ENDMDL
MODEL 2
REMARK VINA RESULT:      -8.8      0.732      3.092
REMARK  4 active torsions:
REMARK  status: ('A' for Active; 'I' for Inactive)
REMARK    1  A    between atoms: N_5  and  C_1 
REMARK    2  A    between atoms: N_8  and  C_3 
REMARK    3  A    between atoms: C_14  and  N_8 
REMARK    4  A    between atoms: C_16  and  C_14 
ROOT
ATOM      1  C   UNL d   1      51.955  32.706  53.000  0.00  0.00     0.737 A 
ATOM      2  N   UNL d   1      52.612  32.967  53.436  0.00  0.00    -0.041 NA
ATOM      3  C   UNL d   1      53.209  32.432  53.652  0.00  0.00     0.182 A 
ATOM      4  N   UNL d   1      51.893  31.907  52.778  0.00  0.00    -0.060 NA
ATOM      5  C   UNL d   1      53.150  31.635  53.432  0.00  0.00     0.055 A 
ATOM      6  C   UNL d   1      52.499  31.370  52.998  0.00  0.00     0.103 A 
ATOM      7  C   UNL d   1      53.747  31.100  53.647  0.00  0.00     0.005 A 
ATOM      8  C   UNL d   1      52.435  30.567  52.774  0.00  0.00     0.020 A 
ATOM      9  C   UNL d   1      53.690  30.308  53.430  0.00  0.00     0.000 A 
ATOM     10  C   UNL d   1      53.032  30.041  52.992  0.00  0.00     0.002 A 
ENDROOT
BRANCH   3  11
ATOM     11  N   UNL d   1      53.891  32.703  54.105  0.00  0.00    -0.225 NA
BRANCH  11  12
ATOM     12  C   UNL d   1      53.950  33.402  54.401  0.00  0.00     0.101 C 
BRANCH  12  13
ATOM     13  C   UNL d   1      54.587  33.599  54.764  0.00  0.00     0.019 A 
ATOM     14  C   UNL d   1      54.600  33.579  55.521  0.00  0.00     0.002 A 
ATOM     15  C   UNL d   1      55.223  33.771  55.888  0.00  0.00     0.000 A 
ATOM     16  C   UNL d   1      55.847  33.987  55.501  0.00  0.00     0.000 A 
ATOM     17  C   UNL d   1      55.827  34.005  54.749  0.00  0.00     0.000 A 
ATOM     18  C   UNL d   1      55.199  33.811  54.375  0.00  0.00     0.002 A 
ENDBRANCH  12  13
ENDBRANCH  11  12
ENDBRANCH   3  11
BRANCH   1  19
ATOM     19  N   UNL d   1      51.342  33.250  52.778  0.00  0.00    -0.134 N 
ATOM     20  C   UNL d   1      50.664  33.361  53.284  0.00  0.00     0.117 A 
ATOM     21  C   UNL d   1      50.050  33.911  53.053  0.00  0.00     0.100 A 
ATOM     22  N   UNL d   1      50.111  34.345  52.328  0.00  0.00    -0.299 N 
ATOM     23  C   UNL d   1      50.790  34.233  51.821  0.00  0.00     0.100 A 
ATOM     24  C   UNL d   1      49.496  34.892  52.103  0.00  0.00     0.100 C 
ATOM     25  C   UNL d   1      51.407  33.689  52.041  0.00  0.00     0.117 A 
ENDBRANCH   1  19
TORSDOF 4
ENDMDL
MODEL 3
REMARK VINA RESULT:      -8.6      0.816      4.068
REMARK  4 active torsions:
REMARK  status: ('A' for Active; 'I' for Inactive)
REMARK    1  A    between atoms: N_5  and  C_1 
REMARK    2  A    between atoms: N_8  and  C_3 
REMARK    3  A    between atoms: C_14  and  N_8 
REMARK    4  A    between atoms: C_16  and  C_14 
ROOT
ATOM      1  C   UNL d   1      53.452  31.763  54.241  0.00  0.00     0.737 A 
ATOM      2  N   UNL d   1      52.874  32.218  53.858  0.00  0.00    -0.041 NA
ATOM      3  C   UNL d   1      52.908  33.048  53.889  0.00  0.00     0.182 A 
ATOM      4  N   UNL d   1      54.068  32.134  54.657  0.00  0.00    -0.060 NA
ATOM      5  C   UNL d   1      53.522  33.421  54.303  0.00  0.00     0.055 A 
ATOM      6  C   UNL d   1      54.099  32.973  54.685  0.00  0.00     0.103 A 
ATOM      7  C   UNL d   1      53.555  34.250  54.333  0.00  0.00     0.005 A 
ATOM      8  C   UNL d   1      54.719  33.345  55.105  0.00  0.00     0.020 A 
ATOM      9  C   UNL d   1      54.163  34.623  54.744  0.00  0.00     0.000 A 
ATOM     10  C   UNL d   1      54.747  34.169  55.131  0.00  0.00     0.002 A 
ENDROOT
BRANCH   3  11
ATOM     11  N   UNL d   1      52.307  33.521  53.490  0.00  0.00    -0.225 NA
BRANCH  11  12
ATOM     12  C   UNL d   1      51.676  33.229  53.181  0.00  0.00     0.101 C 
BRANCH  12  13
ATOM     13  C   UNL d   1      51.186  33.691  52.829  0.00  0.00     0.019 A 
ATOM     14  C   UNL d   1      50.564  33.916  53.197  0.00  0.00     0.002 A 
ATOM     15  C   UNL d   1      50.076  34.371  52.859  0.00  0.00     0.000 A 
ATOM     16  C   UNL d   1      50.204  34.609  52.144  0.00  0.00     0.000 A 
ATOM     17  C   UNL d   1      50.824  34.382  51.784  0.00  0.00     0.000 A 
ATOM     18  C   UNL d   1      51.320  33.921  52.122  0.00  0.00     0.002 A 
ENDBRANCH  12  13
ENDBRANCH  11  12
ENDBRANCH   3  11
BRANCH   1  19
ATOM     19  N   UNL d   1      53.421  30.914  54.212  0.00  0.00    -0.134 N 
ATOM     20  C   UNL d   1      53.246  30.468  54.919  0.00  0.00     0.117 A 
ATOM     21  C   UNL d   1      53.216  29.614  54.882  0.00  0.00     0.100 A 
ATOM     22  N   UNL d   1      53.358  29.209  54.152  0.00  0.00    -0.299 N 
ATOM     23  C   UNL d   1      53.533  29.655  53.445  0.00  0.00     0.100 A 
ATOM     24  C   UNL d   1      53.327  28.356  54.121  0.00  0.00     0.100 C 
ATOM     25  C   UNL d   1      53.565  30.506  53.470  0.00  0.00     0.117 A 
ENDBRANCH   1  19
TORSDOF 4
ENDMDL
MODEL 4
REMARK VINA RESULT:      -7.5      1.007      4.419
REMARK  4 active torsions:
REMARK  status: ('A' for Active; 'I' for Inactive)
REMARK    1  A    between atoms: N_5  and  C_1 
REMARK    2  A    between atoms: N_8  and  C_3 
REMARK    3  A    between atoms: C_14  and  N_8 
REMARK    4  A    between atoms: C_16  and  C_14 
ROOT
ATOM      1  C   UNL d   1      53.766  32.585  54.034  0.00  0.00     0.737 A 
ATOM      2  N   UNL d   1      53.118  32.946  53.663  0.00  0.00    -0.041 NA
ATOM      3  C   UNL d   1      52.590  32.492  53.210  0.00  0.00     0.182 A 
ATOM      4  N   UNL d   1      53.891  31.767  53.954  0.00  0.00    -0.060 NA
ATOM      5  C   UNL d   1      52.712  31.676  53.128  0.00  0.00     0.055 A 
ATOM      6  C   UNL d   1      53.355  31.312  53.495  0.00  0.00     0.103 A 
ATOM      7  C   UNL d   1      52.184  31.222  52.675  0.00  0.00     0.005 A 
ATOM      8  C   UNL d   1      53.482  30.489  53.415  0.00  0.00     0.020 A 
ATOM      9  C   UNL d   1      52.304  30.412  52.592  0.00  0.00     0.000 A 
ATOM     10  C   UNL d   1      52.954  30.045  52.963  0.00  0.00     0.002 A 
ENDROOT
BRANCH   3  11
ATOM     11  N   UNL d   1      51.916  32.868  52.824  0.00  0.00    -0.225 NA
BRANCH  11  12
ATOM     12  C   UNL d   1      51.811  33.621  52.795  0.00  0.00     0.101 C 
BRANCH  12  13
ATOM     13  C   UNL d   1      51.154  33.895  52.534  0.00  0.00     0.019 A 
ATOM     14  C   UNL d   1      51.084  34.041  51.794  0.00  0.00     0.002 A 
ATOM     15  C   UNL d   1      50.439  34.312  51.527  0.00  0.00     0.000 A 
ATOM     16  C   UNL d   1      49.851  34.441  51.999  0.00  0.00     0.000 A 
ATOM     17  C   UNL d   1      49.928  34.294  52.733  0.00  0.00     0.000 A 
ATOM     18  C   UNL d   1      50.578  34.020  53.007  0.00  0.00     0.002 A 
ENDBRANCH  12  13
ENDBRANCH  11  12
ENDBRANCH   3  11
BRANCH   1  19
ATOM     19  N   UNL d   1      54.308  33.046  54.499  0.00  0.00    -0.134 N 
ATOM     20  C   UNL d   1      55.021  33.354  54.144  0.00  0.00     0.117 A 
ATOM     21  C   UNL d   1      55.562  33.817  54.618  0.00  0.00     0.100 A 
ATOM     22  N   UNL d   1      55.395  33.972  55.435  0.00  0.00    -0.299 N 
ATOM     23  C   UNL d   1      54.682  33.664  55.789  0.00  0.00     0.100 A 
ATOM     24  C   UNL d   1      55.939  34.435  55.902  0.00  0.00     0.100 C 
ATOM     25  C   UNL d   1      54.136  33.201  55.327  0.00  0.00     0.117 A 
ENDBRANCH   1  19
TORSDOF 4
ENDMDL
