MODEL 1
REMARK VINA RESULT:      -3.3      0.000      0.000
REMARK  7 active torsions:
REMARK  status: ('A' for Active; 'I' for Inactive)
REMARK    1  A    between atoms: C_4  and  S_1 
REMARK    2  A    between atoms: N_6  and  S_1 
REMARK    3  A    between atoms: S_2  and  N_3 
REMARK    4  A    between atoms: C_8  and  S_2 
REMARK    5  A    between atoms: N_3  and  C_7 
REMARK    6  A    between atoms: C_20  and  N_13 
REMARK    7  A    between atoms: C_18  and  C_20 
ROOT
ATOM      1  C   UNL d   1      32.883  18.478 -22.755  0.00  0.00     0.105 A 
ATOM      2  C   UNL d   1      32.470  18.276 -23.439  0.00  0.00     0.029 A 
ATOM      3  C   UNL d   1      32.411  17.487 -23.670  0.00  0.00     0.076 A 
ATOM      4  C   UNL d   1      33.241  17.878 -22.297  0.00  0.00     0.013 A 
ATOM      5  C   UNL d   1      32.763  16.899 -23.220  0.00  0.00     0.017 A 
ATOM      6  C   UNL d   1      33.178  17.091 -22.534  0.00  0.00     0.002 A 
ATOM      7  C   UNL d   1      32.118  18.869 -23.890  0.00  0.00     0.002 C 
ATOM      8  C   UNL d   1      32.702  16.111 -23.454  0.00  0.00     0.002 C 
ENDROOT
BRANCH   1   9
ATOM      9  S   UNL d   1      32.942  19.267 -22.523  0.00  0.00     0.272 S 
ATOM     10  O   UNL d   1      32.880  19.469 -21.729  0.00  0.00    -0.200 OA
ATOM     11  O   UNL d   1      33.063  19.854 -23.093  0.00  0.00    -0.200 OA
BRANCH   9  12
ATOM     12  N   UNL d   1      33.002  20.059 -22.300  0.00  0.00    -0.226 N 
ATOM     13  C   UNL d   1      32.890  20.267 -21.515  0.00  0.00     0.111 A 
ATOM     14  C   UNL d   1      32.950  21.059 -21.291  0.00  0.00     0.100 A 
ATOM     15  N   UNL d   1      33.122  21.635 -21.854  0.00  0.00    -0.300 N 
ATOM     16  C   UNL d   1      33.233  21.419 -22.641  0.00  0.00     0.100 A 
ATOM     17  C   UNL d   1      33.173  20.627 -22.864  0.00  0.00     0.111 A 
BRANCH  15  18
ATOM     18  C   UNL d   1      33.180  22.425 -21.623  0.00  0.00     0.080 C 
BRANCH  18  19
ATOM     19  C   UNL d   1      32.501  22.891 -21.549  0.00  0.00     0.018 C 
ATOM     20  C   UNL d   1      32.285  23.403 -22.159  0.00  0.00     0.002 C 
ATOM     21  C   UNL d   1      32.041  22.845 -20.867  0.00  0.00     0.002 C 
ENDBRANCH  18  19
ENDBRANCH  15  18
ENDBRANCH   9  12
ENDBRANCH   1   9
BRANCH   3  22
ATOM     22  N   UNL d   1      31.997  17.295 -24.355  0.00  0.00    -0.229 N 
ATOM     23  C   UNL d   1      32.371  17.341 -25.095  0.00  0.00     0.111 C 
BRANCH  22  24
ATOM     24  S   UNL d   1      31.209  17.056 -24.308  0.00  0.00     0.271 S 
ATOM     25  O   UNL d   1      31.497  17.393 -25.006  0.00  0.00    -0.200 OA
ATOM     26  O   UNL d   1      31.717  16.961 -23.661  0.00  0.00    -0.200 OA
BRANCH  24  27
ATOM     27  C   UNL d   1      30.421  16.817 -24.261  0.00  0.00     0.104 A 
ATOM     28  C   UNL d   1      29.835  17.362 -24.063  0.00  0.00     0.013 A 
ATOM     29  C   UNL d   1      29.060  17.126 -24.017  0.00  0.00     0.001 A 
ATOM     30  C   UNL d   1      28.854  16.350 -24.165  0.00  0.00     0.000 A 
ATOM     31  C   UNL d   1      29.429  15.795 -24.364  0.00  0.00     0.001 A 
ATOM     32  C   UNL d   1      28.066  16.111 -24.119  0.00  0.00     0.000 C 
ATOM     33  C   UNL d   1      30.219  16.029 -24.412  0.00  0.00     0.013 A 
ENDBRANCH  24  27
ENDBRANCH  22  24
ENDBRANCH   3  22
TORSDOF 7
ENDMDL
