MODEL 1
REMARK VINA RESULT:      16.1      0.000      0.000
REMARK  1 active torsions:
REMARK  status: ('A' for Active; 'I' for Inactive)
REMARK    1  A    between atoms: C_2  and  C_1 
ROOT
ATOM      1  C   UNL d   1      14.108  12.758  -1.921  0.00  0.00     0.089 A 
ATOM      2  C   UNL d   1      13.633  12.103  -1.782  0.00  0.00     0.302 A 
ATOM      3  C   UNL d   1      14.146  13.096  -2.680  0.00  0.00     0.009 A 
ATOM      4  O   UNL d   1      13.190  11.779  -2.401  0.00  0.00    -0.273 OA
ATOM      5  C   UNL d   1      13.699  12.764  -3.293  0.00  0.00     0.023 A 
ATOM      6  C   UNL d   1      13.224  12.109  -3.154  0.00  0.00     0.103 A 
ATOM      7  O   UNL d   1      13.608  11.781  -1.020  0.00  0.00    -0.259 OA
ATOM      8  C   UNL d   1      13.738  13.101  -4.051  0.00  0.00     0.002 A 
ATOM      9  C   UNL d   1      12.782  11.785  -3.771  0.00  0.00     0.025 A 
ATOM     10  C   UNL d   1      13.291  12.769  -4.663  0.00  0.00     0.000 A 
ATOM     11  C   UNL d   1      12.816  12.115  -4.524  0.00  0.00     0.002 A 
ENDROOT
BRANCH   1  12
ATOM     12  C   UNL d   1      14.553  13.082  -1.296  0.00  0.00     0.140 A 
ATOM     13  S   UNL d   1      14.786  13.848  -1.111  0.00  0.00    -0.024 SA
ATOM     14  C   UNL d   1      15.218  13.815  -0.420  0.00  0.00     0.236 A 
ATOM     15  N   UNL d   1      15.570  14.458  -0.017  0.00  0.00    -0.118 N 
ATOM     16  N   UNL d   1      15.261  13.050  -0.167  0.00  0.00    -0.119 NA
ATOM     17  N   UNL d   1      14.850  12.581  -0.703  0.00  0.00    -0.139 NA
ENDBRANCH   1  12
TORSDOF 1
ENDMDL
