MODEL 1
REMARK VINA RESULT:      44.5      0.000      0.000
REMARK  2 active torsions:
REMARK  status: ('A' for Active; 'I' for Inactive)
REMARK    1  A    between atoms: C_3  and  C_1 
REMARK       I    between atoms: N_6  and  C_3 
REMARK    2  A    between atoms: C_11  and  N_6 
ROOT
ATOM      1  C   UNL d   1      14.099  13.353  -2.609  0.00  0.00     0.121 A 
ATOM      2  C   UNL d   1      14.064  12.530  -2.443  0.00  0.00     0.305 A 
ATOM      3  C   UNL d   1      13.788  13.640  -3.318  0.00  0.00     0.012 A 
ATOM      4  O   UNL d   1      13.719  12.002  -2.989  0.00  0.00    -0.273 OA
ATOM      5  C   UNL d   1      13.447  13.114  -3.857  0.00  0.00     0.023 A 
ATOM      6  C   UNL d   1      13.413  12.306  -3.694  0.00  0.00     0.103 A 
ATOM      7  O   UNL d   1      14.371  12.192  -1.727  0.00  0.00    -0.259 OA
ATOM      8  C   UNL d   1      13.146  13.418  -4.552  0.00  0.00     0.002 A 
ATOM      9  C   UNL d   1      13.077  11.781  -4.223  0.00  0.00     0.025 A 
ATOM     10  C   UNL d   1      12.769  12.084  -4.932  0.00  0.00     0.002 A 
ATOM     11  C   UNL d   1      12.804  12.907  -5.098  0.00  0.00     0.000 A 
ENDROOT
BRANCH   1  12
ATOM     12  C   UNL d   1      14.442  13.899  -2.070  0.00  0.00     0.284 C 
ATOM     13  N   UNL d   1      14.335  14.711  -2.166  0.00  0.00    -0.208 NA
ATOM     14  O   UNL d   1      14.893  13.589  -1.440  0.00  0.00    -0.265 OA
BRANCH  13  15
ATOM     15  C   UNL d   1      14.681  15.238  -1.626  0.00  0.00     0.085 A 
ATOM     16  C   UNL d   1      14.914  15.993  -1.865  0.00  0.00     0.019 A 
ATOM     17  C   UNL d   1      15.248  16.495  -1.335  0.00  0.00     0.002 A 
ATOM     18  C   UNL d   1      15.481  17.246  -1.572  0.00  0.00     0.000 C 
ATOM     19  C   UNL d   1      15.360  16.268  -0.556  0.00  0.00     0.000 A 
ATOM     20  C   UNL d   1      15.120  15.493  -0.311  0.00  0.00     0.002 A 
ATOM     21  C   UNL d   1      15.711  16.806  -0.015  0.00  0.00     0.000 C 
ATOM     22  C   UNL d   1      14.781  14.987  -0.858  0.00  0.00     0.019 A 
ENDBRANCH  13  15
ENDBRANCH   1  12
TORSDOF 2
ENDMDL
