MODEL 1
REMARK VINA RESULT:      43.4      0.000      0.000
REMARK  4 active torsions:
REMARK  status: ('A' for Active; 'I' for Inactive)
REMARK    1  A    between atoms: N_2  and  S_1 
REMARK    2  A    between atoms: C_4  and  S_1 
REMARK    3  A    between atoms: C_15  and  C_3 
REMARK    4  A    between atoms: O_16  and  C_12 
ROOT
ATOM      1  S   UNL d   1     -51.259  25.996  33.722  0.00  0.00     0.273 S 
ATOM      2  O   UNL d   1     -50.622  25.673  33.310  0.00  0.00    -0.200 OA
ATOM      3  O   UNL d   1     -51.897  26.319  34.134  0.00  0.00    -0.200 OA
ENDROOT
BRANCH   1   4
ATOM      4  N   UNL d   1     -50.836  26.699  33.827  0.00  0.00    -0.213 N 
ATOM      5  C   UNL d   1     -51.157  27.460  33.836  0.00  0.00     0.157 A 
ATOM      6  N   UNL d   1     -50.535  27.995  33.955  0.00  0.00    -0.226 NA
ATOM      7  C   UNL d   1     -49.834  27.563  34.019  0.00  0.00     0.101 A 
ATOM      8  C   UNL d   1     -50.019  26.759  33.939  0.00  0.00     0.112 A 
ATOM      9  C   UNL d   1     -49.081  27.875  34.140  0.00  0.00     0.022 C 
BRANCH   5  10
ATOM     10  C   UNL d   1     -51.949  27.651  33.743  0.00  0.00     0.038 C 
ATOM     11  C   UNL d   1     -52.161  28.320  33.313  0.00  0.00     0.003 C 
ENDBRANCH   5  10
ENDBRANCH   1   4
BRANCH   1  12
ATOM     12  C   UNL d   1     -51.682  25.295  33.618  0.00  0.00     0.106 A 
ATOM     13  C   UNL d   1     -52.502  25.316  33.529  0.00  0.00     0.037 A 
ATOM     14  C   UNL d   1     -52.924  24.616  33.425  0.00  0.00     0.095 A 
ATOM     15  C   UNL d   1     -52.527  23.893  33.410  0.00  0.00     0.022 A 
ATOM     16  C   UNL d   1     -51.707  23.872  33.500  0.00  0.00     0.003 A 
ATOM     17  C   UNL d   1     -52.949  23.192  33.306  0.00  0.00     0.002 C 
ATOM     18  C   UNL d   1     -51.285  24.572  33.604  0.00  0.00     0.012 A 
ATOM     19  C   UNL d   1     -50.473  24.555  33.693  0.00  0.00     0.001 C 
BRANCH  14  20
ATOM     20  O   UNL d   1     -53.748  24.640  33.335  0.00  0.00    -0.328 OA
ATOM     21  C   UNL d   1     -54.181  23.937  33.324  0.00  0.00     0.181 C 
ENDBRANCH  14  20
ENDBRANCH   1  12
TORSDOF 4
ENDMDL
