MODEL 1
REMARK VINA RESULT:      -5.3      0.000      0.000
REMARK  1 active torsions:
REMARK  status: ('A' for Active; 'I' for Inactive)
REMARK    1  A    between atoms: C_9  and  N_4 
ROOT
ATOM      1  C   UNL d   1      58.604   0.407  31.283  0.00  0.00     0.096 A 
ATOM      2  C   UNL d   1      58.211   0.074  30.650  0.00  0.00     0.109 A 
ATOM      3  N   UNL d   1      57.459  -0.144  30.894  0.00  0.00    -0.162 NA
ATOM      4  N   UNL d   1      57.393   0.060  31.691  0.00  0.00    -0.195 N 
ATOM      5  C   UNL d   1      58.098   0.398  31.926  0.00  0.00     0.283 A 
ATOM      6  C   UNL d   1      59.384   0.682  31.196  0.00  0.00     0.105 A 
ATOM      7  C   UNL d   1      58.589   0.011  29.925  0.00  0.00     0.037 A 
ATOM      8  N   UNL d   1      59.760   0.617  30.470  0.00  0.00    -0.244 NA
ATOM      9  C   UNL d   1      59.364   0.280  29.827  0.00  0.00     0.083 A 
ATOM     10  O   UNL d   1      58.269   0.681  32.682  0.00  0.00    -0.265 OA
ATOM     11  C   UNL d   1      58.196  -0.325  29.283  0.00  0.00     0.003 A 
ATOM     12  C   UNL d   1      59.740   0.213  29.093  0.00  0.00     0.019 A 
ATOM     13  C   UNL d   1      58.579  -0.388  28.553  0.00  0.00     0.000 A 
ATOM     14  C   UNL d   1      59.344  -0.121  28.459  0.00  0.00     0.002 A 
ENDROOT
BRANCH   4  15
ATOM     15  C   UNL d   1      56.731  -0.056  32.170  0.00  0.00     0.086 A 
ATOM     16  C   UNL d   1      56.556  -0.814  32.452  0.00  0.00     0.020 A 
ATOM     17  C   UNL d   1      55.902  -0.934  32.926  0.00  0.00     0.013 A 
ATOM     18  C   UNL d   1      55.413  -0.299  33.126  0.00  0.00     0.058 A 
ATOM     19  C   UNL d   1      55.588   0.458  32.844  0.00  0.00     0.013 A 
ATOM     20 CL   UNL d   1      54.761  -0.412  33.597  0.00  0.00    -0.082 Cl
ATOM     21  C   UNL d   1      56.237   0.581  32.372  0.00  0.00     0.020 A 
ENDBRANCH   4  15
TORSDOF 1
ENDMDL
MODEL 2
REMARK VINA RESULT:      -4.9      1.195      1.361
REMARK  1 active torsions:
REMARK  status: ('A' for Active; 'I' for Inactive)
REMARK    1  A    between atoms: C_9  and  N_4 
ROOT
ATOM      1  C   UNL d   1      58.393  -0.367  30.391  0.00  0.00     0.096 A 
ATOM      2  C   UNL d   1      58.133  -1.124  30.227  0.00  0.00     0.109 A 
ATOM      3  N   UNL d   1      57.507  -1.298  30.727  0.00  0.00    -0.162 NA
ATOM      4  N   UNL d   1      57.384  -0.636  31.204  0.00  0.00    -0.195 N 
ATOM      5  C   UNL d   1      57.931  -0.067  30.994  0.00  0.00     0.283 A 
ATOM      6  C   UNL d   1      59.029  -0.040  29.965  0.00  0.00     0.105 A 
ATOM      7  C   UNL d   1      58.501  -1.561  29.640  0.00  0.00     0.037 A 
ATOM      8  N   UNL d   1      59.394  -0.481  29.378  0.00  0.00    -0.244 NA
ATOM      9  C   UNL d   1      59.133  -1.248  29.210  0.00  0.00     0.083 A 
ATOM     10  O   UNL d   1      58.001   0.682  31.334  0.00  0.00    -0.265 OA
ATOM     11  C   UNL d   1      58.241  -2.326  29.471  0.00  0.00     0.003 A 
ATOM     12  C   UNL d   1      59.499  -1.694  28.618  0.00  0.00     0.019 A 
ATOM     13  C   UNL d   1      58.613  -2.766  28.878  0.00  0.00     0.000 A 
ATOM     14  C   UNL d   1      59.237  -2.453  28.455  0.00  0.00     0.002 A 
ENDROOT
BRANCH   4  15
ATOM     15  C   UNL d   1      56.810  -0.559  31.792  0.00  0.00     0.086 A 
ATOM     16  C   UNL d   1      56.591  -1.218  32.241  0.00  0.00     0.020 A 
ATOM     17  C   UNL d   1      56.023  -1.148  32.824  0.00  0.00     0.013 A 
ATOM     18  C   UNL d   1      55.665  -0.417  32.966  0.00  0.00     0.058 A 
ATOM     19  C   UNL d   1      55.884   0.242  32.517  0.00  0.00     0.013 A 
ATOM     20 CL   UNL d   1      55.100  -0.341  33.545  0.00  0.00    -0.082 Cl
ATOM     21  C   UNL d   1      56.448   0.174  31.937  0.00  0.00     0.020 A 
ENDBRANCH   4  15
TORSDOF 1
ENDMDL
MODEL 3
REMARK VINA RESULT:      -4.8      1.928      4.313
REMARK  1 active torsions:
REMARK  status: ('A' for Active; 'I' for Inactive)
REMARK    1  A    between atoms: C_9  and  N_4 
ROOT
ATOM      1  C   UNL d   1      56.875  -1.063  31.618  0.00  0.00     0.096 A 
ATOM      2  C   UNL d   1      56.912  -0.335  31.986  0.00  0.00     0.109 A 
ATOM      3  N   UNL d   1      57.443   0.138  31.578  0.00  0.00    -0.162 NA
ATOM      4  N   UNL d   1      57.734  -0.310  30.949  0.00  0.00    -0.195 N 
ATOM      5  C   UNL d   1      57.383  -1.047  30.977  0.00  0.00     0.283 A 
ATOM      6  C   UNL d   1      56.376  -1.659  31.915  0.00  0.00     0.105 A 
ATOM      7  C   UNL d   1      56.455  -0.194  32.652  0.00  0.00     0.037 A 
ATOM      8  N   UNL d   1      55.921  -1.514  32.581  0.00  0.00    -0.244 NA
ATOM      9  C   UNL d   1      55.957  -0.777  32.956  0.00  0.00     0.083 A 
ATOM     10  O   UNL d   1      57.519  -1.666  30.450  0.00  0.00    -0.265 OA
ATOM     11  C   UNL d   1      56.490   0.540  33.027  0.00  0.00     0.003 A 
ATOM     12  C   UNL d   1      55.498  -0.628  33.628  0.00  0.00     0.019 A 
ATOM     13  C   UNL d   1      56.028   0.682  33.699  0.00  0.00     0.000 A 
ATOM     14  C   UNL d   1      55.537   0.102  33.997  0.00  0.00     0.002 A 
ENDROOT
BRANCH   4  15
ATOM     15  C   UNL d   1      58.285  -0.060  30.387  0.00  0.00     0.086 A 
ATOM     16  C   UNL d   1      59.094  -0.141  30.541  0.00  0.00     0.020 A 
ATOM     17  C   UNL d   1      59.643   0.105  29.988  0.00  0.00     0.013 A 
ATOM     18  C   UNL d   1      59.392   0.435  29.274  0.00  0.00     0.058 A 
ATOM     19  C   UNL d   1      58.583   0.515  29.120  0.00  0.00     0.013 A 
ATOM     20 CL   UNL d   1      59.933   0.681  28.720  0.00  0.00    -0.082 Cl
ATOM     21  C   UNL d   1      58.036   0.272  29.668  0.00  0.00     0.020 A 
ENDBRANCH   4  15
TORSDOF 1
ENDMDL
MODEL 4
REMARK VINA RESULT:      -4.6      1.284      1.774
REMARK  1 active torsions:
REMARK  status: ('A' for Active; 'I' for Inactive)
REMARK    1  A    between atoms: C_9  and  N_4 
ROOT
ATOM      1  C   UNL d   1      57.145  -1.117  31.288  0.00  0.00     0.096 A 
ATOM      2  C   UNL d   1      57.448  -0.367  31.176  0.00  0.00     0.109 A 
ATOM      3  N   UNL d   1      57.171   0.119  31.775  0.00  0.00    -0.162 NA
ATOM      4  N   UNL d   1      56.690  -0.342  32.261  0.00  0.00    -0.195 N 
ATOM      5  C   UNL d   1      56.677  -1.101  31.959  0.00  0.00     0.283 A 
ATOM      6  C   UNL d   1      57.335  -1.731  30.760  0.00  0.00     0.105 A 
ATOM      7  C   UNL d   1      57.942  -0.221  30.538  0.00  0.00     0.037 A 
ATOM      8  N   UNL d   1      57.829  -1.580  30.123  0.00  0.00    -0.244 NA
ATOM      9  C   UNL d   1      58.138  -0.822  30.006  0.00  0.00     0.083 A 
ATOM     10  O   UNL d   1      56.262  -1.739  32.277  0.00  0.00    -0.265 OA
ATOM     11  C   UNL d   1      58.250   0.535  30.420  0.00  0.00     0.003 A 
ATOM     12  C   UNL d   1      58.636  -0.667  29.365  0.00  0.00     0.019 A 
ATOM     13  C   UNL d   1      58.748   0.682  29.776  0.00  0.00     0.000 A 
ATOM     14  C   UNL d   1      58.939   0.085  29.253  0.00  0.00     0.002 A 
ENDROOT
BRANCH   4  15
ATOM     15  C   UNL d   1      56.290  -0.085  32.936  0.00  0.00     0.086 A 
ATOM     16  C   UNL d   1      56.719   0.171  33.594  0.00  0.00     0.020 A 
ATOM     17  C   UNL d   1      56.329   0.427  34.265  0.00  0.00     0.013 A 
ATOM     18  C   UNL d   1      55.503   0.429  34.287  0.00  0.00     0.058 A 
ATOM     19  C   UNL d   1      55.074   0.172  33.629  0.00  0.00     0.013 A 
ATOM     20 CL   UNL d   1      55.109   0.682  34.951  0.00  0.00    -0.082 Cl
ATOM     21  C   UNL d   1      55.460  -0.082  32.961  0.00  0.00     0.020 A 
ENDBRANCH   4  15
TORSDOF 1
ENDMDL
MODEL 5
REMARK VINA RESULT:      -4.4      2.573      4.294
REMARK  1 active torsions:
REMARK  status: ('A' for Active; 'I' for Inactive)
REMARK    1  A    between atoms: C_9  and  N_4 
ROOT
ATOM      1  C   UNL d   1      57.975  -0.375  30.239  0.00  0.00     0.096 A 
ATOM      2  C   UNL d   1      57.674  -0.911  30.776  0.00  0.00     0.109 A 
ATOM      3  N   UNL d   1      57.973  -1.654  30.598  0.00  0.00    -0.162 NA
ATOM      4  N   UNL d   1      58.465  -1.567  29.941  0.00  0.00    -0.195 N 
ATOM      5  C   UNL d   1      58.463  -0.780  29.724  0.00  0.00     0.283 A 
ATOM      6  C   UNL d   1      57.765   0.429  30.286  0.00  0.00     0.105 A 
ATOM      7  C   UNL d   1      57.162  -0.655  31.363  0.00  0.00     0.037 A 
ATOM      8  N   UNL d   1      57.253   0.682  30.875  0.00  0.00    -0.244 NA
ATOM      9  C   UNL d   1      56.946   0.140  31.420  0.00  0.00     0.083 A 
ATOM     10  O   UNL d   1      58.882  -0.454  29.093  0.00  0.00    -0.265 OA
ATOM     11  C   UNL d   1      56.856  -1.194  31.907  0.00  0.00     0.003 A 
ATOM     12  C   UNL d   1      56.430   0.392  32.014  0.00  0.00     0.019 A 
ATOM     13  C   UNL d   1      56.340  -0.934  32.499  0.00  0.00     0.000 A 
ATOM     14  C   UNL d   1      56.129  -0.147  32.552  0.00  0.00     0.002 A 
ENDROOT
BRANCH   4  15
ATOM     15  C   UNL d   1      58.886  -2.170  29.566  0.00  0.00     0.086 A 
ATOM     16  C   UNL d   1      59.686  -2.285  29.746  0.00  0.00     0.020 A 
ATOM     17  C   UNL d   1      60.107  -2.880  29.378  0.00  0.00     0.013 A 
ATOM     18  C   UNL d   1      59.737  -3.369  28.825  0.00  0.00     0.058 A 
ATOM     19  C   UNL d   1      58.937  -3.254  28.646  0.00  0.00     0.013 A 
ATOM     20 CL   UNL d   1      60.150  -3.963  28.455  0.00  0.00    -0.082 Cl
ATOM     21  C   UNL d   1      58.516  -2.663  29.010  0.00  0.00     0.020 A 
ENDBRANCH   4  15
TORSDOF 1
ENDMDL
