MODEL 1
REMARK VINA RESULT:     143.6      0.000      0.000
REMARK  8 active torsions:
REMARK  status: ('A' for Active; 'I' for Inactive)
REMARK    1  A    between atoms: C_14  and  N_1 
REMARK    2  A    between atoms: S_10  and  C_2 
REMARK    3  A    between atoms: C_7  and  C_9 
REMARK       I    between atoms: N_8  and  C_7 
REMARK    4  A    between atoms: C_26  and  S_10 
REMARK    5  A    between atoms: C_13  and  C_18 
REMARK    6  A    between atoms: C_16  and  C_26 
REMARK    7  A    between atoms: O_28  and  C_16 
REMARK    8  A    between atoms: C_31  and  O_28 
ROOT
ATOM      1  N   UNL d   1      61.709  44.766  50.134  0.00  0.00    -0.254 N 
ATOM      2  C   UNL d   1      61.486  44.822  50.915  0.00  0.00     0.182 A 
ATOM      3  C   UNL d   1      61.747  45.449  49.664  0.00  0.00     0.268 A 
ATOM      4  N   UNL d   1      61.298  45.550  51.240  0.00  0.00    -0.222 NA
ATOM      5  C   UNL d   1      61.560  46.177  49.983  0.00  0.00     0.074 A 
ATOM      6  C   UNL d   1      61.332  46.239  50.780  0.00  0.00     0.088 A 
ATOM      7  C   UNL d   1      61.178  47.661  50.641  0.00  0.00     0.058 A 
ATOM      8  C   UNL d   1      61.141  46.976  51.111  0.00  0.00     0.024 A 
ATOM      9  C   UNL d   1      61.595  46.869  49.521  0.00  0.00     0.006 A 
ATOM     10  O   UNL d   1      61.975  45.388  48.868  0.00  0.00    -0.267 OA
ATOM     11  C   UNL d   1      61.406  47.594  49.849  0.00  0.00     0.005 A 
ENDROOT
BRANCH   7  12
ATOM     12  C   UNL d   1      60.988  48.390  50.973  0.00  0.00     0.265 C 
ATOM     13  N   UNL d   1      60.238  48.684  50.939  0.00  0.00    -0.272 N 
ATOM     14  C   UNL d   1      59.646  48.229  50.554  0.00  0.00     0.083 A 
ATOM     15  C   UNL d   1      60.047  49.403  51.266  0.00  0.00     0.083 A 
ATOM     16  C   UNL d   1      58.881  48.534  50.521  0.00  0.00     0.024 A 
ATOM     17  C   UNL d   1      58.687  49.262  50.852  0.00  0.00     0.062 A 
ATOM     18  C   UNL d   1      59.286  49.708  51.235  0.00  0.00     0.024 A 
ATOM     19  O   UNL d   1      61.607  48.827  51.356  0.00  0.00    -0.267 OA
BRANCH  17  20
ATOM     20  C   UNL d   1      57.918  49.555  50.813  0.00  0.00     0.297 C 
ATOM     21  O   UNL d   1      57.570  49.706  50.076  0.00  0.00    -0.264 OA
ATOM     22  N   UNL d   1      57.486  49.701  51.509  0.00  0.00    -0.102 N 
ENDBRANCH  17  20
ENDBRANCH   7  12
BRANCH   2  23
ATOM     23  S   UNL d   1      61.448  44.133  51.388  0.00  0.00    -0.044 SA
BRANCH  23  24
ATOM     24  C   UNL d   1      60.941  44.112  52.029  0.00  0.00     0.107 C 
BRANCH  24  25
ATOM     25  C   UNL d   1      60.893  43.412  52.478  0.00  0.00     0.307 C 
ATOM     26  O   UNL d   1      61.065  42.682  52.138  0.00  0.00    -0.258 OA
BRANCH  25  27
ATOM     27  O   UNL d   1      60.667  43.464  53.276  0.00  0.00    -0.271 OA
BRANCH  27  28
ATOM     28  C   UNL d   1      61.016  42.944  53.820  0.00  0.00     0.126 C 
ATOM     29  C   UNL d   1      61.442  43.261  54.424  0.00  0.00     0.029 C 
ENDBRANCH  27  28
ENDBRANCH  25  27
ENDBRANCH  24  25
ENDBRANCH  23  24
ENDBRANCH   2  23
BRANCH   1  30
ATOM     30  C   UNL d   1      61.898  44.039  49.808  0.00  0.00     0.069 A 
ATOM     31  C   UNL d   1      61.494  43.762  49.157  0.00  0.00     0.018 A 
ATOM     32  C   UNL d   1      61.681  43.032  48.829  0.00  0.00     0.002 A 
ATOM     33  C   UNL d   1      62.292  42.571  49.168  0.00  0.00     0.000 A 
ATOM     34  C   UNL d   1      62.695  42.856  49.824  0.00  0.00     0.002 A 
ATOM     35  C   UNL d   1      62.511  43.589  50.158  0.00  0.00     0.018 A 
ENDBRANCH   1  30
TORSDOF 8
ENDMDL
