MODEL 1
REMARK VINA RESULT:       9.8      0.000      0.000
REMARK  1 active torsions:
REMARK  status: ('A' for Active; 'I' for Inactive)
REMARK    1  A    between atoms: C_2  and  C_1 
ROOT
ATOM      1  C   UNL d   1     -58.520 -98.766 -44.732  0.00  0.00     0.104 A 
ATOM      2  C   UNL d   1     -58.404 -98.763 -43.900  0.00  0.00     0.202 A 
ATOM      3  C   UNL d   1     -57.837 -98.764 -45.240  0.00  0.00     0.021 A 
ATOM      4  C   UNL d   1     -57.637 -98.757 -43.599  0.00  0.00     0.043 A 
ATOM      5  C   UNL d   1     -57.087 -98.758 -44.898  0.00  0.00     0.058 A 
ATOM      6  C   UNL d   1     -56.980 -98.755 -44.081  0.00  0.00     0.015 A 
ATOM      7  O   UNL d   1     -59.075 -98.765 -43.389  0.00  0.00    -0.286 OA
ATOM      8 CL   UNL d   1     -56.416 -98.756 -45.409  0.00  0.00    -0.082 Cl
ENDROOT
BRANCH   1   9
ATOM      9  C   UNL d   1     -59.283 -98.771 -45.048  0.00  0.00     0.214 C 
ATOM     10  O   UNL d   1     -59.959 -98.788 -44.559  0.00  0.00    -0.644 OA
ATOM     11  O   UNL d   1     -59.415 -98.760 -45.880  0.00  0.00    -0.644 OA
ENDBRANCH   1   9
TORSDOF 1
ENDMDL
