MODEL 1
REMARK VINA RESULT:      53.5      0.000      0.000
REMARK  3 active torsions:
REMARK  status: ('A' for Active; 'I' for Inactive)
REMARK    1  A    between atoms: S_3  and  N_1 
REMARK    2  A    between atoms: C_5  and  C_4 
REMARK    3  A    between atoms: C_12  and  C_6 
ROOT
ATOM      1  N   UNL d   1      13.512  13.035  -4.044  0.00  0.00    -0.155 N 
ATOM      2  N   UNL d   1      13.373  13.565  -4.647  0.00  0.00    -0.153 NA
ATOM      3  C   UNL d   1      13.757  13.445  -3.387  0.00  0.00     0.098 A 
ATOM      4  C   UNL d   1      13.535  14.321  -4.356  0.00  0.00     0.126 A 
ATOM      5  C   UNL d   1      13.772  14.247  -3.577  0.00  0.00     0.043 A 
ENDROOT
BRANCH   3   6
ATOM      6  C   UNL d   1      13.957  13.121  -2.654  0.00  0.00     0.047 A 
ATOM      7  C   UNL d   1      14.736  13.150  -2.389  0.00  0.00     0.140 A 
ATOM      8  N   UNL d   1      14.936  12.825  -1.657  0.00  0.00    -0.234 NA
ATOM      9 CL   UNL d   1      15.318  13.503  -2.857  0.00  0.00    -0.061 Cl
ATOM     10  C   UNL d   1      14.354  12.473  -1.191  0.00  0.00     0.082 A 
ATOM     11  C   UNL d   1      13.575  12.444  -1.455  0.00  0.00     0.018 A 
ATOM     12  C   UNL d   1      14.554  12.149  -0.459  0.00  0.00     0.018 A 
ATOM     13  C   UNL d   1      13.375  12.768  -2.187  0.00  0.00     0.005 A 
ATOM     14  C   UNL d   1      12.993  12.091  -0.989  0.00  0.00     0.002 A 
ATOM     15  C   UNL d   1      13.200  11.779  -0.279  0.00  0.00     0.000 A 
ATOM     16  C   UNL d   1      13.979  11.808  -0.014  0.00  0.00     0.002 A 
ATOM     17  C   UNL d   1      15.335  12.177  -0.194  0.00  0.00     0.002 C 
ENDBRANCH   3   6
BRANCH   1  18
ATOM     18  S   UNL d   1      13.307  12.394  -4.505  0.00  0.00     0.266 S 
ATOM     19  O   UNL d   1      12.817  11.799  -4.218  0.00  0.00    -0.203 OA
ATOM     20  O   UNL d   1      13.686  12.518  -5.227  0.00  0.00    -0.203 OA
ATOM     21  C   UNL d   1      13.221  11.845  -5.115  0.00  0.00     0.165 C 
ENDBRANCH   1  18
BRANCH   4  22
ATOM     22  C   UNL d   1      13.470  15.016  -4.768  0.00  0.00     0.119 A 
ATOM     23  O   UNL d   1      12.794  15.410  -4.978  0.00  0.00    -0.304 OA
ATOM     24  C   UNL d   1      12.989  16.090  -5.391  0.00  0.00     0.123 A 
ATOM     25  C   UNL d   1      13.801  16.130  -5.445  0.00  0.00     0.029 A 
ATOM     26  C   UNL d   1      14.117  15.466  -5.061  0.00  0.00     0.028 A 
ENDBRANCH   4  22
TORSDOF 3
ENDMDL
