MODEL 1
REMARK VINA RESULT:       9.9      0.000      0.000
REMARK  5 active torsions:
REMARK  status: ('A' for Active; 'I' for Inactive)
REMARK    1  A    between atoms: N_5  and  C_1 
REMARK    2  A    between atoms: C_8  and  C_2 
REMARK       I    between atoms: C_6  and  N_5 
REMARK    3  A    between atoms: C_9  and  C_6 
REMARK    4  A    between atoms: O_12  and  C_8 
REMARK    5  A    between atoms: C_17  and  O_12 
ROOT
ATOM      1  C   UNL d   1      24.585  12.307  -2.424  0.00  0.00     0.114 A 
ATOM      2  C   UNL d   1      24.305  12.902  -1.272  0.00  0.00     0.094 A 
ATOM      3  S   UNL d   1      24.299  12.992  -2.071  0.00  0.00    -0.062 SA
ATOM      4  C   UNL d   1      24.607  12.130  -1.135  0.00  0.00     0.013 A 
ATOM      5  C   UNL d   1      24.768  11.791  -1.819  0.00  0.00     0.026 A 
ATOM      6  C   UNL d   1      24.719  11.781  -0.395  0.00  0.00     0.001 C 
ENDROOT
BRANCH   1   7
ATOM      7  N   UNL d   1      24.677  12.152  -3.260  0.00  0.00    -0.205 NA
ATOM      8  C   UNL d   1      24.534  12.750  -3.799  0.00  0.00     0.255 C 
ATOM      9  O   UNL d   1      24.305  13.492  -3.553  0.00  0.00    -0.270 OA
BRANCH   8  10
ATOM     10  C   UNL d   1      24.621  12.607  -4.595  0.00  0.00     0.073 C 
ATOM     11  C   UNL d   1      24.681  11.798  -4.957  0.00  0.00     0.009 C 
ATOM     12  C   UNL d   1      24.663  13.245  -5.173  0.00  0.00     0.009 C 
ATOM     13  C   UNL d   1      24.697  12.498  -5.294  0.00  0.00     0.009 C 
ENDBRANCH   8  10
ENDBRANCH   1   7
BRANCH   2  14
ATOM     14  C   UNL d   1      24.065  13.454  -0.699  0.00  0.00     0.306 C 
ATOM     15  O   UNL d   1      24.510  14.129  -0.603  0.00  0.00    -0.258 OA
BRANCH  14  16
ATOM     16  O   UNL d   1      23.402  13.334  -0.240  0.00  0.00    -0.271 OA
BRANCH  16  17
ATOM     17  C   UNL d   1      22.913  13.961  -0.043  0.00  0.00     0.126 C 
ATOM     18  C   UNL d   1      22.114  13.919  -0.242  0.00  0.00     0.029 C 
ENDBRANCH  16  17
ENDBRANCH  14  16
ENDBRANCH   2  14
TORSDOF 5
ENDMDL
