MODEL 1
REMARK VINA RESULT:     131.9      0.000      0.000
REMARK  9 active torsions:
REMARK  status: ('A' for Active; 'I' for Inactive)
REMARK    1  A    between atoms: C_2  and  C_1 
REMARK    2  A    between atoms: C_23  and  C_7 
REMARK    3  A    between atoms: C_12  and  O_16 
REMARK    4  A    between atoms: C_18  and  C_12 
REMARK    5  A    between atoms: O_16  and  C_14 
REMARK    6  A    between atoms: C_30  and  C_17 
REMARK    7  A    between atoms: C_20  and  C_28 
REMARK    8  A    between atoms: O_25  and  C_23 
REMARK    9  A    between atoms: C_28  and  O_25 
ROOT
ATOM      1  C   UNL d   1      61.412  45.849  50.383  0.00  0.00     0.098 A 
ATOM      2  C   UNL d   1      61.595  46.529  49.935  0.00  0.00     0.202 A 
ATOM      3  C   UNL d   1      61.357  47.275  50.193  0.00  0.00     0.062 A 
ATOM      4  C   UNL d   1      60.984  45.928  51.096  0.00  0.00     0.130 A 
ATOM      5  C   UNL d   1      60.929  47.354  50.905  0.00  0.00     0.105 A 
ATOM      6  O   UNL d   1      60.738  46.679  51.365  0.00  0.00    -0.305 OA
ATOM      7  C   UNL d   1      61.537  47.944  49.752  0.00  0.00     0.007 A 
ATOM      8  C   UNL d   1      60.874  48.769  50.716  0.00  0.00     0.105 A 
ATOM      9  C   UNL d   1      60.690  48.100  51.164  0.00  0.00     0.050 A 
ATOM     10  C   UNL d   1      61.298  48.691  50.011  0.00  0.00     0.023 A 
ATOM     11  O   UNL d   1      62.019  46.451  49.229  0.00  0.00    -0.286 OA
ENDROOT
BRANCH   1  12
ATOM     12  C   UNL d   1      61.652  45.103  50.122  0.00  0.00     0.153 A 
ATOM     13  N   UNL d   1      62.210  44.622  50.493  0.00  0.00    -0.227 NA
ATOM     14  C   UNL d   1      62.282  43.931  50.048  0.00  0.00     0.099 A 
ATOM     15  C   UNL d   1      62.747  43.260  50.147  0.00  0.00     0.021 A 
ATOM     16  C   UNL d   1      61.769  43.987  49.405  0.00  0.00     0.083 A 
ATOM     17  C   UNL d   1      62.702  42.642  49.603  0.00  0.00     0.002 A 
ATOM     18  C   UNL d   1      62.184  42.705  48.958  0.00  0.00     0.002 A 
ATOM     19  C   UNL d   1      61.721  43.372  48.860  0.00  0.00     0.019 A 
ATOM     20  N   UNL d   1      61.382  44.714  49.455  0.00  0.00    -0.288 N 
ATOM     21  C   UNL d   1      60.819  44.998  48.922  0.00  0.00     0.101 C 
ENDBRANCH   1  12
BRANCH   4  22
ATOM     22  C   UNL d   1      60.799  45.251  51.545  0.00  0.00     0.142 C 
BRANCH  22  23
ATOM     23  O   UNL d   1      61.023  45.207  52.338  0.00  0.00    -0.315 OA
BRANCH  23  24
ATOM     24  C   UNL d   1      60.662  44.655  52.840  0.00  0.00     0.246 C 
BRANCH  24  25
ATOM     25  C   UNL d   1      61.107  44.021  53.137  0.00  0.00     0.217 C 
ATOM     26  O   UNL d   1      61.369  44.023  53.921  0.00  0.00    -0.645 OA
ATOM     27  O   UNL d   1      61.286  43.386  52.643  0.00  0.00    -0.645 OA
ENDBRANCH  24  25
ENDBRANCH  23  24
ENDBRANCH  22  23
ENDBRANCH   4  22
BRANCH  10  28
ATOM     28  C   UNL d   1      61.482  49.363  49.563  0.00  0.00     0.002 C 
ATOM     29  C   UNL d   1      60.996  49.585  48.934  0.00  0.00     0.000 C 
ENDBRANCH  10  28
BRANCH   8  30
ATOM     30  O   UNL d   1      60.635  49.515  50.975  0.00  0.00    -0.276 OA
BRANCH  30  31
ATOM     31  C   UNL d   1      60.005  49.587  51.504  0.00  0.00     0.275 C 
ATOM     32  O   UNL d   1      60.147  49.606  52.317  0.00  0.00    -0.264 OA
BRANCH  31  33
ATOM     33  C   UNL d   1      59.229  49.642  51.219  0.00  0.00     0.078 C 
ATOM     34  C   UNL d   1      58.448  49.696  50.935  0.00  0.00     0.010 C 
ATOM     35  C   UNL d   1      59.517  49.698  50.448  0.00  0.00     0.010 C 
ATOM     36  C   UNL d   1      58.946  49.585  51.998  0.00  0.00     0.010 C 
ENDBRANCH  31  33
ENDBRANCH  30  31
ENDBRANCH   8  30
TORSDOF 9
ENDMDL
MODEL 2
REMARK VINA RESULT:     134.2      1.623      2.098
REMARK  9 active torsions:
REMARK  status: ('A' for Active; 'I' for Inactive)
REMARK    1  A    between atoms: C_2  and  C_1 
REMARK    2  A    between atoms: C_23  and  C_7 
REMARK    3  A    between atoms: C_12  and  O_16 
REMARK    4  A    between atoms: C_18  and  C_12 
REMARK    5  A    between atoms: O_16  and  C_14 
REMARK    6  A    between atoms: C_30  and  C_17 
REMARK    7  A    between atoms: C_20  and  C_28 
REMARK    8  A    between atoms: O_25  and  C_23 
REMARK    9  A    between atoms: C_28  and  O_25 
ROOT
ATOM      1  C   UNL d   1      60.715  45.850  50.845  0.00  0.00     0.098 A 
ATOM      2  C   UNL d   1      61.147  46.554  50.968  0.00  0.00     0.202 A 
ATOM      3  C   UNL d   1      60.769  47.286  50.934  0.00  0.00     0.062 A 
ATOM      4  C   UNL d   1      59.896  45.891  50.686  0.00  0.00     0.130 A 
ATOM      5  C   UNL d   1      59.950  47.327  50.775  0.00  0.00     0.105 A 
ATOM      6  O   UNL d   1      59.505  46.628  50.650  0.00  0.00    -0.305 OA
ATOM      7  C   UNL d   1      61.193  47.979  51.055  0.00  0.00     0.007 A 
ATOM      8  C   UNL d   1      60.004  48.751  50.864  0.00  0.00     0.105 A 
ATOM      9  C   UNL d   1      59.571  48.059  50.741  0.00  0.00     0.050 A 
ATOM     10  C   UNL d   1      60.814  48.711  51.021  0.00  0.00     0.023 A 
ATOM     11  O   UNL d   1      61.958  46.514  51.126  0.00  0.00    -0.286 OA
ENDROOT
BRANCH   1  12
ATOM     12  C   UNL d   1      61.097  45.118  50.880  0.00  0.00     0.153 A 
ATOM     13  N   UNL d   1      61.342  44.674  50.229  0.00  0.00    -0.227 NA
ATOM     14  C   UNL d   1      61.696  43.985  50.515  0.00  0.00     0.099 A 
ATOM     15  C   UNL d   1      62.039  43.345  50.131  0.00  0.00     0.021 A 
ATOM     16  C   UNL d   1      61.668  44.006  51.339  0.00  0.00     0.083 A 
ATOM     17  C   UNL d   1      62.355  42.721  50.568  0.00  0.00     0.002 A 
ATOM     18  C   UNL d   1      62.324  42.748  51.397  0.00  0.00     0.002 A 
ATOM     19  C   UNL d   1      61.982  43.386  51.779  0.00  0.00     0.019 A 
ATOM     20  N   UNL d   1      61.296  44.709  51.560  0.00  0.00    -0.288 N 
ATOM     21  C   UNL d   1      61.151  44.954  52.335  0.00  0.00     0.101 C 
ENDBRANCH   1  12
BRANCH   4  22
ATOM     22  C   UNL d   1      59.463  45.190  50.562  0.00  0.00     0.142 C 
BRANCH  22  23
ATOM     23  O   UNL d   1      58.849  44.986  51.076  0.00  0.00    -0.315 OA
BRANCH  23  24
ATOM     24  C   UNL d   1      58.063  45.034  50.820  0.00  0.00     0.246 C 
BRANCH  24  25
ATOM     25  C   UNL d   1      57.494  44.531  51.153  0.00  0.00     0.217 C 
ATOM     26  O   UNL d   1      57.293  44.593  51.953  0.00  0.00    -0.645 OA
ATOM     27  O   UNL d   1      57.128  43.964  50.679  0.00  0.00    -0.645 OA
ENDBRANCH  24  25
ENDBRANCH  23  24
ENDBRANCH  22  23
ENDBRANCH   4  22
BRANCH  10  28
ATOM     28  C   UNL d   1      61.247  49.407  51.144  0.00  0.00     0.002 C 
ATOM     29  C   UNL d   1      61.781  49.666  50.571  0.00  0.00     0.000 C 
ENDBRANCH  10  28
BRANCH   8  30
ATOM     30  O   UNL d   1      59.625  49.484  50.830  0.00  0.00    -0.276 OA
BRANCH  30  31
ATOM     31  C   UNL d   1      59.020  49.612  50.282  0.00  0.00     0.275 C 
ATOM     32  O   UNL d   1      59.199  49.704  49.482  0.00  0.00    -0.264 OA
BRANCH  31  33
ATOM     33  C   UNL d   1      58.232  49.648  50.536  0.00  0.00     0.078 C 
ATOM     34  C   UNL d   1      57.441  49.684  50.795  0.00  0.00     0.010 C 
ATOM     35  C   UNL d   1      57.979  49.628  49.752  0.00  0.00     0.010 C 
ATOM     36  C   UNL d   1      58.494  49.667  51.324  0.00  0.00     0.010 C 
ENDBRANCH  31  33
ENDBRANCH  30  31
ENDBRANCH   8  30
TORSDOF 9
ENDMDL
