MODEL 1
REMARK VINA RESULT:      -9.0      0.000      0.000
REMARK  4 active torsions:
REMARK  status: ('A' for Active; 'I' for Inactive)
REMARK    1  A    between atoms: S_3  and  N_1 
REMARK    2  A    between atoms: C_7  and  C_4 
REMARK    3  A    between atoms: C_10  and  C_5 
REMARK    4  A    between atoms: C_21  and  C_20 
ROOT
ATOM      1  N   UNL d   1      53.272  32.815  53.454  0.00  0.00    -0.155 N 
ATOM      2  N   UNL d   1      52.839  33.490  53.224  0.00  0.00    -0.153 NA
ATOM      3  C   UNL d   1      52.090  33.238  53.002  0.00  0.00     0.126 A 
ATOM      4  C   UNL d   1      52.787  32.170  53.371  0.00  0.00     0.096 A 
ATOM      5  C   UNL d   1      52.071  32.411  53.098  0.00  0.00     0.043 A 
ENDROOT
BRANCH   4   6
ATOM      6  C   UNL d   1      53.000  31.391  53.539  0.00  0.00     0.018 A 
ATOM      7  C   UNL d   1      53.165  30.840  52.929  0.00  0.00     0.002 A 
ATOM      8  C   UNL d   1      53.377  30.060  53.098  0.00  0.00     0.000 A 
ATOM      9  C   UNL d   1      53.424  29.831  53.877  0.00  0.00     0.000 A 
ATOM     10  C   UNL d   1      53.272  30.333  54.488  0.00  0.00     0.000 A 
ATOM     11  C   UNL d   1      53.060  31.112  54.319  0.00  0.00     0.002 A 
BRANCH   9  12
ATOM     12  C   UNL d   1      53.636  29.053  54.046  0.00  0.00     0.000 C 
ATOM     13  C   UNL d   1      53.410  28.709  54.762  0.00  0.00     0.000 C 
ENDBRANCH   9  12
ENDBRANCH   4   6
BRANCH   1  14
ATOM     14  S   UNL d   1      54.055  32.851  53.715  0.00  0.00     0.266 S 
ATOM     15  O   UNL d   1      53.791  32.977  54.490  0.00  0.00    -0.203 OA
ATOM     16  O   UNL d   1      54.342  32.727  52.959  0.00  0.00    -0.203 OA
ATOM     17  C   UNL d   1      54.825  32.891  54.002  0.00  0.00     0.165 C 
ENDBRANCH   1  14
BRANCH   3  18
ATOM     18  C   UNL d   1      51.467  33.712  52.732  0.00  0.00     0.119 A 
ATOM     19  O   UNL d   1      51.460  34.073  51.999  0.00  0.00    -0.304 OA
ATOM     20  C   UNL d   1      50.729  34.496  51.955  0.00  0.00     0.123 A 
ATOM     21  C   UNL d   1      50.330  34.372  52.662  0.00  0.00     0.029 A 
ATOM     22  C   UNL d   1      50.775  33.896  53.139  0.00  0.00     0.028 A 
ENDBRANCH   3  18
TORSDOF 4
ENDMDL
MODEL 2
REMARK VINA RESULT:      -8.9      1.634      4.049
REMARK  4 active torsions:
REMARK  status: ('A' for Active; 'I' for Inactive)
REMARK    1  A    between atoms: S_3  and  N_1 
REMARK    2  A    between atoms: C_7  and  C_4 
REMARK    3  A    between atoms: C_10  and  C_5 
REMARK    4  A    between atoms: C_21  and  C_20 
ROOT
ATOM      1  N   UNL d   1      52.942  32.511  53.471  0.00  0.00    -0.155 N 
ATOM      2  N   UNL d   1      53.635  32.466  53.933  0.00  0.00    -0.153 NA
ATOM      3  C   UNL d   1      53.743  33.199  54.287  0.00  0.00     0.126 A 
ATOM      4  C   UNL d   1      52.641  33.261  53.548  0.00  0.00     0.096 A 
ATOM      5  C   UNL d   1      53.115  33.686  54.038  0.00  0.00     0.043 A 
ENDROOT
BRANCH   4   6
ATOM      6  C   UNL d   1      51.956  33.539  53.181  0.00  0.00     0.018 A 
ATOM      7  C   UNL d   1      51.987  33.949  52.451  0.00  0.00     0.002 A 
ATOM      8  C   UNL d   1      51.303  34.227  52.083  0.00  0.00     0.000 A 
ATOM      9  C   UNL d   1      50.587  34.096  52.447  0.00  0.00     0.000 A 
ATOM     10  C   UNL d   1      50.520  33.706  53.148  0.00  0.00     0.000 A 
ATOM     11  C   UNL d   1      51.204  33.428  53.515  0.00  0.00     0.002 A 
BRANCH   9  12
ATOM     12  C   UNL d   1      49.903  34.373  52.080  0.00  0.00     0.000 C 
ATOM     13  C   UNL d   1      49.376  34.853  52.498  0.00  0.00     0.000 C 
ENDBRANCH   9  12
ENDBRANCH   4   6
BRANCH   1  14
ATOM     14  S   UNL d   1      52.654  31.875  53.030  0.00  0.00     0.266 S 
ATOM     15  O   UNL d   1      52.235  31.606  53.693  0.00  0.00    -0.203 OA
ATOM     16  O   UNL d   1      53.057  32.120  52.362  0.00  0.00    -0.203 OA
ATOM     17  C   UNL d   1      52.352  31.232  52.615  0.00  0.00     0.165 C 
ENDBRANCH   1  14
BRANCH   3  18
ATOM     18  C   UNL d   1      54.359  33.419  54.795  0.00  0.00     0.119 A 
ATOM     19  O   UNL d   1      54.331  33.319  55.605  0.00  0.00    -0.304 OA
ATOM     20  C   UNL d   1      55.066  33.615  55.901  0.00  0.00     0.123 A 
ATOM     21  C   UNL d   1      55.502  33.878  55.258  0.00  0.00     0.029 A 
ATOM     22  C   UNL d   1      55.077  33.761  54.582  0.00  0.00     0.028 A 
ENDBRANCH   3  18
TORSDOF 4
ENDMDL
MODEL 3
REMARK VINA RESULT:      -8.8      1.092      4.096
REMARK  4 active torsions:
REMARK  status: ('A' for Active; 'I' for Inactive)
REMARK    1  A    between atoms: S_3  and  N_1 
REMARK    2  A    between atoms: C_7  and  C_4 
REMARK    3  A    between atoms: C_10  and  C_5 
REMARK    4  A    between atoms: C_21  and  C_20 
ROOT
ATOM      1  N   UNL d   1      52.730  33.297  53.549  0.00  0.00    -0.155 N 
ATOM      2  N   UNL d   1      53.225  32.641  53.694  0.00  0.00    -0.153 NA
ATOM      3  C   UNL d   1      52.859  31.981  53.371  0.00  0.00     0.126 A 
ATOM      4  C   UNL d   1      52.079  33.032  53.144  0.00  0.00     0.096 A 
ATOM      5  C   UNL d   1      52.144  32.239  53.030  0.00  0.00     0.043 A 
ENDROOT
BRANCH   4   6
ATOM      6  C   UNL d   1      51.451  33.504  52.891  0.00  0.00     0.018 A 
ATOM      7  C   UNL d   1      50.769  33.616  53.365  0.00  0.00     0.002 A 
ATOM      8  C   UNL d   1      50.141  34.088  53.112  0.00  0.00     0.000 A 
ATOM      9  C   UNL d   1      50.195  34.448  52.384  0.00  0.00     0.000 A 
ATOM     10  C   UNL d   1      50.835  34.363  51.904  0.00  0.00     0.000 A 
ATOM     11  C   UNL d   1      51.463  33.891  52.157  0.00  0.00     0.002 A 
BRANCH   9  12
ATOM     12  C   UNL d   1      49.568  34.919  52.132  0.00  0.00     0.000 C 
ATOM     13  C   UNL d   1      49.034  34.631  51.572  0.00  0.00     0.000 C 
ENDBRANCH   9  12
ENDBRANCH   4   6
BRANCH   1  14
ATOM     14  S   UNL d   1      52.917  34.064  53.795  0.00  0.00     0.266 S 
ATOM     15  O   UNL d   1      52.558  33.915  54.527  0.00  0.00    -0.203 OA
ATOM     16  O   UNL d   1      53.277  34.235  53.081  0.00  0.00    -0.203 OA
ATOM     17  C   UNL d   1      53.089  34.821  54.066  0.00  0.00     0.165 C 
ENDBRANCH   1  14
BRANCH   3  18
ATOM     18  C   UNL d   1      53.142  31.203  53.379  0.00  0.00     0.119 A 
ATOM     19  O   UNL d   1      53.770  30.956  53.839  0.00  0.00    -0.304 OA
ATOM     20  C   UNL d   1      53.869  30.133  53.676  0.00  0.00     0.123 A 
ATOM     21  C   UNL d   1      53.298  29.921  53.126  0.00  0.00     0.029 A 
ATOM     22  C   UNL d   1      52.853  30.568  52.941  0.00  0.00     0.028 A 
ENDBRANCH   3  18
TORSDOF 4
ENDMDL
MODEL 4
REMARK VINA RESULT:      -8.4      1.444      2.627
REMARK  4 active torsions:
REMARK  status: ('A' for Active; 'I' for Inactive)
REMARK    1  A    between atoms: S_3  and  N_1 
REMARK    2  A    between atoms: C_7  and  C_4 
REMARK    3  A    between atoms: C_10  and  C_5 
REMARK    4  A    between atoms: C_21  and  C_20 
ROOT
ATOM      1  N   UNL d   1      52.149  32.604  53.046  0.00  0.00    -0.155 N 
ATOM      2  N   UNL d   1      51.423  32.807  52.689  0.00  0.00    -0.153 NA
ATOM      3  C   UNL d   1      51.275  33.596  52.862  0.00  0.00     0.126 A 
ATOM      4  C   UNL d   1      52.431  33.263  53.426  0.00  0.00     0.096 A 
ATOM      5  C   UNL d   1      51.913  33.869  53.323  0.00  0.00     0.043 A 
ENDROOT
BRANCH   4   6
ATOM      6  C   UNL d   1      53.137  33.302  53.851  0.00  0.00     0.018 A 
ATOM      7  C   UNL d   1      53.151  33.231  54.686  0.00  0.00     0.002 A 
ATOM      8  C   UNL d   1      53.857  33.270  55.110  0.00  0.00     0.000 A 
ATOM      9  C   UNL d   1      54.551  33.380  54.700  0.00  0.00     0.000 A 
ATOM     10  C   UNL d   1      54.575  33.452  53.899  0.00  0.00     0.000 A 
ATOM     11  C   UNL d   1      53.869  33.413  53.475  0.00  0.00     0.002 A 
BRANCH   9  12
ATOM     12  C   UNL d   1      55.257  33.419  55.124  0.00  0.00     0.000 C 
ATOM     13  C   UNL d   1      55.640  34.143  55.223  0.00  0.00     0.000 C 
ENDBRANCH   9  12
ENDBRANCH   4   6
BRANCH   1  14
ATOM     14  S   UNL d   1      52.481  31.850  52.992  0.00  0.00     0.266 S 
ATOM     15  O   UNL d   1      52.052  31.614  53.661  0.00  0.00    -0.203 OA
ATOM     16  O   UNL d   1      52.915  32.058  52.330  0.00  0.00    -0.203 OA
ATOM     17  C   UNL d   1      52.796  31.091  52.962  0.00  0.00     0.165 C 
ENDBRANCH   1  14
BRANCH   3  18
ATOM     18  C   UNL d   1      50.619  34.041  52.626  0.00  0.00     0.119 A 
ATOM     19  O   UNL d   1      50.382  34.118  51.848  0.00  0.00    -0.304 OA
ATOM     20  C   UNL d   1      49.697  34.614  51.860  0.00  0.00     0.123 A 
ATOM     21  C   UNL d   1      49.553  34.813  52.643  0.00  0.00     0.029 A 
ATOM     22  C   UNL d   1      50.110  34.468  53.114  0.00  0.00     0.028 A 
ENDBRANCH   3  18
TORSDOF 4
ENDMDL
MODEL 5
REMARK VINA RESULT:      -7.6      1.926      4.163
REMARK  4 active torsions:
REMARK  status: ('A' for Active; 'I' for Inactive)
REMARK    1  A    between atoms: S_3  and  N_1 
REMARK    2  A    between atoms: C_7  and  C_4 
REMARK    3  A    between atoms: C_10  and  C_5 
REMARK    4  A    between atoms: C_21  and  C_20 
ROOT
ATOM      1  N   UNL d   1      51.862  32.981  53.066  0.00  0.00    -0.155 N 
ATOM      2  N   UNL d   1      51.869  32.170  52.873  0.00  0.00    -0.153 NA
ATOM      3  C   UNL d   1      52.584  31.861  53.132  0.00  0.00     0.126 A 
ATOM      4  C   UNL d   1      52.564  33.154  53.436  0.00  0.00     0.096 A 
ATOM      5  C   UNL d   1      53.009  32.487  53.482  0.00  0.00     0.043 A 
ENDROOT
BRANCH   4   6
ATOM      6  C   UNL d   1      52.782  33.898  53.718  0.00  0.00     0.018 A 
ATOM      7  C   UNL d   1      52.740  34.086  54.534  0.00  0.00     0.002 A 
ATOM      8  C   UNL d   1      52.959  34.830  54.816  0.00  0.00     0.000 A 
ATOM      9  C   UNL d   1      53.219  35.386  54.283  0.00  0.00     0.000 A 
ATOM     10  C   UNL d   1      53.272  35.240  53.493  0.00  0.00     0.000 A 
ATOM     11  C   UNL d   1      53.054  34.496  53.211  0.00  0.00     0.002 A 
BRANCH   9  12
ATOM     12  C   UNL d   1      53.437  36.129  54.565  0.00  0.00     0.000 C 
ATOM     13  C   UNL d   1      52.903  36.576  55.009  0.00  0.00     0.000 C 
ENDBRANCH   9  12
ENDBRANCH   4   6
BRANCH   1  14
ATOM     14  S   UNL d   1      51.227  33.480  52.890  0.00  0.00     0.266 S 
ATOM     15  O   UNL d   1      50.858  33.258  53.598  0.00  0.00    -0.203 OA
ATOM     16  O   UNL d   1      51.571  33.714  52.186  0.00  0.00    -0.203 OA
ATOM     17  C   UNL d   1      50.582  33.968  52.741  0.00  0.00     0.165 C 
ENDBRANCH   1  14
BRANCH   3  18
ATOM     18  C   UNL d   1      52.841  31.077  53.062  0.00  0.00     0.119 A 
ATOM     19  O   UNL d   1      52.666  30.601  52.422  0.00  0.00    -0.304 OA
ATOM     20  C   UNL d   1      53.033  29.856  52.579  0.00  0.00     0.123 A 
ATOM     21  C   UNL d   1      53.412  29.917  53.304  0.00  0.00     0.029 A 
ATOM     22  C   UNL d   1      53.299  30.657  53.603  0.00  0.00     0.028 A 
ENDBRANCH   3  18
TORSDOF 4
ENDMDL
MODEL 6
REMARK VINA RESULT:      -7.6      1.725      3.899
REMARK  4 active torsions:
REMARK  status: ('A' for Active; 'I' for Inactive)
REMARK    1  A    between atoms: S_3  and  N_1 
REMARK    2  A    between atoms: C_7  and  C_4 
REMARK    3  A    between atoms: C_10  and  C_5 
REMARK    4  A    between atoms: C_21  and  C_20 
ROOT
ATOM      1  N   UNL d   1      54.269  32.587  53.850  0.00  0.00    -0.155 N 
ATOM      2  N   UNL d   1      54.266  31.770  53.681  0.00  0.00    -0.153 NA
ATOM      3  C   UNL d   1      53.483  31.541  53.588  0.00  0.00     0.126 A 
ATOM      4  C   UNL d   1      53.499  32.842  53.858  0.00  0.00     0.096 A 
ATOM      5  C   UNL d   1      53.014  32.220  53.702  0.00  0.00     0.043 A 
ENDROOT
BRANCH   4   6
ATOM      6  C   UNL d   1      53.255  33.616  54.004  0.00  0.00     0.018 A 
ATOM      7  C   UNL d   1      53.049  34.136  53.379  0.00  0.00     0.002 A 
ATOM      8  C   UNL d   1      52.805  34.910  53.525  0.00  0.00     0.000 A 
ATOM      9  C   UNL d   1      52.766  35.166  54.296  0.00  0.00     0.000 A 
ATOM     10  C   UNL d   1      52.956  34.694  54.921  0.00  0.00     0.000 A 
ATOM     11  C   UNL d   1      53.200  33.920  54.775  0.00  0.00     0.002 A 
BRANCH   9  12
ATOM     12  C   UNL d   1      52.522  35.939  54.442  0.00  0.00     0.000 C 
ATOM     13  C   UNL d   1      53.013  36.455  54.861  0.00  0.00     0.000 C 
ENDBRANCH   9  12
ENDBRANCH   4   6
BRANCH   1  14
ATOM     14  S   UNL d   1      54.963  33.017  53.979  0.00  0.00     0.266 S 
ATOM     15  O   UNL d   1      55.062  33.101  53.160  0.00  0.00    -0.203 OA
ATOM     16  O   UNL d   1      54.888  32.949  54.790  0.00  0.00    -0.203 OA
ATOM     17  C   UNL d   1      55.657  33.448  54.077  0.00  0.00     0.165 C 
ENDBRANCH   1  14
BRANCH   3  18
ATOM     18  C   UNL d   1      53.206  30.780  53.415  0.00  0.00     0.119 A 
ATOM     19  O   UNL d   1      52.812  30.590  52.726  0.00  0.00    -0.304 OA
ATOM     20  C   UNL d   1      52.634  29.765  52.780  0.00  0.00     0.123 A 
ATOM     21  C   UNL d   1      52.928  29.497  53.497  0.00  0.00     0.029 A 
ATOM     22  C   UNL d   1      53.278  30.109  53.888  0.00  0.00     0.028 A 
ENDBRANCH   3  18
TORSDOF 4
ENDMDL
