MODEL 1
REMARK VINA RESULT:      60.7      0.000      0.000
REMARK  7 active torsions:
REMARK  status: ('A' for Active; 'I' for Inactive)
REMARK    1  A    between atoms: N_3  and  C_1 
REMARK       I    between atoms: C_8  and  N_3 
REMARK    2  A    between atoms: C_12  and  N_3 
REMARK    3  A    between atoms: S_5  and  C_11 
REMARK    4  A    between atoms: C_16  and  S_5 
REMARK    5  A    between atoms: C_9  and  C_8 
REMARK    6  A    between atoms: C_11  and  C_9 
REMARK    7  A    between atoms: C_21  and  C_12 
ROOT
ATOM      1  N   UNL d   1      46.080 -17.858  42.817  0.00  0.00    -0.253 N 
ATOM      2  C   UNL d   1      45.629 -17.972  42.120  0.00  0.00     0.267 C 
ATOM      3  O   UNL d   1      45.069 -17.411  41.904  0.00  0.00    -0.267 OA
ENDROOT
BRANCH   1   4
ATOM      4  C   UNL d   1      45.956 -17.186  43.277  0.00  0.00     0.182 A 
ATOM      5  N   UNL d   1      46.452 -16.521  43.319  0.00  0.00    -0.222 NA
ATOM      6  C   UNL d   1      46.120 -15.972  43.849  0.00  0.00     0.089 A 
ATOM      7  C   UNL d   1      46.368 -15.242  44.094  0.00  0.00     0.020 A 
ATOM      8  C   UNL d   1      45.417 -16.303  44.132  0.00  0.00     0.050 A 
ATOM      9  C   UNL d   1      45.922 -14.826  44.625  0.00  0.00     0.002 A 
ATOM     10  C   UNL d   1      46.174 -14.076  44.878  0.00  0.00     0.000 C 
ATOM     11  C   UNL d   1      45.220 -15.145  44.914  0.00  0.00     0.001 A 
ATOM     12  C   UNL d   1      44.966 -15.883  44.669  0.00  0.00     0.007 A 
ATOM     13  C   UNL d   1      44.269 -16.211  44.949  0.00  0.00     0.001 C 
ATOM     14  S   UNL d   1      45.316 -17.044  43.783  0.00  0.00    -0.048 SA
ENDBRANCH   1   4
BRANCH   1  15
ATOM     15  C   UNL d   1      46.644 -18.416  43.039  0.00  0.00     0.086 C 
BRANCH  15  16
ATOM     16  C   UNL d   1      46.453 -18.997  43.593  0.00  0.00     0.037 A 
ATOM     17  C   UNL d   1      46.559 -18.853  44.396  0.00  0.00     0.100 A 
ATOM     18  N   UNL d   1      46.368 -19.434  44.950  0.00  0.00    -0.242 NA
ATOM     19  C   UNL d   1      46.071 -20.160  44.700  0.00  0.00     0.099 A 
ATOM     20  C   UNL d   1      45.964 -20.308  43.893  0.00  0.00     0.021 A 
ATOM     21  C   UNL d   1      46.154 -19.726  43.340  0.00  0.00     0.005 A 
ENDBRANCH  15  16
ENDBRANCH   1  15
BRANCH   2  22
ATOM     22  C   UNL d   1      45.754 -18.642  41.663  0.00  0.00     0.073 C 
BRANCH  22  23
ATOM     23  C   UNL d   1      46.216 -18.589  40.977  0.00  0.00     0.104 C 
BRANCH  23  24
ATOM     24  S   UNL d   1      45.940 -18.161  40.325  0.00  0.00     0.211 S 
ATOM     25  O   UNL d   1      45.304 -18.701  40.238  0.00  0.00    -0.217 OA
ATOM     26  O   UNL d   1      46.571 -17.625  40.411  0.00  0.00    -0.217 OA
BRANCH  24  27
ATOM     27  C   UNL d   1      45.660 -17.735  39.670  0.00  0.00     0.088 A 
ATOM     28  C   UNL d   1      46.164 -17.216  39.273  0.00  0.00     0.011 A 
ATOM     29  C   UNL d   1      45.892 -16.791  38.623  0.00  0.00     0.001 A 
ATOM     30  C   UNL d   1      45.113 -16.884  38.370  0.00  0.00     0.000 A 
ATOM     31  C   UNL d   1      44.611 -17.396  38.759  0.00  0.00     0.001 A 
ATOM     32  C   UNL d   1      44.880 -17.827  39.414  0.00  0.00     0.011 A 
ENDBRANCH  24  27
ENDBRANCH  23  24
ENDBRANCH  22  23
ENDBRANCH   2  22
TORSDOF 7
ENDMDL
MODEL 2
REMARK VINA RESULT:      61.9      5.155      7.333
REMARK  7 active torsions:
REMARK  status: ('A' for Active; 'I' for Inactive)
REMARK    1  A    between atoms: N_3  and  C_1 
REMARK       I    between atoms: C_8  and  N_3 
REMARK    2  A    between atoms: C_12  and  N_3 
REMARK    3  A    between atoms: S_5  and  C_11 
REMARK    4  A    between atoms: C_16  and  S_5 
REMARK    5  A    between atoms: C_9  and  C_8 
REMARK    6  A    between atoms: C_11  and  C_9 
REMARK    7  A    between atoms: C_21  and  C_12 
ROOT
ATOM      1  N   UNL d   1      44.460 -14.004  38.053  0.00  0.00    -0.253 N 
ATOM      2  C   UNL d   1      44.342 -13.768  38.848  0.00  0.00     0.267 C 
ATOM      3  O   UNL d   1      43.656 -13.995  39.239  0.00  0.00    -0.267 OA
ENDROOT
BRANCH   1   4
ATOM      4  C   UNL d   1      43.888 -14.459  37.673  0.00  0.00     0.182 A 
ATOM      5  N   UNL d   1      43.077 -14.288  37.622  0.00  0.00    -0.222 NA
ATOM      6  C   UNL d   1      42.702 -14.892  37.191  0.00  0.00     0.089 A 
ATOM      7  C   UNL d   1      41.928 -15.003  36.979  0.00  0.00     0.020 A 
ATOM      8  C   UNL d   1      43.286 -15.437  36.978  0.00  0.00     0.050 A 
ATOM      9  C   UNL d   1      41.721 -15.656  36.551  0.00  0.00     0.002 A 
ATOM     10  C   UNL d   1      40.928 -15.772  36.332  0.00  0.00     0.000 C 
ATOM     11  C   UNL d   1      42.294 -16.205  36.333  0.00  0.00     0.001 A 
ATOM     12  C   UNL d   1      43.076 -16.097  36.545  0.00  0.00     0.007 A 
ATOM     13  C   UNL d   1      43.657 -16.637  36.334  0.00  0.00     0.001 C 
ATOM     14  S   UNL d   1      44.011 -15.174  37.271  0.00  0.00    -0.048 SA
ENDBRANCH   1   4
BRANCH   1  15
ATOM     15  C   UNL d   1      45.145 -13.780  37.654  0.00  0.00     0.086 C 
BRANCH  15  16
ATOM     16  C   UNL d   1      45.644 -14.355  37.336  0.00  0.00     0.037 A 
ATOM     17  C   UNL d   1      46.076 -14.196  36.654  0.00  0.00     0.100 A 
ATOM     18  N   UNL d   1      46.575 -14.771  36.336  0.00  0.00    -0.242 NA
ATOM     19  C   UNL d   1      46.642 -15.505  36.701  0.00  0.00     0.099 A 
ATOM     20  C   UNL d   1      46.210 -15.668  37.387  0.00  0.00     0.021 A 
ATOM     21  C   UNL d   1      45.710 -15.093  37.704  0.00  0.00     0.005 A 
ENDBRANCH  15  16
ENDBRANCH   1  15
BRANCH   2  22
ATOM     22  C   UNL d   1      44.913 -13.315  39.224  0.00  0.00     0.073 C 
BRANCH  22  23
ATOM     23  C   UNL d   1      44.692 -12.609  39.599  0.00  0.00     0.104 C 
BRANCH  23  24
ATOM     24  S   UNL d   1      44.801 -12.524  40.415  0.00  0.00     0.211 S 
ATOM     25  O   UNL d   1      45.553 -12.890  40.355  0.00  0.00    -0.217 OA
ATOM     26  O   UNL d   1      44.055 -12.160  40.475  0.00  0.00    -0.217 OA
BRANCH  24  27
ATOM     27  C   UNL d   1      44.914 -12.440  41.233  0.00  0.00     0.088 A 
ATOM     28  C   UNL d   1      44.301 -12.630  41.752  0.00  0.00     0.011 A 
ATOM     29  C   UNL d   1      44.407 -12.548  42.564  0.00  0.00     0.001 A 
ATOM     30  C   UNL d   1      45.127 -12.275  42.858  0.00  0.00     0.000 A 
ATOM     31  C   UNL d   1      45.735 -12.086  42.348  0.00  0.00     0.001 A 
ATOM     32  C   UNL d   1      45.635 -12.166  41.530  0.00  0.00     0.011 A 
ENDBRANCH  24  27
ENDBRANCH  23  24
ENDBRANCH  22  23
ENDBRANCH   2  22
TORSDOF 7
ENDMDL
