MODEL 1
REMARK VINA RESULT:      -9.2      0.000      0.000
REMARK  3 active torsions:
REMARK  status: ('A' for Active; 'I' for Inactive)
REMARK    1  A    between atoms: C_7  and  C_3 
REMARK    2  A    between atoms: N_5  and  C_8 
REMARK    3  A    between atoms: C_13  and  C_7 
ROOT
ATOM      1  C   UNL d   1      53.531  33.996  54.580  0.00  0.00     0.127 A 
ATOM      2  C   UNL d   1      53.905  32.793  53.869  0.00  0.00     0.002 A 
ATOM      3  C   UNL d   1      53.447  33.513  53.916  0.00  0.00     0.024 A 
ATOM      4  C   UNL d   1      54.042  33.791  55.180  0.00  0.00     0.024 A 
ATOM      5  C   UNL d   1      54.488  33.076  55.120  0.00  0.00     0.002 A 
ATOM      6  C   UNL d   1      54.404  32.590  54.454  0.00  0.00     0.000 A 
ENDROOT
BRANCH   2   7
ATOM      7  C   UNL d   1      53.815  32.318  53.204  0.00  0.00     0.011 C 
BRANCH   7   8
ATOM      8  C   UNL d   1      53.445  31.570  53.295  0.00  0.00     0.092 A 
ATOM      9  C   UNL d   1      52.840  31.372  52.844  0.00  0.00     0.288 A 
ATOM     10  N   UNL d   1      52.603  30.613  53.065  0.00  0.00    -0.163 NA
ATOM     11  O   UNL d   1      52.490  31.846  52.241  0.00  0.00    -0.265 OA
ATOM     12  C   UNL d   1      53.087  30.364  53.664  0.00  0.00     0.313 A 
ATOM     13  S   UNL d   1      53.621  30.938  53.827  0.00  0.00    -0.021 SA
ATOM     14  O   UNL d   1      53.053  29.619  54.066  0.00  0.00    -0.258 OA
ENDBRANCH   7   8
ENDBRANCH   2   7
BRANCH   1  15
ATOM     15  N   UNL d   1      53.101  34.690  54.644  0.00  0.00    -0.114 N 
ATOM     16  O   UNL d   1      52.527  34.879  54.084  0.00  0.00    -0.532 OA
ATOM     17  O   UNL d   1      53.243  35.197  55.266  0.00  0.00    -0.532 OA
ENDBRANCH   1  15
TORSDOF 3
ENDMDL
MODEL 2
REMARK VINA RESULT:      -9.0      1.150      3.761
REMARK  3 active torsions:
REMARK  status: ('A' for Active; 'I' for Inactive)
REMARK    1  A    between atoms: C_7  and  C_3 
REMARK    2  A    between atoms: N_5  and  C_8 
REMARK    3  A    between atoms: C_13  and  C_7 
ROOT
ATOM      1  C   UNL d   1      53.134  30.855  53.488  0.00  0.00     0.127 A 
ATOM      2  C   UNL d   1      53.723  32.174  53.558  0.00  0.00     0.002 A 
ATOM      3  C   UNL d   1      53.692  31.363  53.823  0.00  0.00     0.024 A 
ATOM      4  C   UNL d   1      52.621  31.123  52.916  0.00  0.00     0.024 A 
ATOM      5  C   UNL d   1      52.663  31.928  52.663  0.00  0.00     0.002 A 
ATOM      6  C   UNL d   1      53.223  32.438  52.999  0.00  0.00     0.000 A 
ENDROOT
BRANCH   2   7
ATOM      7  C   UNL d   1      54.283  32.672  53.896  0.00  0.00     0.011 C 
BRANCH   7   8
ATOM      8  C   UNL d   1      54.014  33.338  54.331  0.00  0.00     0.092 A 
ATOM      9  C   UNL d   1      54.426  33.608  54.935  0.00  0.00     0.288 A 
ATOM     10  N   UNL d   1      54.022  34.259  55.243  0.00  0.00    -0.163 NA
ATOM     11  O   UNL d   1      55.154  33.293  55.224  0.00  0.00    -0.265 OA
ATOM     12  C   UNL d   1      53.353  34.369  54.800  0.00  0.00     0.313 A 
ATOM     13  S   UNL d   1      53.322  33.812  54.226  0.00  0.00    -0.021 SA
ATOM     14  O   UNL d   1      52.767  34.971  54.911  0.00  0.00    -0.258 OA
ENDBRANCH   7   8
ENDBRANCH   2   7
BRANCH   1  15
ATOM     15  N   UNL d   1      53.088  30.073  53.728  0.00  0.00    -0.114 N 
ATOM     16  O   UNL d   1      53.602  29.782  54.304  0.00  0.00    -0.532 OA
ATOM     17  O   UNL d   1      52.532  29.581  53.396  0.00  0.00    -0.532 OA
ENDBRANCH   1  15
TORSDOF 3
ENDMDL
MODEL 3
REMARK VINA RESULT:      -8.6      1.165      3.601
REMARK  3 active torsions:
REMARK  status: ('A' for Active; 'I' for Inactive)
REMARK    1  A    between atoms: C_7  and  C_3 
REMARK    2  A    between atoms: N_5  and  C_8 
REMARK    3  A    between atoms: C_13  and  C_7 
ROOT
ATOM      1  C   UNL d   1      53.648  31.464  53.626  0.00  0.00     0.127 A 
ATOM      2  C   UNL d   1      53.830  32.773  54.212  0.00  0.00     0.002 A 
ATOM      3  C   UNL d   1      53.392  32.042  54.156  0.00  0.00     0.024 A 
ATOM      4  C   UNL d   1      54.306  31.587  53.163  0.00  0.00     0.024 A 
ATOM      5  C   UNL d   1      54.729  32.316  53.229  0.00  0.00     0.002 A 
ATOM      6  C   UNL d   1      54.473  32.897  53.761  0.00  0.00     0.000 A 
ENDROOT
BRANCH   2   7
ATOM      7  C   UNL d   1      53.568  33.344  54.743  0.00  0.00     0.011 C 
BRANCH   7   8
ATOM      8  C   UNL d   1      53.154  34.009  54.443  0.00  0.00     0.092 A 
ATOM      9  C   UNL d   1      53.228  34.708  54.782  0.00  0.00     0.288 A 
ATOM     10  N   UNL d   1      52.758  35.240  54.364  0.00  0.00    -0.163 NA
ATOM     11  O   UNL d   1      53.704  34.887  55.456  0.00  0.00    -0.265 OA
ATOM     12  C   UNL d   1      52.398  34.837  53.761  0.00  0.00     0.313 A 
ATOM     13  S   UNL d   1      52.626  34.069  53.785  0.00  0.00    -0.021 SA
ATOM     14  O   UNL d   1      51.864  35.156  53.186  0.00  0.00    -0.258 OA
ENDBRANCH   7   8
ENDBRANCH   2   7
BRANCH   1  15
ATOM     15  N   UNL d   1      53.242  30.755  53.558  0.00  0.00    -0.114 N 
ATOM     16  O   UNL d   1      52.657  30.663  52.983  0.00  0.00    -0.532 OA
ATOM     17  O   UNL d   1      53.418  30.139  54.060  0.00  0.00    -0.532 OA
ENDBRANCH   1  15
TORSDOF 3
ENDMDL
MODEL 4
REMARK VINA RESULT:      -8.5      2.088      2.532
REMARK  3 active torsions:
REMARK  status: ('A' for Active; 'I' for Inactive)
REMARK    1  A    between atoms: C_7  and  C_3 
REMARK    2  A    between atoms: N_5  and  C_8 
REMARK    3  A    between atoms: C_13  and  C_7 
ROOT
ATOM      1  C   UNL d   1      54.264  33.426  54.768  0.00  0.00     0.127 A 
ATOM      2  C   UNL d   1      53.484  33.116  53.590  0.00  0.00     0.002 A 
ATOM      3  C   UNL d   1      53.888  33.687  54.081  0.00  0.00     0.024 A 
ATOM      4  C   UNL d   1      54.249  32.639  54.976  0.00  0.00     0.024 A 
ATOM      5  C   UNL d   1      53.845  32.087  54.482  0.00  0.00     0.002 A 
ATOM      6  C   UNL d   1      53.467  32.347  53.791  0.00  0.00     0.000 A 
ENDROOT
BRANCH   2   7
ATOM      7  C   UNL d   1      53.113  33.384  52.907  0.00  0.00     0.011 C 
BRANCH   7   8
ATOM      8  C   UNL d   1      52.297  33.577  52.945  0.00  0.00     0.092 A 
ATOM      9  C   UNL d   1      52.026  34.222  52.599  0.00  0.00     0.288 A 
ATOM     10  N   UNL d   1      51.213  34.255  52.734  0.00  0.00    -0.163 NA
ATOM     11  O   UNL d   1      52.482  34.784  52.166  0.00  0.00    -0.265 OA
ATOM     12  C   UNL d   1      51.006  33.607  53.173  0.00  0.00     0.313 A 
ATOM     13  S   UNL d   1      51.659  33.168  53.319  0.00  0.00    -0.021 SA
ATOM     14  O   UNL d   1      50.228  33.408  53.444  0.00  0.00    -0.258 OA
ENDBRANCH   7   8
ENDBRANCH   2   7
BRANCH   1  15
ATOM     15  N   UNL d   1      54.657  33.958  55.252  0.00  0.00    -0.114 N 
ATOM     16  O   UNL d   1      55.482  33.965  55.281  0.00  0.00    -0.532 OA
ATOM     17  O   UNL d   1      54.232  34.481  55.707  0.00  0.00    -0.532 OA
ENDBRANCH   1  15
TORSDOF 3
ENDMDL
MODEL 5
REMARK VINA RESULT:      -8.3      1.975      2.988
REMARK  3 active torsions:
REMARK  status: ('A' for Active; 'I' for Inactive)
REMARK    1  A    between atoms: C_7  and  C_3 
REMARK    2  A    between atoms: N_5  and  C_8 
REMARK    3  A    between atoms: C_13  and  C_7 
ROOT
ATOM      1  C   UNL d   1      51.506  33.848  53.123  0.00  0.00     0.127 A 
ATOM      2  C   UNL d   1      52.899  33.495  53.282  0.00  0.00     0.002 A 
ATOM      3  C   UNL d   1      52.072  33.284  53.325  0.00  0.00     0.024 A 
ATOM      4  C   UNL d   1      51.729  34.595  52.887  0.00  0.00     0.024 A 
ATOM      5  C   UNL d   1      52.550  34.790  52.850  0.00  0.00     0.002 A 
ATOM      6  C   UNL d   1      53.121  34.223  53.052  0.00  0.00     0.000 A 
ENDROOT
BRANCH   2   7
ATOM      7  C   UNL d   1      53.457  32.926  53.485  0.00  0.00     0.011 C 
BRANCH   7   8
ATOM      8  C   UNL d   1      53.896  33.031  54.191  0.00  0.00     0.092 A 
ATOM      9  C   UNL d   1      53.988  32.439  54.692  0.00  0.00     0.288 A 
ATOM     10  N   UNL d   1      54.441  32.714  55.324  0.00  0.00    -0.163 NA
ATOM     11  O   UNL d   1      53.680  31.658  54.603  0.00  0.00    -0.265 OA
ATOM     12  C   UNL d   1      54.617  33.492  55.185  0.00  0.00     0.313 A 
ATOM     13  S   UNL d   1      54.292  33.716  54.489  0.00  0.00    -0.021 SA
ATOM     14  O   UNL d   1      55.071  34.005  55.684  0.00  0.00    -0.258 OA
ENDBRANCH   7   8
ENDBRANCH   2   7
BRANCH   1  15
ATOM     15  N   UNL d   1      50.708  33.666  53.158  0.00  0.00    -0.114 N 
ATOM     16  O   UNL d   1      50.459  32.930  53.437  0.00  0.00    -0.532 OA
ATOM     17  O   UNL d   1      50.157  34.214  52.915  0.00  0.00    -0.532 OA
ENDBRANCH   1  15
TORSDOF 3
ENDMDL
