MODEL 1
REMARK VINA RESULT:      -4.7      0.000      0.000
REMARK  4 active torsions:
REMARK  status: ('A' for Active; 'I' for Inactive)
REMARK    1  A    between atoms: C_11  and  C_3 
REMARK    2  A    between atoms: N_10  and  C_4 
REMARK    3  A    between atoms: C_13  and  N_10 
REMARK    4  A    between atoms: C_14  and  C_13 
ROOT
ATOM      1  C   UNL d   1     -41.651-122.531 -50.809  0.00  0.00     0.167 A 
ATOM      2  N   UNL d   1     -41.686-122.735 -51.607  0.00  0.00    -0.195 N 
ATOM      3  C   UNL d   1     -41.826-123.200 -50.371  0.00  0.00     0.057 A 
ATOM      4  C   UNL d   1     -41.533-122.169 -52.184  0.00  0.00     0.167 A 
ATOM      5  N   UNL d   1     -41.881-123.528 -51.653  0.00  0.00    -0.161 NA
ATOM      6  N   UNL d   1     -41.465-121.761 -50.589  0.00  0.00    -0.227 NA
ATOM      7  C   UNL d   1     -41.346-121.394 -51.960  0.00  0.00     0.058 A 
ATOM      8  C   UNL d   1     -41.968-123.816 -50.901  0.00  0.00     0.124 A 
ATOM      9  C   UNL d   1     -41.312-121.192 -51.171  0.00  0.00     0.086 A 
ATOM     10  C   UNL d   1     -41.123-120.413 -50.972  0.00  0.00     0.021 C 
ENDROOT
BRANCH   4  11
ATOM     11  N   UNL d   1     -41.568-122.373 -52.981  0.00  0.00    -0.224 NA
BRANCH  11  12
ATOM     12  C   UNL d   1     -41.550-121.787 -53.557  0.00  0.00     0.120 C 
BRANCH  12  13
ATOM     13  C   UNL d   1     -41.802-121.957 -54.333  0.00  0.00     0.101 A 
ATOM     14  N   UNL d   1     -42.572-121.768 -54.572  0.00  0.00    -0.242 NA
ATOM     15  C   UNL d   1     -42.820-121.935 -55.335  0.00  0.00     0.099 A 
ATOM     16  C   UNL d   1     -42.301-122.294 -55.872  0.00  0.00     0.021 A 
ATOM     17  C   UNL d   1     -41.534-122.481 -55.632  0.00  0.00     0.003 A 
ATOM     18  C   UNL d   1     -41.284-122.312 -54.861  0.00  0.00     0.021 A 
ENDBRANCH  12  13
ENDBRANCH  11  12
ENDBRANCH   4  11
BRANCH   3  19
ATOM     19  C   UNL d   1     -41.836-123.173 -49.545  0.00  0.00     0.004 A 
ATOM     20  C   UNL d   1     -41.123-123.234 -49.129  0.00  0.00     0.000 A 
ATOM     21  C   UNL d   1     -41.125-123.208 -48.309  0.00  0.00     0.000 A 
ATOM     22  C   UNL d   1     -41.841-123.120 -47.895  0.00  0.00     0.000 A 
ATOM     23  C   UNL d   1     -42.547-123.060 -48.318  0.00  0.00     0.000 A 
ATOM     24  C   UNL d   1     -42.542-123.086 -49.143  0.00  0.00     0.000 A 
ENDBRANCH   3  19
TORSDOF 4
ENDMDL
MODEL 2
REMARK VINA RESULT:      -4.7      0.876      4.828
REMARK  4 active torsions:
REMARK  status: ('A' for Active; 'I' for Inactive)
REMARK    1  A    between atoms: C_11  and  C_3 
REMARK    2  A    between atoms: N_10  and  C_4 
REMARK    3  A    between atoms: C_13  and  N_10 
REMARK    4  A    between atoms: C_14  and  C_13 
ROOT
ATOM      1  C   UNL d   1     -41.568-122.447 -52.593  0.00  0.00     0.167 A 
ATOM      2  N   UNL d   1     -41.558-122.899 -51.905  0.00  0.00    -0.195 N 
ATOM      3  C   UNL d   1     -41.733-122.947 -53.220  0.00  0.00     0.057 A 
ATOM      4  C   UNL d   1     -41.405-122.542 -51.179  0.00  0.00     0.167 A 
ATOM      5  N   UNL d   1     -41.718-123.674 -52.112  0.00  0.00    -0.161 NA
ATOM      6  N   UNL d   1     -41.424-121.638 -52.557  0.00  0.00    -0.227 NA
ATOM      7  C   UNL d   1     -41.261-121.727 -51.145  0.00  0.00     0.058 A 
ATOM      8  C   UNL d   1     -41.825-123.708 -52.914  0.00  0.00     0.124 A 
ATOM      9  C   UNL d   1     -41.270-121.280 -51.827  0.00  0.00     0.086 A 
ATOM     10  C   UNL d   1     -41.123-120.469 -51.768  0.00  0.00     0.021 C 
ENDROOT
BRANCH   4  11
ATOM     11  N   UNL d   1     -41.396-122.994 -50.491  0.00  0.00    -0.224 NA
BRANCH  11  12
ATOM     12  C   UNL d   1     -41.393-122.624 -49.756  0.00  0.00     0.120 C 
BRANCH  12  13
ATOM     13  C   UNL d   1     -41.687-123.024 -49.087  0.00  0.00     0.101 A 
ATOM     14  N   UNL d   1     -42.504-123.099 -48.973  0.00  0.00    -0.242 NA
ATOM     15  C   UNL d   1     -42.794-123.493 -48.315  0.00  0.00     0.099 A 
ATOM     16  C   UNL d   1     -42.271-123.818 -47.760  0.00  0.00     0.021 A 
ATOM     17  C   UNL d   1     -41.458-123.741 -47.876  0.00  0.00     0.003 A 
ATOM     18  C   UNL d   1     -41.165-123.344 -48.541  0.00  0.00     0.021 A 
ENDBRANCH  12  13
ENDBRANCH  11  12
ENDBRANCH   4  11
BRANCH   3  19
ATOM     19  C   UNL d   1     -41.780-122.656 -53.992  0.00  0.00     0.004 A 
ATOM     20  C   UNL d   1     -41.133-122.749 -54.500  0.00  0.00     0.000 A 
ATOM     21  C   UNL d   1     -41.173-122.462 -55.268  0.00  0.00     0.000 A 
ATOM     22  C   UNL d   1     -41.861-122.079 -55.536  0.00  0.00     0.000 A 
ATOM     23  C   UNL d   1     -42.500-121.990 -55.023  0.00  0.00     0.000 A 
ATOM     24  C   UNL d   1     -42.458-122.280 -54.251  0.00  0.00     0.000 A 
ENDBRANCH   3  19
TORSDOF 4
ENDMDL
