MODEL 1
REMARK VINA RESULT:      -7.7      0.000      0.000
REMARK  2 active torsions:
REMARK  status: ('A' for Active; 'I' for Inactive)
REMARK       I    between atoms: C_2  and  N_4 
REMARK       I    between atoms: N_7  and  C_2 
REMARK    1  A    between atoms: N_4  and  C_8 
REMARK    2  A    between atoms: C_12  and  N_7 
ROOT
ATOM      1  C   UNL d   1     -48.348  14.087  22.942  0.00  0.00     0.369 C 
ATOM      2  N   UNL d   1     -47.553  13.927  22.826  0.00  0.00    -0.190 NA
ATOM      3  N   UNL d   1     -48.674  14.793  22.675  0.00  0.00    -0.191 NA
ATOM      4  O   UNL d   1     -48.821  13.533  23.329  0.00  0.00    -0.242 OA
ENDROOT
BRANCH   2   5
ATOM      5  C   UNL d   1     -47.227  13.226  23.089  0.00  0.00     0.098 A 
ATOM      6  C   UNL d   1     -46.492  13.496  22.816  0.00  0.00     0.118 A 
ATOM      7  S   UNL d   1     -45.929  12.913  22.977  0.00  0.00     0.213 S 
ATOM      8  O   UNL d   1     -45.637  13.584  22.604  0.00  0.00    -0.217 OA
ATOM      9  O   UNL d   1     -45.428  12.289  23.170  0.00  0.00    -0.217 OA
ATOM     10  C   UNL d   1     -46.309  12.283  23.348  0.00  0.00     0.100 A 
ATOM     11  C   UNL d   1     -47.113  12.473  23.420  0.00  0.00     0.032 A 
ENDBRANCH   2   5
BRANCH   3  12
ATOM     12  C   UNL d   1     -49.472  14.949  22.794  0.00  0.00     0.086 A 
ATOM     13  C   UNL d   1     -49.709  15.414  23.433  0.00  0.00     0.019 A 
ATOM     14  C   UNL d   1     -50.498  15.570  23.551  0.00  0.00     0.002 A 
ATOM     15  C   UNL d   1     -51.064  15.266  23.035  0.00  0.00     0.000 A 
ATOM     16  C   UNL d   1     -50.829  14.801  22.396  0.00  0.00     0.002 A 
ATOM     17  C   UNL d   1     -50.031  14.645  22.278  0.00  0.00     0.019 A 
ENDBRANCH   3  12
TORSDOF 2
ENDMDL
MODEL 2
REMARK VINA RESULT:      -7.4      1.692      4.204
REMARK  2 active torsions:
REMARK  status: ('A' for Active; 'I' for Inactive)
REMARK       I    between atoms: C_2  and  N_4 
REMARK       I    between atoms: N_7  and  C_2 
REMARK    1  A    between atoms: N_4  and  C_8 
REMARK    2  A    between atoms: C_12  and  N_7 
ROOT
ATOM      1  C   UNL d   1     -47.981  14.110  22.877  0.00  0.00     0.369 C 
ATOM      2  N   UNL d   1     -48.567  14.635  23.105  0.00  0.00    -0.190 NA
ATOM      3  N   UNL d   1     -47.248  14.117  23.250  0.00  0.00    -0.191 NA
ATOM      4  O   UNL d   1     -48.130  13.574  22.268  0.00  0.00    -0.242 OA
ENDROOT
BRANCH   2   5
ATOM      5  C   UNL d   1     -49.296  14.630  22.736  0.00  0.00     0.098 A 
ATOM      6  C   UNL d   1     -49.517  15.263  23.223  0.00  0.00     0.118 A 
ATOM      7  S   UNL d   1     -50.293  15.474  23.033  0.00  0.00     0.213 S 
ATOM      8  O   UNL d   1     -49.948  15.922  23.629  0.00  0.00    -0.217 OA
ATOM      9  O   UNL d   1     -51.064  15.624  22.789  0.00  0.00    -0.217 OA
ATOM     10  C   UNL d   1     -50.555  14.975  22.432  0.00  0.00     0.100 A 
ATOM     11  C   UNL d   1     -49.941  14.451  22.245  0.00  0.00     0.032 A 
ENDBRANCH   2   5
BRANCH   3  12
ATOM     12  C   UNL d   1     -46.662  13.589  23.018  0.00  0.00     0.086 A 
ATOM     13  C   UNL d   1     -46.107  13.816  22.452  0.00  0.00     0.019 A 
ATOM     14  C   UNL d   1     -45.526  13.295  22.221  0.00  0.00     0.002 A 
ATOM     15  C   UNL d   1     -45.490  12.540  22.550  0.00  0.00     0.000 A 
ATOM     16  C   UNL d   1     -46.045  12.312  23.116  0.00  0.00     0.002 A 
ATOM     17  C   UNL d   1     -46.631  12.840  23.347  0.00  0.00     0.019 A 
ENDBRANCH   3  12
TORSDOF 2
ENDMDL
MODEL 3
REMARK VINA RESULT:      -7.0      1.510      1.957
REMARK  2 active torsions:
REMARK  status: ('A' for Active; 'I' for Inactive)
REMARK       I    between atoms: C_2  and  N_4 
REMARK       I    between atoms: N_7  and  C_2 
REMARK    1  A    between atoms: N_4  and  C_8 
REMARK    2  A    between atoms: C_12  and  N_7 
ROOT
ATOM      1  C   UNL d   1     -48.102  12.832  23.028  0.00  0.00     0.369 C 
ATOM      2  N   UNL d   1     -47.307  12.692  23.169  0.00  0.00    -0.190 NA
ATOM      3  N   UNL d   1     -48.677  12.454  23.477  0.00  0.00    -0.191 NA
ATOM      4  O   UNL d   1     -48.321  13.356  22.430  0.00  0.00    -0.242 OA
ENDROOT
BRANCH   2   5
ATOM      5  C   UNL d   1     -46.733  13.066  22.725  0.00  0.00     0.098 A 
ATOM      6  C   UNL d   1     -46.177  12.547  23.054  0.00  0.00     0.118 A 
ATOM      7  S   UNL d   1     -45.437  12.731  22.738  0.00  0.00     0.213 S 
ATOM      8  O   UNL d   1     -45.439  12.109  23.274  0.00  0.00    -0.217 OA
ATOM      9  O   UNL d   1     -44.735  12.972  22.380  0.00  0.00    -0.217 OA
ATOM     10  C   UNL d   1     -45.528  13.361  22.214  0.00  0.00     0.100 A 
ATOM     11  C   UNL d   1     -46.330  13.572  22.203  0.00  0.00     0.032 A 
ENDBRANCH   2   5
BRANCH   3  12
ATOM     12  C   UNL d   1     -49.474  12.597  23.331  0.00  0.00     0.086 A 
ATOM     13  C   UNL d   1     -49.891  12.107  22.816  0.00  0.00     0.019 A 
ATOM     14  C   UNL d   1     -50.679  12.248  22.672  0.00  0.00     0.002 A 
ATOM     15  C   UNL d   1     -51.064  12.878  23.038  0.00  0.00     0.000 A 
ATOM     16  C   UNL d   1     -50.647  13.369  23.553  0.00  0.00     0.002 A 
ATOM     17  C   UNL d   1     -49.851  13.225  23.698  0.00  0.00     0.019 A 
ENDBRANCH   3  12
TORSDOF 2
ENDMDL
MODEL 4
REMARK VINA RESULT:      -5.3      8.287     10.242
REMARK  2 active torsions:
REMARK  status: ('A' for Active; 'I' for Inactive)
REMARK       I    between atoms: C_2  and  N_4 
REMARK       I    between atoms: N_7  and  C_2 
REMARK    1  A    between atoms: N_4  and  C_8 
REMARK    2  A    between atoms: C_12  and  N_7 
ROOT
ATOM      1  C   UNL d   1     -39.608  14.398  18.611  0.00  0.00     0.369 C 
ATOM      2  N   UNL d   1     -40.156  14.514  19.209  0.00  0.00    -0.190 NA
ATOM      3  N   UNL d   1     -39.700  13.779  18.078  0.00  0.00    -0.191 NA
ATOM      4  O   UNL d   1     -38.963  14.908  18.546  0.00  0.00    -0.242 OA
ENDROOT
BRANCH   2   5
ATOM      5  C   UNL d   1     -40.067  15.129  19.740  0.00  0.00     0.098 A 
ATOM      6  C   UNL d   1     -40.723  14.833  20.151  0.00  0.00     0.118 A 
ATOM      7  S   UNL d   1     -40.861  15.323  20.801  0.00  0.00     0.213 S 
ATOM      8  O   UNL d   1     -41.383  14.694  20.726  0.00  0.00    -0.217 OA
ATOM      9  O   UNL d   1     -40.934  15.856  21.425  0.00  0.00    -0.217 OA
ATOM     10  C   UNL d   1     -40.294  15.922  20.797  0.00  0.00     0.100 A 
ATOM     11  C   UNL d   1     -39.801  15.805  20.141  0.00  0.00     0.032 A 
ENDBRANCH   2   5
BRANCH   3  12
ATOM     12  C   UNL d   1     -39.148  13.666  17.478  0.00  0.00     0.086 A 
ATOM     13  C   UNL d   1     -38.575  13.078  17.555  0.00  0.00     0.019 A 
ATOM     14  C   UNL d   1     -38.028  12.965  16.963  0.00  0.00     0.002 A 
ATOM     15  C   UNL d   1     -38.044  13.435  16.286  0.00  0.00     0.000 A 
ATOM     16  C   UNL d   1     -38.618  14.023  16.208  0.00  0.00     0.002 A 
ATOM     17  C   UNL d   1     -39.169  14.135  16.808  0.00  0.00     0.019 A 
ENDBRANCH   3  12
TORSDOF 2
ENDMDL
MODEL 5
REMARK VINA RESULT:      -5.2      9.001      9.649
REMARK  2 active torsions:
REMARK  status: ('A' for Active; 'I' for Inactive)
REMARK       I    between atoms: C_2  and  N_4 
REMARK       I    between atoms: N_7  and  C_2 
REMARK    1  A    between atoms: N_4  and  C_8 
REMARK    2  A    between atoms: C_12  and  N_7 
ROOT
ATOM      1  C   UNL d   1     -39.921  15.190  19.723  0.00  0.00     0.369 C 
ATOM      2  N   UNL d   1     -40.328  15.101  19.017  0.00  0.00    -0.190 NA
ATOM      3  N   UNL d   1     -40.282  15.004  20.437  0.00  0.00    -0.191 NA
ATOM      4  O   UNL d   1     -39.145  15.469  19.711  0.00  0.00    -0.242 OA
ENDROOT
BRANCH   2   5
ATOM      5  C   UNL d   1     -39.971  15.285  18.305  0.00  0.00     0.098 A 
ATOM      6  C   UNL d   1     -40.676  15.068  17.927  0.00  0.00     0.118 A 
ATOM      7  S   UNL d   1     -40.572  15.172  17.114  0.00  0.00     0.213 S 
ATOM      8  O   UNL d   1     -41.311  14.892  17.336  0.00  0.00    -0.217 OA
ATOM      9  O   UNL d   1     -40.393  15.300  16.321  0.00  0.00    -0.217 OA
ATOM     10  C   UNL d   1     -39.807  15.452  16.985  0.00  0.00     0.100 A 
ATOM     11  C   UNL d   1     -39.432  15.524  17.721  0.00  0.00     0.032 A 
ENDBRANCH   2   5
BRANCH   3  12
ATOM     12  C   UNL d   1     -39.871  15.095  21.143  0.00  0.00     0.086 A 
ATOM     13  C   UNL d   1     -39.851  15.830  21.515  0.00  0.00     0.019 A 
ATOM     14  C   UNL d   1     -39.445  15.922  22.213  0.00  0.00     0.002 A 
ATOM     15  C   UNL d   1     -39.051  15.282  22.553  0.00  0.00     0.000 A 
ATOM     16  C   UNL d   1     -39.070  14.545  22.182  0.00  0.00     0.002 A 
ATOM     17  C   UNL d   1     -39.482  14.455  21.476  0.00  0.00     0.019 A 
ENDBRANCH   3  12
TORSDOF 2
ENDMDL
MODEL 6
REMARK VINA RESULT:      -5.0      8.988      9.502
REMARK  2 active torsions:
REMARK  status: ('A' for Active; 'I' for Inactive)
REMARK       I    between atoms: C_2  and  N_4 
REMARK       I    between atoms: N_7  and  C_2 
REMARK    1  A    between atoms: N_4  and  C_8 
REMARK    2  A    between atoms: C_12  and  N_7 
ROOT
ATOM      1  C   UNL d   1     -39.784  14.625  19.588  0.00  0.00     0.369 C 
ATOM      2  N   UNL d   1     -39.718  14.315  20.344  0.00  0.00    -0.190 NA
ATOM      3  N   UNL d   1     -40.069  14.162  18.972  0.00  0.00    -0.191 NA
ATOM      4  O   UNL d   1     -39.561  15.407  19.450  0.00  0.00    -0.242 OA
ENDROOT
BRANCH   2   5
ATOM      5  C   UNL d   1     -39.434  14.772  20.958  0.00  0.00     0.098 A 
ATOM      6  C   UNL d   1     -39.452  14.095  21.436  0.00  0.00     0.118 A 
ATOM      7  S   UNL d   1     -39.186  14.306  22.188  0.00  0.00     0.213 S 
ATOM      8  O   UNL d   1     -39.393  13.516  22.103  0.00  0.00    -0.217 OA
ATOM      9  O   UNL d   1     -38.911  14.591  22.910  0.00  0.00    -0.217 OA
ATOM     10  C   UNL d   1     -39.002  15.109  22.182  0.00  0.00     0.100 A 
ATOM     11  C   UNL d   1     -39.155  15.402  21.422  0.00  0.00     0.032 A 
ENDBRANCH   2   5
BRANCH   3  12
ATOM     12  C   UNL d   1     -40.134  14.477  18.215  0.00  0.00     0.086 A 
ATOM     13  C   UNL d   1     -39.525  14.365  17.671  0.00  0.00     0.019 A 
ATOM     14  C   UNL d   1     -39.587  14.676  16.922  0.00  0.00     0.002 A 
ATOM     15  C   UNL d   1     -40.257  15.104  16.703  0.00  0.00     0.000 A 
ATOM     16  C   UNL d   1     -40.867  15.217  17.247  0.00  0.00     0.002 A 
ATOM     17  C   UNL d   1     -40.802  14.902  18.003  0.00  0.00     0.019 A 
ENDBRANCH   3  12
TORSDOF 2
ENDMDL
