MODEL 1
REMARK VINA RESULT:       4.8      0.000      0.000
REMARK  6 active torsions:
REMARK  status: ('A' for Active; 'I' for Inactive)
REMARK    1  A    between atoms: C_9  and  C_3 
REMARK    2  A    between atoms: C_8  and  C_5 
REMARK    3  A    between atoms: O_19  and  C_9 
REMARK    4  A    between atoms: C_22  and  O_19 
REMARK    5  A    between atoms: O_21  and  C_23 
REMARK    6  A    between atoms: C_23  and  C_22 
ROOT
ATOM      1  N   UNL d   1     -41.582-122.619 -54.012  0.00  0.00    -0.254 N 
ATOM      2  C   UNL d   1     -41.349-123.413 -54.024  0.00  0.00     0.182 A 
ATOM      3  C   UNL d   1     -41.524-122.624 -52.586  0.00  0.00     0.098 A 
ATOM      4  N   UNL d   1     -41.205-123.808 -53.314  0.00  0.00    -0.222 NA
ATOM      5  C   UNL d   1     -41.671-122.222 -53.295  0.00  0.00     0.081 A 
ATOM      6  C   UNL d   1     -41.292-123.418 -52.593  0.00  0.00     0.090 A 
ATOM      7  C   UNL d   1     -41.726-122.224 -54.722  0.00  0.00     0.267 A 
ATOM      8  S   UNL d   1     -41.261-123.810 -54.737  0.00  0.00    -0.049 SA
ATOM      9  C   UNL d   1     -41.638-122.622 -55.439  0.00  0.00     0.068 A 
ATOM     10  O   UNL d   1     -41.959-121.431 -54.714  0.00  0.00    -0.267 OA
ATOM     11  C   UNL d   1     -41.405-123.415 -55.447  0.00  0.00     0.043 A 
ATOM     12  C   UNL d   1     -41.146-123.817 -51.887  0.00  0.00     0.021 C 
ENDROOT
BRANCH   3  13
ATOM     13  C   UNL d   1     -41.612-122.230 -51.868  0.00  0.00     0.303 C 
ATOM     14  O   UNL d   1     -41.123-121.591 -51.679  0.00  0.00    -0.259 OA
BRANCH  13  15
ATOM     15  O   UNL d   1     -42.190-122.472 -51.331  0.00  0.00    -0.269 OA
BRANCH  15  16
ATOM     16  C   UNL d   1     -42.141-122.255 -50.534  0.00  0.00     0.152 C 
BRANCH  16  17
ATOM     17  C   UNL d   1     -42.519-122.708 -49.953  0.00  0.00     0.143 C 
BRANCH  17  18
ATOM     18  O   UNL d   1     -42.977-122.334 -49.372  0.00  0.00    -0.324 OA
ATOM     19  C   UNL d   1     -42.983-122.624 -48.600  0.00  0.00     0.182 C 
ENDBRANCH  17  18
ENDBRANCH  16  17
ENDBRANCH  15  16
ENDBRANCH  13  15
ENDBRANCH   3  13
BRANCH   5  20
ATOM     20  C   UNL d   1     -41.904-121.428 -53.288  0.00  0.00     0.046 A 
ATOM     21  S   UNL d   1     -42.630-121.065 -53.435  0.00  0.00    -0.085 SA
ATOM     22  C   UNL d   1     -42.527-120.252 -53.344  0.00  0.00     0.035 A 
ATOM     23  C   UNL d   1     -41.741-120.115 -53.142  0.00  0.00     0.007 A 
ATOM     24  C   UNL d   1     -41.356-120.839 -53.107  0.00  0.00     0.009 A 
ENDBRANCH   5  20
TORSDOF 6
ENDMDL
MODEL 2
REMARK VINA RESULT:       5.6      1.579      3.695
REMARK  6 active torsions:
REMARK  status: ('A' for Active; 'I' for Inactive)
REMARK    1  A    between atoms: C_9  and  C_3 
REMARK    2  A    between atoms: C_8  and  C_5 
REMARK    3  A    between atoms: O_19  and  C_9 
REMARK    4  A    between atoms: C_22  and  O_19 
REMARK    5  A    between atoms: O_21  and  C_23 
REMARK    6  A    between atoms: C_23  and  C_22 
ROOT
ATOM      1  N   UNL d   1     -41.610-122.581 -50.894  0.00  0.00    -0.254 N 
ATOM      2  C   UNL d   1     -41.519-123.403 -50.884  0.00  0.00     0.182 A 
ATOM      3  C   UNL d   1     -41.448-122.581 -52.313  0.00  0.00     0.098 A 
ATOM      4  N   UNL d   1     -41.394-123.810 -51.591  0.00  0.00    -0.222 NA
ATOM      5  C   UNL d   1     -41.574-122.167 -51.606  0.00  0.00     0.081 A 
ATOM      6  C   UNL d   1     -41.357-123.403 -52.307  0.00  0.00     0.090 A 
ATOM      7  C   UNL d   1     -41.735-122.174 -50.187  0.00  0.00     0.267 A 
ATOM      8  S   UNL d   1     -41.554-123.818 -50.176  0.00  0.00    -0.049 SA
ATOM      9  C   UNL d   1     -41.771-122.589 -49.475  0.00  0.00     0.068 A 
ATOM     10  O   UNL d   1     -41.826-121.352 -50.193  0.00  0.00    -0.267 OA
ATOM     11  C   UNL d   1     -41.680-123.411 -49.469  0.00  0.00     0.043 A 
ATOM     12  C   UNL d   1     -41.231-123.815 -53.010  0.00  0.00     0.021 C 
ENDROOT
BRANCH   3  13
ATOM     13  C   UNL d   1     -41.412-122.171 -53.025  0.00  0.00     0.303 C 
ATOM     14  O   UNL d   1     -41.128-121.394 -53.047  0.00  0.00    -0.259 OA
BRANCH  13  15
ATOM     15  O   UNL d   1     -41.660-122.533 -53.724  0.00  0.00    -0.269 OA
BRANCH  15  16
ATOM     16  C   UNL d   1     -41.573-122.147 -54.452  0.00  0.00     0.152 C 
BRANCH  16  17
ATOM     17  C   UNL d   1     -41.965-122.429 -55.124  0.00  0.00     0.143 C 
BRANCH  17  18
ATOM     18  O   UNL d   1     -42.461-121.924 -55.554  0.00  0.00    -0.324 OA
ATOM     19  C   UNL d   1     -42.875-122.209 -56.208  0.00  0.00     0.182 C 
ENDBRANCH  17  18
ENDBRANCH  16  17
ENDBRANCH  15  16
ENDBRANCH  13  15
ENDBRANCH   3  13
BRANCH   5  20
ATOM     20  C   UNL d   1     -41.665-121.345 -51.612  0.00  0.00     0.046 A 
ATOM     21  S   UNL d   1     -41.123-120.730 -51.515  0.00  0.00    -0.085 SA
ATOM     22  C   UNL d   1     -41.537-120.019 -51.576  0.00  0.00     0.035 A 
ATOM     23  C   UNL d   1     -42.330-120.196 -51.710  0.00  0.00     0.007 A 
ATOM     24  C   UNL d   1     -42.410-121.012 -51.732  0.00  0.00     0.009 A 
ENDBRANCH   5  20
TORSDOF 6
ENDMDL
