MODEL 1
REMARK VINA RESULT:      -0.2      0.000      0.000
REMARK  4 active torsions:
REMARK  status: ('A' for Active; 'I' for Inactive)
REMARK    1  A    between atoms: C_15  and  O_20 
REMARK    2  A    between atoms: C_16  and  O_21 
REMARK    3  A    between atoms: O_20  and  C_18 
REMARK    4  A    between atoms: O_21  and  C_19 
ROOT
ATOM      1  C   UNL d   1     -41.336-122.105 -51.148  0.00  0.00     0.161 A 
ATOM      2  O   UNL d   1     -41.324-121.527 -50.657  0.00  0.00    -0.291 OA
ATOM      3  C   UNL d   1     -41.408-122.547 -50.451  0.00  0.00     0.033 A 
ATOM      4  C   UNL d   1     -41.321-122.491 -51.878  0.00  0.00     0.033 A 
ATOM      5  C   UNL d   1     -41.267-121.763 -51.927  0.00  0.00     0.016 A 
ATOM      6  C   UNL d   1     -41.267-120.985 -50.986  0.00  0.00     0.296 A 
ATOM      7  C   UNL d   1     -41.465-123.375 -50.487  0.00  0.00     0.101 A 
ATOM      8  C   UNL d   1     -41.377-123.319 -51.914  0.00  0.00     0.101 A 
ATOM      9  O   UNL d   1     -41.449-123.761 -51.221  0.00  0.00    -0.307 OA
ATOM     10  C   UNL d   1     -41.233-121.073 -51.662  0.00  0.00     0.062 A 
ATOM     11  C   UNL d   1     -41.362-123.705 -52.646  0.00  0.00     0.049 A 
ATOM     12  C   UNL d   1     -41.536-123.817 -49.798  0.00  0.00     0.049 A 
ATOM     13  C   UNL d   1     -41.423-122.161 -49.726  0.00  0.00     0.003 A 
ATOM     14  C   UNL d   1     -41.249-122.049 -52.574  0.00  0.00     0.003 A 
ATOM     15  O   UNL d   1     -41.247-120.410 -50.623  0.00  0.00    -0.259 OA
ATOM     16  C   UNL d   1     -41.290-123.263 -53.343  0.00  0.00     0.105 A 
ATOM     17  C   UNL d   1     -41.551-123.431 -49.065  0.00  0.00     0.105 A 
ATOM     18  C   UNL d   1     -41.495-122.603 -49.029  0.00  0.00     0.025 A 
ATOM     19  C   UNL d   1     -41.234-122.435 -53.307  0.00  0.00     0.025 A 
ATOM     20  C   UNL d   1     -41.231-121.912 -52.716  0.00  0.00    -0.001 A 
ATOM     21  C   UNL d   1     -41.160-120.423 -52.132  0.00  0.00     0.005 A 
ATOM     22  C   UNL d   1     -41.158-121.294 -53.228  0.00  0.00    -0.000 A 
ATOM     23  C   UNL d   1     -41.123-120.549 -52.931  0.00  0.00     0.000 A 
ENDROOT
BRANCH  17  24
ATOM     24  O   UNL d   1     -41.600-123.743 -48.605  0.00  0.00    -0.273 OA
BRANCH  24  25
ATOM     25  C   UNL d   1     -41.901-123.597 -48.066  0.00  0.00     0.300 C 
ATOM     26  O   UNL d   1     -41.491-123.485 -47.684  0.00  0.00    -0.259 OA
ATOM     27  C   UNL d   1     -42.591-123.577 -47.957  0.00  0.00     0.074 C 
ENDBRANCH  24  25
ENDBRANCH  17  24
BRANCH  16  28
ATOM     28  O   UNL d   1     -41.280-123.537 -53.839  0.00  0.00    -0.273 OA
BRANCH  28  29
ATOM     29  C   UNL d   1     -41.569-123.716 -54.265  0.00  0.00     0.300 C 
ATOM     30  O   UNL d   1     -41.135-123.798 -54.712  0.00  0.00    -0.259 OA
ATOM     31  C   UNL d   1     -42.199-123.817 -54.300  0.00  0.00     0.074 C 
ENDBRANCH  28  29
ENDBRANCH  16  28
TORSDOF 4
ENDMDL
MODEL 2
REMARK VINA RESULT:       1.7      0.855      3.968
REMARK  4 active torsions:
REMARK  status: ('A' for Active; 'I' for Inactive)
REMARK    1  A    between atoms: C_15  and  O_20 
REMARK    2  A    between atoms: C_16  and  O_21 
REMARK    3  A    between atoms: O_20  and  C_18 
REMARK    4  A    between atoms: O_21  and  C_19 
ROOT
ATOM      1  C   UNL d   1     -41.410-122.082 -52.154  0.00  0.00     0.161 A 
ATOM      2  O   UNL d   1     -41.344-121.467 -52.595  0.00  0.00    -0.291 OA
ATOM      3  C   UNL d   1     -41.492-122.459 -52.887  0.00  0.00     0.033 A 
ATOM      4  C   UNL d   1     -41.441-122.527 -51.460  0.00  0.00     0.033 A 
ATOM      5  C   UNL d   1     -41.339-121.812 -51.348  0.00  0.00     0.016 A 
ATOM      6  C   UNL d   1     -41.259-120.960 -52.220  0.00  0.00     0.296 A 
ATOM      7  C   UNL d   1     -41.606-123.281 -52.923  0.00  0.00     0.101 A 
ATOM      8  C   UNL d   1     -41.555-123.350 -51.496  0.00  0.00     0.101 A 
ATOM      9  O   UNL d   1     -41.637-123.726 -52.225  0.00  0.00    -0.307 OA
ATOM     10  C   UNL d   1     -41.251-121.106 -51.553  0.00  0.00     0.062 A 
ATOM     11  C   UNL d   1     -41.586-123.795 -50.799  0.00  0.00     0.049 A 
ATOM     12  C   UNL d   1     -41.688-123.658 -53.648  0.00  0.00     0.049 A 
ATOM     13  C   UNL d   1     -41.461-122.014 -53.577  0.00  0.00     0.003 A 
ATOM     14  C   UNL d   1     -41.359-122.151 -50.728  0.00  0.00     0.003 A 
ATOM     15  O   UNL d   1     -41.191-120.359 -52.532  0.00  0.00    -0.259 OA
ATOM     16  C   UNL d   1     -41.504-123.419 -50.065  0.00  0.00     0.105 A 
ATOM     17  C   UNL d   1     -41.656-123.212 -54.346  0.00  0.00     0.105 A 
ATOM     18  C   UNL d   1     -41.543-122.390 -54.311  0.00  0.00     0.025 A 
ATOM     19  C   UNL d   1     -41.390-122.596 -50.030  0.00  0.00     0.025 A 
ATOM     20  C   UNL d   1     -41.335-122.027 -50.574  0.00  0.00    -0.001 A 
ATOM     21  C   UNL d   1     -41.147-120.504 -51.027  0.00  0.00     0.005 A 
ATOM     22  C   UNL d   1     -41.234-121.461 -50.009  0.00  0.00    -0.000 A 
ATOM     23  C   UNL d   1     -41.140-120.699 -50.242  0.00  0.00     0.000 A 
ENDROOT
BRANCH  17  24
ATOM     24  O   UNL d   1     -41.714-123.481 -54.832  0.00  0.00    -0.273 OA
BRANCH  24  25
ATOM     25  C   UNL d   1     -41.810-123.230 -55.407  0.00  0.00     0.300 C 
ATOM     26  O   UNL d   1     -41.292-123.182 -55.645  0.00  0.00    -0.259 OA
ATOM     27  C   UNL d   1     -42.421-123.048 -55.694  0.00  0.00     0.074 C 
ENDBRANCH  24  25
ENDBRANCH  17  24
BRANCH  16  28
ATOM     28  O   UNL d   1     -41.527-123.733 -49.594  0.00  0.00    -0.273 OA
BRANCH  28  29
ATOM     29  C   UNL d   1     -41.706-123.769 -49.081  0.00  0.00     0.300 C 
ATOM     30  O   UNL d   1     -41.176-123.817 -48.745  0.00  0.00    -0.259 OA
ATOM     31  C   UNL d   1     -42.308-123.764 -48.871  0.00  0.00     0.074 C 
ENDBRANCH  28  29
ENDBRANCH  16  28
TORSDOF 4
ENDMDL
