MODEL 1
REMARK VINA RESULT:      77.5      0.000      0.000
REMARK  6 active torsions:
REMARK  status: ('A' for Active; 'I' for Inactive)
REMARK    1  A    between atoms: C_9  and  C_2 
REMARK    2  A    between atoms: N_12  and  C_6 
REMARK    3  A    between atoms: N_11  and  C_20 
REMARK    4  A    between atoms: C_19  and  N_12 
REMARK    5  A    between atoms: O_21  and  C_16 
REMARK    6  A    between atoms: C_20  and  C_19 
ROOT
ATOM      1  C   UNL d   1     -50.348  26.849  34.603  0.00  0.00     0.060 A 
ATOM      2  C   UNL d   1     -50.530  26.577  33.862  0.00  0.00     0.011 A 
ATOM      3  C   UNL d   1     -50.014  26.955  33.306  0.00  0.00     0.037 A 
ATOM      4  C   UNL d   1     -49.711  27.405  34.533  0.00  0.00     0.116 A 
ATOM      5  S   UNL d   1     -49.510  27.465  33.722  0.00  0.00    -0.067 SA
ATOM      6  C   UNL d   1     -50.653  26.686  35.343  0.00  0.00     0.166 A 
ATOM      7  N   UNL d   1     -49.398  27.782  35.203  0.00  0.00    -0.217 NA
ATOM      8  N   UNL d   1     -50.345  27.055  35.994  0.00  0.00    -0.205 NA
ATOM      9  C   UNL d   1     -49.703  27.617  35.928  0.00  0.00     0.201 A 
ENDROOT
BRANCH   6  10
ATOM     10  N   UNL d   1     -51.275  26.146  35.441  0.00  0.00    -0.224 NA
BRANCH  10  11
ATOM     11  C   UNL d   1     -51.457  25.866  36.194  0.00  0.00     0.120 C 
BRANCH  11  12
ATOM     12  C   UNL d   1     -51.903  26.336  36.723  0.00  0.00     0.101 C 
BRANCH  12  13
ATOM     13  N   UNL d   1     -52.111  26.031  37.470  0.00  0.00    -0.298 N 
ATOM     14  C   UNL d   1     -51.676  26.230  38.103  0.00  0.00     0.107 A 
ATOM     15  C   UNL d   1     -51.894  25.918  38.844  0.00  0.00     0.142 A 
ATOM     16  O   UNL d   1     -52.527  25.433  38.903  0.00  0.00    -0.300 OA
ATOM     17  C   UNL d   1     -52.958  25.237  38.272  0.00  0.00     0.142 A 
ATOM     18  C   UNL d   1     -52.767  25.528  37.534  0.00  0.00     0.107 A 
ENDBRANCH  12  13
ENDBRANCH  11  12
ENDBRANCH  10  11
ENDBRANCH   6  10
BRANCH   2  19
ATOM     19  C   UNL d   1     -51.110  26.041  33.722  0.00  0.00     0.001 A 
ATOM     20  C   UNL d   1     -51.895  26.271  33.648  0.00  0.00     0.002 A 
ATOM     21  C   UNL d   1     -52.490  25.723  33.505  0.00  0.00     0.024 A 
ATOM     22  C   UNL d   1     -52.315  24.920  33.432  0.00  0.00     0.094 A 
ATOM     23  C   UNL d   1     -51.503  24.695  33.510  0.00  0.00     0.024 A 
ATOM     24  C   UNL d   1     -50.912  25.242  33.653  0.00  0.00     0.002 A 
BRANCH  22  25
ATOM     25  O   UNL d   1     -52.772  24.409  33.311  0.00  0.00    -0.328 OA
ATOM     26  C   UNL d   1     -52.639  23.620  33.582  0.00  0.00     0.181 C 
ENDBRANCH  22  25
ENDBRANCH   2  19
TORSDOF 6
ENDMDL
