MODEL 1
REMARK VINA RESULT:      -7.1      0.000      0.000
REMARK  13 active torsions:
REMARK  status: ('A' for Active; 'I' for Inactive)
REMARK    1  A    between atoms: C_21  and  N_1 
REMARK    2  A    between atoms: C_7  and  N_3 
REMARK    3  A    between atoms: C_8  and  C_7 
REMARK       I    between atoms: N_12  and  C_8 
REMARK    4  A    between atoms: C_11  and  C_22 
REMARK    5  A    between atoms: C_26  and  N_12 
REMARK    6  A    between atoms: C_27  and  N_12 
REMARK    7  A    between atoms: C_13  and  C_25 
REMARK       I    between atoms: N_15  and  C_13 
REMARK    8  A    between atoms: C_22  and  N_15 
REMARK    9  A    between atoms: C_28  and  C_21 
REMARK   10  A    between atoms: C_25  and  C_31 
REMARK   11  A    between atoms: C_29  and  C_26 
REMARK   12  A    between atoms: C_30  and  C_27 
REMARK   13  A    between atoms: C_31  and  C_28 
ROOT
ATOM      1  N   UNL d   1      52.540  33.795  53.380  0.00  0.00    -0.226 N 
ATOM      2  C   UNL d   1      52.560  32.982  53.520  0.00  0.00     0.342 A 
ATOM      3  N   UNL d   1      53.126  32.666  54.039  0.00  0.00    -0.254 N 
ATOM      4  C   UNL d   1      53.087  34.291  53.759  0.00  0.00     0.270 A 
ATOM      5  C   UNL d   1      53.647  33.975  54.272  0.00  0.00     0.073 A 
ATOM      6  C   UNL d   1      53.666  33.162  54.413  0.00  0.00     0.073 A 
ATOM      7  O   UNL d   1      52.016  32.481  53.144  0.00  0.00    -0.245 OA
ATOM      8  O   UNL d   1      53.068  35.104  53.618  0.00  0.00    -0.266 OA
ATOM      9  C   UNL d   1      54.188  34.471  54.646  0.00  0.00     0.006 A 
ATOM     10  C   UNL d   1      54.227  32.845  54.927  0.00  0.00     0.018 A 
ATOM     11  C   UNL d   1      54.747  34.155  55.160  0.00  0.00     0.000 A 
ATOM     12  C   UNL d   1      54.767  33.342  55.300  0.00  0.00     0.002 A 
ENDROOT
BRANCH   1  13
ATOM     13  C   UNL d   1      51.977  34.110  52.863  0.00  0.00     0.087 C 
BRANCH  13  14
ATOM     14  C   UNL d   1      51.203  34.239  53.117  0.00  0.00     0.019 C 
BRANCH  14  15
ATOM     15  C   UNL d   1      50.600  34.380  52.573  0.00  0.00     0.006 C 
BRANCH  15  16
ATOM     16  C   UNL d   1      49.862  34.665  52.832  0.00  0.00     0.063 C 
BRANCH  16  17
ATOM     17  C   UNL d   1      49.272  34.840  52.286  0.00  0.00     0.279 C 
ATOM     18  N   UNL d   1      48.627  35.306  52.507  0.00  0.00    -0.204 NA
ATOM     19  O   UNL d   1      49.325  34.549  51.513  0.00  0.00    -0.265 OA
BRANCH  18  20
ATOM     20  C   UNL d   1      48.038  35.480  51.960  0.00  0.00     0.127 C 
BRANCH  20  21
ATOM     21  C   UNL d   1      47.334  35.840  52.209  0.00  0.00     0.119 A 
ATOM     22  O   UNL d   1      46.569  35.533  52.101  0.00  0.00    -0.304 OA
ATOM     23  C   UNL d   1      46.032  36.074  52.436  0.00  0.00     0.123 A 
ATOM     24  C   UNL d   1      46.466  36.709  52.747  0.00  0.00     0.029 A 
ATOM     25  C   UNL d   1      47.270  36.564  52.607  0.00  0.00     0.028 A 
ENDBRANCH  20  21
ENDBRANCH  18  20
ENDBRANCH  16  17
ENDBRANCH  15  16
ENDBRANCH  14  15
ENDBRANCH  13  14
ENDBRANCH   1  13
BRANCH   3  26
ATOM     26  C   UNL d   1      53.146  31.853  54.180  0.00  0.00     0.146 C 
BRANCH  26  27
ATOM     27  C   UNL d   1      53.313  31.333  53.564  0.00  0.00     0.283 C 
ATOM     28  N   UNL d   1      53.257  30.514  53.685  0.00  0.00    -0.271 N 
ATOM     29  O   UNL d   1      53.536  31.625  52.828  0.00  0.00    -0.265 OA
BRANCH  28  30
ATOM     30  C   UNL d   1      53.423  29.993  53.071  0.00  0.00     0.083 C 
BRANCH  30  31
ATOM     31  C   UNL d   1      52.812  29.586  52.696  0.00  0.00     0.019 C 
ATOM     32  C   UNL d   1      52.937  29.242  51.958  0.00  0.00     0.002 C 
ENDBRANCH  30  31
ENDBRANCH  28  30
BRANCH  28  33
ATOM     33  C   UNL d   1      53.033  30.221  54.422  0.00  0.00     0.083 C 
BRANCH  33  34
ATOM     34  C   UNL d   1      53.319  29.492  54.676  0.00  0.00     0.019 C 
ATOM     35  C   UNL d   1      53.140  29.220  55.436  0.00  0.00     0.002 C 
ENDBRANCH  33  34
ENDBRANCH  28  33
ENDBRANCH  26  27
ENDBRANCH   3  26
TORSDOF 13
ENDMDL
