MODEL 1
REMARK VINA RESULT:      -1.7      0.000      0.000
REMARK  3 active torsions:
REMARK  status: ('A' for Active; 'I' for Inactive)
REMARK    1  A    between atoms: C_8  and  C_1 
REMARK    2  A    between atoms: O_13  and  C_6 
REMARK    3  A    between atoms: C_17  and  O_13 
ROOT
ATOM      1  C   UNL d   1      31.354  17.623 -24.387  0.00  0.00     0.009 A 
ATOM      2  C   UNL d   1      31.822  17.077 -23.977  0.00  0.00     0.046 A 
ATOM      3  C   UNL d   1      32.637  17.209 -23.904  0.00  0.00     0.105 A 
ATOM      4  O   UNL d   1      32.977  17.881 -24.237  0.00  0.00    -0.273 OA
ATOM      5  C   UNL d   1      31.690  18.295 -24.720  0.00  0.00     0.069 A 
ATOM      6  C   UNL d   1      31.486  16.405 -23.644  0.00  0.00     0.102 A 
ATOM      7  C   UNL d   1      32.501  18.427 -24.648  0.00  0.00     0.300 A 
ATOM      8  C   UNL d   1      33.108  16.669 -23.498  0.00  0.00     0.025 A 
ATOM      9  C   UNL d   1      31.953  15.862 -23.236  0.00  0.00     0.025 A 
ATOM     10  O   UNL d   1      32.844  19.103 -24.983  0.00  0.00    -0.259 OA
ATOM     11  C   UNL d   1      32.765  15.994 -23.163  0.00  0.00     0.004 A 
ATOM     12  C   UNL d   1      33.239  15.458 -22.759  0.00  0.00     0.000 C 
ENDROOT
BRANCH   1  13
ATOM     13  C   UNL d   1      30.539  17.490 -24.460  0.00  0.00     0.000 A 
ATOM     14  C   UNL d   1      30.258  16.949 -25.023  0.00  0.00     0.000 A 
ATOM     15  C   UNL d   1      29.435  16.815 -25.097  0.00  0.00     0.000 A 
ATOM     16  C   UNL d   1      28.906  17.219 -24.613  0.00  0.00     0.000 A 
ATOM     17  C   UNL d   1      29.199  17.762 -24.048  0.00  0.00     0.000 A 
ATOM     18  C   UNL d   1      30.010  17.895 -23.975  0.00  0.00     0.000 A 
ENDBRANCH   1  13
BRANCH   6  19
ATOM     19  O   UNL d   1      30.671  16.272 -23.717  0.00  0.00    -0.305 OA
BRANCH  19  20
ATOM     20  C   UNL d   1      30.357  15.536 -23.559  0.00  0.00     0.123 C 
ATOM     21  C   UNL d   1      29.792  15.453 -22.968  0.00  0.00     0.029 C 
ENDBRANCH  19  20
ENDBRANCH   6  19
TORSDOF 3
ENDMDL
MODEL 2
REMARK VINA RESULT:      -1.5      4.804      5.948
REMARK  3 active torsions:
REMARK  status: ('A' for Active; 'I' for Inactive)
REMARK    1  A    between atoms: C_8  and  C_1 
REMARK    2  A    between atoms: O_13  and  C_6 
REMARK    3  A    between atoms: C_17  and  O_13 
ROOT
ATOM      1  C   UNL d   1      32.802  22.612 -22.348  0.00  0.00     0.009 A 
ATOM      2  C   UNL d   1      32.911  21.792 -22.381  0.00  0.00     0.046 A 
ATOM      3  C   UNL d   1      33.079  21.430 -23.108  0.00  0.00     0.105 A 
ATOM      4  O   UNL d   1      33.136  21.884 -23.791  0.00  0.00    -0.273 OA
ATOM      5  C   UNL d   1      32.859  23.069 -23.030  0.00  0.00     0.069 A 
ATOM      6  C   UNL d   1      32.855  21.335 -21.700  0.00  0.00     0.102 A 
ATOM      7  C   UNL d   1      33.026  22.708 -23.753  0.00  0.00     0.300 A 
ATOM      8  C   UNL d   1      33.189  20.614 -23.146  0.00  0.00     0.025 A 
ATOM      9  C   UNL d   1      32.964  20.519 -21.734  0.00  0.00     0.025 A 
ATOM     10  O   UNL d   1      33.084  23.165 -24.442  0.00  0.00    -0.259 OA
ATOM     11  C   UNL d   1      33.131  20.158 -22.457  0.00  0.00     0.004 A 
ATOM     12  C   UNL d   1      33.241  19.345 -22.501  0.00  0.00     0.000 C 
ENDROOT
BRANCH   1  13
ATOM     13  C   UNL d   1      32.634  22.974 -21.622  0.00  0.00     0.000 A 
ATOM     14  C   UNL d   1      31.854  22.990 -21.340  0.00  0.00     0.000 A 
ATOM     15  C   UNL d   1      31.685  23.356 -20.605  0.00  0.00     0.000 A 
ATOM     16  C   UNL d   1      32.290  23.699 -20.166  0.00  0.00     0.000 A 
ATOM     17  C   UNL d   1      33.074  23.678 -20.460  0.00  0.00     0.000 A 
ATOM     18  C   UNL d   1      33.241  23.317 -21.183  0.00  0.00     0.000 A 
ENDBRANCH   1  13
BRANCH   6  19
ATOM     19  O   UNL d   1      32.687  21.698 -20.973  0.00  0.00    -0.305 OA
BRANCH  19  20
ATOM     20  C   UNL d   1      32.414  21.254 -20.345  0.00  0.00     0.123 C 
ATOM     21  C   UNL d   1      32.951  20.859 -19.863  0.00  0.00     0.029 C 
ENDBRANCH  19  20
ENDBRANCH   6  19
TORSDOF 3
ENDMDL
MODEL 3
REMARK VINA RESULT:      -1.4      1.194      3.789
REMARK  3 active torsions:
REMARK  status: ('A' for Active; 'I' for Inactive)
REMARK    1  A    between atoms: C_8  and  C_1 
REMARK    2  A    between atoms: O_13  and  C_6 
REMARK    3  A    between atoms: C_17  and  O_13 
ROOT
ATOM      1  C   UNL d   1      29.880  16.261 -23.706  0.00  0.00     0.009 A 
ATOM      2  C   UNL d   1      29.607  16.960 -24.057  0.00  0.00     0.046 A 
ATOM      3  C   UNL d   1      28.803  17.155 -24.010  0.00  0.00     0.105 A 
ATOM      4  O   UNL d   1      28.280  16.656 -23.616  0.00  0.00    -0.273 OA
ATOM      5  C   UNL d   1      29.360  15.760 -23.312  0.00  0.00     0.069 A 
ATOM      6  C   UNL d   1      30.127  17.460 -24.451  0.00  0.00     0.102 A 
ATOM      7  C   UNL d   1      28.560  15.955 -23.265  0.00  0.00     0.300 A 
ATOM      8  C   UNL d   1      28.526  17.848 -24.356  0.00  0.00     0.025 A 
ATOM      9  C   UNL d   1      29.853  18.155 -24.800  0.00  0.00     0.025 A 
ATOM     10  O   UNL d   1      28.032  15.453 -22.869  0.00  0.00    -0.259 OA
ATOM     11  C   UNL d   1      29.053  18.350 -24.752  0.00  0.00     0.004 A 
ATOM     12  C   UNL d   1      28.771  19.041 -25.097  0.00  0.00     0.000 C 
ENDROOT
BRANCH   1  13
ATOM     13  C   UNL d   1      30.684  16.066 -23.754  0.00  0.00     0.000 A 
ATOM     14  C   UNL d   1      31.199  16.289 -23.143  0.00  0.00     0.000 A 
ATOM     15  C   UNL d   1      32.012  16.092 -23.191  0.00  0.00     0.000 A 
ATOM     16  C   UNL d   1      32.298  15.678 -23.842  0.00  0.00     0.000 A 
ATOM     17  C   UNL d   1      31.770  15.457 -24.453  0.00  0.00     0.000 A 
ATOM     18  C   UNL d   1      30.969  15.651 -24.406  0.00  0.00     0.000 A 
ENDBRANCH   1  13
BRANCH   6  19
ATOM     19  O   UNL d   1      30.931  17.265 -24.499  0.00  0.00    -0.305 OA
BRANCH  19  20
ATOM     20  C   UNL d   1      31.410  17.624 -25.053  0.00  0.00     0.123 C 
ATOM     21  C   UNL d   1      31.786  18.331 -24.867  0.00  0.00     0.029 C 
ENDBRANCH  19  20
ENDBRANCH   6  19
TORSDOF 3
ENDMDL
MODEL 4
REMARK VINA RESULT:      -1.4      1.288      2.990
REMARK  3 active torsions:
REMARK  status: ('A' for Active; 'I' for Inactive)
REMARK    1  A    between atoms: C_8  and  C_1 
REMARK    2  A    between atoms: O_13  and  C_6 
REMARK    3  A    between atoms: C_17  and  O_13 
ROOT
ATOM      1  C   UNL d   1      30.231  17.676 -24.424  0.00  0.00     0.009 A 
ATOM      2  C   UNL d   1      29.755  17.115 -24.044  0.00  0.00     0.046 A 
ATOM      3  C   UNL d   1      28.934  17.227 -24.016  0.00  0.00     0.105 A 
ATOM      4  O   UNL d   1      28.597  17.891 -24.365  0.00  0.00    -0.273 OA
ATOM      5  C   UNL d   1      29.897  18.341 -24.773  0.00  0.00     0.069 A 
ATOM      6  C   UNL d   1      30.090  16.450 -23.695  0.00  0.00     0.102 A 
ATOM      7  C   UNL d   1      29.080  18.451 -24.746  0.00  0.00     0.300 A 
ATOM      8  C   UNL d   1      28.456  16.672 -23.640  0.00  0.00     0.025 A 
ATOM      9  C   UNL d   1      29.614  15.893 -23.317  0.00  0.00     0.025 A 
ATOM     10  O   UNL d   1      28.739  19.120 -25.097  0.00  0.00    -0.259 OA
ATOM     11  C   UNL d   1      28.797  16.004 -23.289  0.00  0.00     0.004 A 
ATOM     12  C   UNL d   1      28.315  15.454 -22.915  0.00  0.00     0.000 C 
ENDROOT
BRANCH   1  13
ATOM     13  C   UNL d   1      31.052  17.565 -24.452  0.00  0.00     0.000 A 
ATOM     14  C   UNL d   1      31.539  17.949 -23.901  0.00  0.00     0.000 A 
ATOM     15  C   UNL d   1      32.369  17.837 -23.929  0.00  0.00     0.000 A 
ATOM     16  C   UNL d   1      32.699  17.346 -24.501  0.00  0.00     0.000 A 
ATOM     17  C   UNL d   1      32.200  16.962 -25.051  0.00  0.00     0.000 A 
ATOM     18  C   UNL d   1      31.383  17.073 -25.024  0.00  0.00     0.000 A 
ENDBRANCH   1  13
BRANCH   6  19
ATOM     19  O   UNL d   1      30.911  16.339 -23.722  0.00  0.00    -0.305 OA
BRANCH  19  20
ATOM     20  C   UNL d   1      31.230  15.599 -23.601  0.00  0.00     0.123 C 
ATOM     21  C   UNL d   1      31.689  15.458 -22.932  0.00  0.00     0.029 C 
ENDBRANCH  19  20
ENDBRANCH   6  19
TORSDOF 3
ENDMDL
MODEL 5
REMARK VINA RESULT:      -0.6      4.614      6.048
REMARK  3 active torsions:
REMARK  status: ('A' for Active; 'I' for Inactive)
REMARK    1  A    between atoms: C_8  and  C_1 
REMARK    2  A    between atoms: O_13  and  C_6 
REMARK    3  A    between atoms: C_17  and  O_13 
ROOT
ATOM      1  C   UNL d   1      32.840  21.301 -21.143  0.00  0.00     0.009 A 
ATOM      2  C   UNL d   1      32.940  21.115 -21.944  0.00  0.00     0.046 A 
ATOM      3  C   UNL d   1      33.133  20.340 -22.163  0.00  0.00     0.105 A 
ATOM      4  O   UNL d   1      33.225  19.759 -21.587  0.00  0.00    -0.273 OA
ATOM      5  C   UNL d   1      32.932  20.724 -20.566  0.00  0.00     0.069 A 
ATOM      6  C   UNL d   1      32.848  21.693 -22.522  0.00  0.00     0.102 A 
ATOM      7  C   UNL d   1      33.124  19.952 -20.784  0.00  0.00     0.300 A 
ATOM      8  C   UNL d   1      33.233  20.149 -22.958  0.00  0.00     0.025 A 
ATOM      9  C   UNL d   1      32.948  21.506 -23.319  0.00  0.00     0.025 A 
ATOM     10  O   UNL d   1      33.217  19.367 -20.204  0.00  0.00    -0.259 OA
ATOM     11  C   UNL d   1      33.140  20.734 -23.537  0.00  0.00     0.004 A 
ATOM     12  C   UNL d   1      33.241  20.538 -24.329  0.00  0.00     0.000 C 
ENDROOT
BRANCH   1  13
ATOM     13  C   UNL d   1      32.647  22.077 -20.924  0.00  0.00     0.000 A 
ATOM     14  C   UNL d   1      33.241  22.588 -20.650  0.00  0.00     0.000 A 
ATOM     15  C   UNL d   1      33.046  23.372 -20.428  0.00  0.00     0.000 A 
ATOM     16  C   UNL d   1      32.268  23.634 -20.483  0.00  0.00     0.000 A 
ATOM     17  C   UNL d   1      31.676  23.111 -20.762  0.00  0.00     0.000 A 
ATOM     18  C   UNL d   1      31.869  22.339 -20.980  0.00  0.00     0.000 A 
ENDBRANCH   1  13
BRANCH   6  19
ATOM     19  O   UNL d   1      32.655  22.469 -22.303  0.00  0.00    -0.305 OA
BRANCH  19  20
ATOM     20  C   UNL d   1      32.376  22.996 -22.859  0.00  0.00     0.123 C 
ATOM     21  C   UNL d   1      32.831  23.650 -23.063  0.00  0.00     0.029 C 
ENDBRANCH  19  20
ENDBRANCH   6  19
TORSDOF 3
ENDMDL
