MODEL 1
REMARK VINA RESULT:      -7.8      0.000      0.000
REMARK  4 active torsions:
REMARK  status: ('A' for Active; 'I' for Inactive)
REMARK    1  A    between atoms: C_8  and  C_2 
REMARK    2  A    between atoms: O_6  and  C_8 
REMARK    3  A    between atoms: C_7  and  O_6 
REMARK    4  A    between atoms: O_10  and  C_9 
ROOT
ATOM      1  C   UNL d   1      53.179  32.472  53.423  0.00  0.00     0.161 C 
ENDROOT
BRANCH   1   2
ATOM      2  O   UNL d   1      52.784  33.031  53.087  0.00  0.00    -0.300 OA
BRANCH   2   3
ATOM      3  C   UNL d   1      52.784  33.817  53.412  0.00  0.00     0.122 A 
ATOM      4  C   UNL d   1      52.184  34.318  53.247  0.00  0.00     0.117 A 
ATOM      5  C   UNL d   1      52.194  35.083  53.569  0.00  0.00     0.026 A 
ATOM      6  C   UNL d   1      52.820  35.315  54.053  0.00  0.00     0.002 A 
ATOM      7  C   UNL d   1      53.458  34.791  54.232  0.00  0.00     0.002 A 
ATOM      8  C   UNL d   1      53.423  34.024  53.893  0.00  0.00     0.027 A 
BRANCH   4   9
ATOM      9  O   UNL d   1      51.560  34.087  52.765  0.00  0.00    -0.326 OA
ATOM     10  C   UNL d   1      50.889  34.526  52.720  0.00  0.00     0.181 C 
ENDBRANCH   4   9
ENDBRANCH   2   3
ENDBRANCH   1   2
BRANCH   1  11
ATOM     11  C   UNL d   1      53.028  31.711  53.212  0.00  0.00     0.188 A 
ATOM     12  N   UNL d   1      52.754  31.090  52.746  0.00  0.00    -0.224 NA
ATOM     13  C   UNL d   1      52.907  30.392  53.121  0.00  0.00     0.101 A 
ATOM     14  C   UNL d   1      53.283  30.567  53.835  0.00  0.00     0.101 A 
ATOM     15  C   UNL d   1      52.772  29.614  52.943  0.00  0.00     0.021 A 
ATOM     16  C   UNL d   1      53.509  29.957  54.342  0.00  0.00     0.021 A 
ATOM     17  N   UNL d   1      53.355  31.370  53.887  0.00  0.00    -0.224 NA
ATOM     18  C   UNL d   1      53.359  29.172  54.136  0.00  0.00     0.002 A 
ATOM     19  C   UNL d   1      52.984  28.997  53.423  0.00  0.00     0.002 A 
ENDBRANCH   1  11
TORSDOF 4
ENDMDL
MODEL 2
REMARK VINA RESULT:      -7.7      1.667      4.075
REMARK  4 active torsions:
REMARK  status: ('A' for Active; 'I' for Inactive)
REMARK    1  A    between atoms: C_8  and  C_2 
REMARK    2  A    between atoms: O_6  and  C_8 
REMARK    3  A    between atoms: C_7  and  O_6 
REMARK    4  A    between atoms: O_10  and  C_9 
ROOT
ATOM      1  C   UNL d   1      52.146  33.912  53.372  0.00  0.00     0.161 C 
ENDROOT
BRANCH   1   2
ATOM      2  O   UNL d   1      52.692  33.383  53.306  0.00  0.00    -0.300 OA
BRANCH   2   3
ATOM      3  C   UNL d   1      53.288  33.297  53.905  0.00  0.00     0.122 A 
ATOM      4  C   UNL d   1      53.637  32.587  54.023  0.00  0.00     0.117 A 
ATOM      5  C   UNL d   1      54.218  32.515  54.611  0.00  0.00     0.026 A 
ATOM      6  C   UNL d   1      54.428  33.172  55.063  0.00  0.00     0.002 A 
ATOM      7  C   UNL d   1      54.064  33.925  54.944  0.00  0.00     0.002 A 
ATOM      8  C   UNL d   1      53.479  33.970  54.343  0.00  0.00     0.027 A 
BRANCH   4   9
ATOM      9  O   UNL d   1      53.428  31.933  53.573  0.00  0.00    -0.326 OA
ATOM     10  C   UNL d   1      53.734  31.208  53.734  0.00  0.00     0.181 C 
ENDBRANCH   4   9
ENDBRANCH   2   3
ENDBRANCH   1   2
BRANCH   1  11
ATOM     11  C   UNL d   1      51.607  33.989  52.782  0.00  0.00     0.188 A 
ATOM     12  N   UNL d   1      51.299  33.937  52.020  0.00  0.00    -0.224 NA
ATOM     13  C   UNL d   1      50.547  34.229  52.019  0.00  0.00     0.101 A 
ATOM     14  C   UNL d   1      50.370  34.471  52.788  0.00  0.00     0.101 A 
ATOM     15  C   UNL d   1      49.979  34.322  51.450  0.00  0.00     0.021 A 
ATOM     16  C   UNL d   1      49.632  34.797  52.959  0.00  0.00     0.021 A 
ATOM     17  N   UNL d   1      51.017  34.324  53.249  0.00  0.00    -0.224 NA
ATOM     18  C   UNL d   1      49.070  34.881  52.360  0.00  0.00     0.002 A 
ATOM     19  C   UNL d   1      49.246  34.639  51.591  0.00  0.00     0.002 A 
ENDBRANCH   1  11
TORSDOF 4
ENDMDL
MODEL 3
REMARK VINA RESULT:      -7.0      1.343      4.515
REMARK  4 active torsions:
REMARK  status: ('A' for Active; 'I' for Inactive)
REMARK    1  A    between atoms: C_8  and  C_2 
REMARK    2  A    between atoms: O_6  and  C_8 
REMARK    3  A    between atoms: C_7  and  O_6 
REMARK    4  A    between atoms: O_10  and  C_9 
ROOT
ATOM      1  C   UNL d   1      53.396  32.027  53.680  0.00  0.00     0.161 C 
ENDROOT
BRANCH   1   2
ATOM      2  O   UNL d   1      53.459  31.349  54.022  0.00  0.00    -0.300 OA
BRANCH   2   3
ATOM      3  C   UNL d   1      53.237  30.635  53.616  0.00  0.00     0.122 A 
ATOM      4  C   UNL d   1      53.197  29.944  54.015  0.00  0.00     0.117 A 
ATOM      5  C   UNL d   1      52.980  29.254  53.608  0.00  0.00     0.026 A 
ATOM      6  C   UNL d   1      52.807  29.291  52.802  0.00  0.00     0.002 A 
ATOM      7  C   UNL d   1      52.847  30.018  52.374  0.00  0.00     0.002 A 
ATOM      8  C   UNL d   1      53.070  30.700  52.810  0.00  0.00     0.027 A 
BRANCH   4   9
ATOM      9  O   UNL d   1      53.369  29.907  54.817  0.00  0.00    -0.326 OA
ATOM     10  C   UNL d   1      53.372  29.204  55.206  0.00  0.00     0.181 C 
ENDBRANCH   4   9
ENDBRANCH   2   3
ENDBRANCH   1   2
BRANCH   1  11
ATOM     11  C   UNL d   1      53.485  32.693  54.122  0.00  0.00     0.188 A 
ATOM     12  N   UNL d   1      53.717  33.158  54.760  0.00  0.00    -0.224 NA
ATOM     13  C   UNL d   1      53.489  33.921  54.627  0.00  0.00     0.101 A 
ATOM     14  C   UNL d   1      53.107  33.945  53.896  0.00  0.00     0.101 A 
ATOM     15  C   UNL d   1      53.560  34.611  55.043  0.00  0.00     0.021 A 
ATOM     16  C   UNL d   1      52.809  34.659  53.609  0.00  0.00     0.021 A 
ATOM     17  N   UNL d   1      53.106  33.197  53.591  0.00  0.00    -0.224 NA
ATOM     18  C   UNL d   1      52.895  35.350  54.054  0.00  0.00     0.002 A 
ATOM     19  C   UNL d   1      53.277  35.325  54.784  0.00  0.00     0.002 A 
ENDBRANCH   1  11
TORSDOF 4
ENDMDL
MODEL 4
REMARK VINA RESULT:      -6.9      2.041      3.417
REMARK  4 active torsions:
REMARK  status: ('A' for Active; 'I' for Inactive)
REMARK    1  A    between atoms: C_8  and  C_2 
REMARK    2  A    between atoms: O_6  and  C_8 
REMARK    3  A    between atoms: C_7  and  O_6 
REMARK    4  A    between atoms: O_10  and  C_9 
ROOT
ATOM      1  C   UNL d   1      51.413  34.025  52.981  0.00  0.00     0.161 C 
ENDROOT
BRANCH   1   2
ATOM      2  O   UNL d   1      50.799  34.465  53.086  0.00  0.00    -0.300 OA
BRANCH   2   3
ATOM      3  C   UNL d   1      50.191  34.510  52.494  0.00  0.00     0.122 A 
ATOM      4  C   UNL d   1      49.504  34.887  52.654  0.00  0.00     0.117 A 
ATOM      5  C   UNL d   1      48.917  34.925  52.069  0.00  0.00     0.026 A 
ATOM      6  C   UNL d   1      49.049  34.575  51.334  0.00  0.00     0.002 A 
ATOM      7  C   UNL d   1      49.771  34.175  51.157  0.00  0.00     0.002 A 
ATOM      8  C   UNL d   1      50.348  34.152  51.767  0.00  0.00     0.027 A 
BRANCH   4   9
ATOM      9  O   UNL d   1      49.374  35.235  53.386  0.00  0.00    -0.326 OA
ATOM     10  C   UNL d   1      48.712  35.670  53.523  0.00  0.00     0.181 C 
ENDBRANCH   4   9
ENDBRANCH   2   3
ENDBRANCH   1   2
BRANCH   1  11
ATOM     11  C   UNL d   1      52.001  34.043  53.528  0.00  0.00     0.188 A 
ATOM     12  N   UNL d   1      52.439  34.323  54.165  0.00  0.00    -0.224 NA
ATOM     13  C   UNL d   1      53.061  33.825  54.298  0.00  0.00     0.101 A 
ATOM     14  C   UNL d   1      53.021  33.219  53.740  0.00  0.00     0.101 A 
ATOM     15  C   UNL d   1      53.668  33.810  54.833  0.00  0.00     0.021 A 
ATOM     16  C   UNL d   1      53.589  32.621  53.738  0.00  0.00     0.021 A 
ATOM     17  N   UNL d   1      52.375  33.354  53.273  0.00  0.00    -0.224 NA
ATOM     18  C   UNL d   1      54.198  32.629  54.295  0.00  0.00     0.002 A 
ATOM     19  C   UNL d   1      54.238  33.236  54.854  0.00  0.00     0.002 A 
ENDBRANCH   1  11
TORSDOF 4
ENDMDL
MODEL 5
REMARK VINA RESULT:      -5.9     10.114     10.879
REMARK  4 active torsions:
REMARK  status: ('A' for Active; 'I' for Inactive)
REMARK    1  A    between atoms: C_8  and  C_2 
REMARK    2  A    between atoms: O_6  and  C_8 
REMARK    3  A    between atoms: C_7  and  O_6 
REMARK    4  A    between atoms: O_10  and  C_9 
ROOT
ATOM      1  C   UNL d   1      44.925  29.341  59.218  0.00  0.00     0.161 C 
ENDROOT
BRANCH   1   2
ATOM      2  O   UNL d   1      44.863  29.399  58.460  0.00  0.00    -0.300 OA
BRANCH   2   3
ATOM      3  C   UNL d   1      45.013  28.727  57.960  0.00  0.00     0.122 A 
ATOM      4  C   UNL d   1      44.937  28.795  57.167  0.00  0.00     0.117 A 
ATOM      5  C   UNL d   1      45.086  28.134  56.689  0.00  0.00     0.026 A 
ATOM      6  C   UNL d   1      45.309  27.419  57.035  0.00  0.00     0.002 A 
ATOM      7  C   UNL d   1      45.391  27.340  57.872  0.00  0.00     0.002 A 
ATOM      8  C   UNL d   1      45.235  28.025  58.333  0.00  0.00     0.027 A 
BRANCH   4   9
ATOM      9  O   UNL d   1      44.715  29.506  56.822  0.00  0.00    -0.326 OA
ATOM     10  C   UNL d   1      44.650  29.575  56.024  0.00  0.00     0.181 C 
ENDBRANCH   4   9
ENDBRANCH   2   3
ENDBRANCH   1   2
BRANCH   1  11
ATOM     11  C   UNL d   1      44.740  29.978  59.672  0.00  0.00     0.188 A 
ATOM     12  N   UNL d   1      44.508  30.749  59.843  0.00  0.00    -0.224 NA
ATOM     13  C   UNL d   1      44.494  30.848  60.644  0.00  0.00     0.101 A 
ATOM     14  C   UNL d   1      44.719  30.134  60.990  0.00  0.00     0.101 A 
ATOM     15  C   UNL d   1      44.314  31.468  61.132  0.00  0.00     0.021 A 
ATOM     16  C   UNL d   1      44.757  30.066  61.811  0.00  0.00     0.021 A 
ATOM     17  N   UNL d   1      44.868  29.607  60.396  0.00  0.00    -0.224 NA
ATOM     18  C   UNL d   1      44.569  30.714  62.287  0.00  0.00     0.002 A 
ATOM     19  C   UNL d   1      44.343  31.429  61.941  0.00  0.00     0.002 A 
ENDBRANCH   1  11
TORSDOF 4
ENDMDL
MODEL 6
REMARK VINA RESULT:      -5.7     10.433     10.930
REMARK  4 active torsions:
REMARK  status: ('A' for Active; 'I' for Inactive)
REMARK    1  A    between atoms: C_8  and  C_2 
REMARK    2  A    between atoms: O_6  and  C_8 
REMARK    3  A    between atoms: C_7  and  O_6 
REMARK    4  A    between atoms: O_10  and  C_9 
ROOT
ATOM      1  C   UNL d   1      44.754  30.280  59.814  0.00  0.00     0.161 C 
ENDROOT
BRANCH   1   2
ATOM      2  O   UNL d   1      44.745  30.733  60.427  0.00  0.00    -0.300 OA
BRANCH   2   3
ATOM      3  C   UNL d   1      44.677  30.404  61.208  0.00  0.00     0.122 A 
ATOM      4  C   UNL d   1      44.545  30.884  61.834  0.00  0.00     0.117 A 
ATOM      5  C   UNL d   1      44.481  30.552  62.592  0.00  0.00     0.026 A 
ATOM      6  C   UNL d   1      44.552  29.736  62.689  0.00  0.00     0.002 A 
ATOM      7  C   UNL d   1      44.691  29.223  62.032  0.00  0.00     0.002 A 
ATOM      8  C   UNL d   1      44.753  29.585  61.277  0.00  0.00     0.027 A 
BRANCH   4   9
ATOM      9  O   UNL d   1      44.474  31.696  61.737  0.00  0.00    -0.326 OA
ATOM     10  C   UNL d   1      44.321  32.174  62.365  0.00  0.00     0.181 C 
ENDBRANCH   4   9
ENDBRANCH   2   3
ENDBRANCH   1   2
BRANCH   1  11
ATOM     11  C   UNL d   1      44.730  30.616  59.084  0.00  0.00     0.188 A 
ATOM     12  N   UNL d   1      44.710  31.219  58.524  0.00  0.00    -0.224 NA
ATOM     13  C   UNL d   1      44.692  30.892  57.786  0.00  0.00     0.101 A 
ATOM     14  C   UNL d   1      44.701  30.072  57.873  0.00  0.00     0.101 A 
ATOM     15  C   UNL d   1      44.668  31.195  57.035  0.00  0.00     0.021 A 
ATOM     16  C   UNL d   1      44.686  29.585  57.208  0.00  0.00     0.021 A 
ATOM     17  N   UNL d   1      44.725  29.908  58.664  0.00  0.00    -0.224 NA
ATOM     18  C   UNL d   1      44.662  29.919  56.453  0.00  0.00     0.002 A 
ATOM     19  C   UNL d   1      44.653  30.740  56.365  0.00  0.00     0.002 A 
ENDBRANCH   1  11
TORSDOF 4
ENDMDL
MODEL 7
REMARK VINA RESULT:      -5.5      9.218     10.543
REMARK  4 active torsions:
REMARK  status: ('A' for Active; 'I' for Inactive)
REMARK    1  A    between atoms: C_8  and  C_2 
REMARK    2  A    between atoms: O_6  and  C_8 
REMARK    3  A    between atoms: C_7  and  O_6 
REMARK    4  A    between atoms: O_10  and  C_9 
ROOT
ATOM      1  C   UNL d   1      44.954  28.705  57.633  0.00  0.00     0.161 C 
ENDROOT
BRANCH   1   2
ATOM      2  O   UNL d   1      45.006  28.020  57.301  0.00  0.00    -0.300 OA
BRANCH   2   3
ATOM      3  C   UNL d   1      44.990  27.309  57.768  0.00  0.00     0.122 A 
ATOM      4  C   UNL d   1      44.926  26.597  57.410  0.00  0.00     0.117 A 
ATOM      5  C   UNL d   1      44.912  25.910  57.874  0.00  0.00     0.026 A 
ATOM      6  C   UNL d   1      44.964  25.970  58.696  0.00  0.00     0.002 A 
ATOM      7  C   UNL d   1      45.032  26.719  59.081  0.00  0.00     0.002 A 
ATOM      8  C   UNL d   1      45.044  27.398  58.587  0.00  0.00     0.027 A 
BRANCH   4   9
ATOM      9  O   UNL d   1      44.874  26.538  56.592  0.00  0.00    -0.326 OA
ATOM     10  C   UNL d   1      44.821  25.821  56.234  0.00  0.00     0.181 C 
ENDBRANCH   4   9
ENDBRANCH   2   3
ENDBRANCH   1   2
BRANCH   1  11
ATOM     11  C   UNL d   1      44.809  29.348  57.174  0.00  0.00     0.188 A 
ATOM     12  N   UNL d   1      44.657  29.773  56.486  0.00  0.00    -0.224 NA
ATOM     13  C   UNL d   1      44.587  30.556  56.670  0.00  0.00     0.101 A 
ATOM     14  C   UNL d   1      44.696  30.634  57.484  0.00  0.00     0.101 A 
ATOM     15  C   UNL d   1      44.442  31.226  56.240  0.00  0.00     0.021 A 
ATOM     16  C   UNL d   1      44.656  31.378  57.837  0.00  0.00     0.021 A 
ATOM     17  N   UNL d   1      44.830  29.897  57.787  0.00  0.00    -0.224 NA
ATOM     18  C   UNL d   1      44.507  32.046  57.375  0.00  0.00     0.002 A 
ATOM     19  C   UNL d   1      44.398  31.969  56.561  0.00  0.00     0.002 A 
ENDBRANCH   1  11
TORSDOF 4
ENDMDL
MODEL 8
REMARK VINA RESULT:      -4.9     15.370     16.342
REMARK  4 active torsions:
REMARK  status: ('A' for Active; 'I' for Inactive)
REMARK    1  A    between atoms: C_8  and  C_2 
REMARK    2  A    between atoms: O_6  and  C_8 
REMARK    3  A    between atoms: C_7  and  O_6 
REMARK    4  A    between atoms: O_10  and  C_9 
ROOT
ATOM      1  C   UNL d   1      47.182  27.096  67.681  0.00  0.00     0.161 C 
ENDROOT
BRANCH   1   2
ATOM      2  O   UNL d   1      46.794  26.492  67.425  0.00  0.00    -0.300 OA
BRANCH   2   3
ATOM      3  C   UNL d   1      45.943  26.488  67.431  0.00  0.00     0.122 A 
ATOM      4  C   UNL d   1      45.543  25.926  67.028  0.00  0.00     0.117 A 
ATOM      5  C   UNL d   1      44.714  25.932  67.040  0.00  0.00     0.026 A 
ATOM      6  C   UNL d   1      44.315  26.515  67.467  0.00  0.00     0.002 A 
ATOM      7  C   UNL d   1      44.731  27.112  67.895  0.00  0.00     0.002 A 
ATOM      8  C   UNL d   1      45.570  27.083  67.866  0.00  0.00     0.027 A 
BRANCH   4   9
ATOM      9  O   UNL d   1      45.940  25.346  66.604  0.00  0.00    -0.326 OA
ATOM     10  C   UNL d   1      45.536  24.786  66.193  0.00  0.00     0.181 C 
ENDBRANCH   4   9
ENDBRANCH   2   3
ENDBRANCH   1   2
BRANCH   1  11
ATOM     11  C   UNL d   1      47.985  27.078  67.659  0.00  0.00     0.188 A 
ATOM     12  N   UNL d   1      48.738  26.751  67.595  0.00  0.00    -0.224 NA
ATOM     13  C   UNL d   1      49.287  27.338  67.663  0.00  0.00     0.101 A 
ATOM     14  C   UNL d   1      48.883  28.049  67.773  0.00  0.00     0.101 A 
ATOM     15  C   UNL d   1      50.096  27.359  67.646  0.00  0.00     0.021 A 
ATOM     16  C   UNL d   1      49.303  28.754  67.861  0.00  0.00     0.021 A 
ATOM     17  N   UNL d   1      48.092  27.887  67.770  0.00  0.00    -0.224 NA
ATOM     18  C   UNL d   1      50.128  28.747  67.840  0.00  0.00     0.002 A 
ATOM     19  C   UNL d   1      50.533  28.036  67.730  0.00  0.00     0.002 A 
ENDBRANCH   1  11
TORSDOF 4
ENDMDL
