MODEL 1
REMARK VINA RESULT:      26.0      0.000      0.000
REMARK  5 active torsions:
REMARK  status: ('A' for Active; 'I' for Inactive)
REMARK    1  A    between atoms: C_14  and  N_1 
REMARK    2  A    between atoms: C_13  and  C_3 
REMARK    3  A    between atoms: C_4  and  S_11 
REMARK    4  A    between atoms: S_11  and  C_13 
REMARK    5  A    between atoms: C_15  and  C_14 
ROOT
ATOM      1  S   UNL d   1     -55.278 -98.834 -44.352  0.00  0.00    -0.058 SA
ENDROOT
BRANCH   1   2
ATOM      2  C   UNL d   1     -56.094 -98.817 -44.329  0.00  0.00     0.141 A 
ATOM      3  N   UNL d   1     -56.591 -98.815 -44.991  0.00  0.00    -0.232 NA
ATOM      4  C   UNL d   1     -57.363 -98.795 -44.720  0.00  0.00     0.088 A 
ATOM      5  C   UNL d   1     -58.092 -98.784 -45.100  0.00  0.00     0.020 A 
ATOM      6  C   UNL d   1     -57.340 -98.786 -43.893  0.00  0.00     0.049 A 
ATOM      7  C   UNL d   1     -58.782 -98.765 -44.680  0.00  0.00     0.002 A 
ATOM      8  C   UNL d   1     -58.759 -98.756 -43.854  0.00  0.00     0.001 A 
ATOM      9  C   UNL d   1     -58.046 -98.766 -43.452  0.00  0.00     0.008 A 
ATOM     10  S   UNL d   1     -56.553 -98.800 -43.666  0.00  0.00    -0.060 SA
ENDBRANCH   1   2
BRANCH   1  11
ATOM     11  C   UNL d   1     -54.878 -99.496 -44.055  0.00  0.00     0.077 C 
BRANCH  11  12
ATOM     12  C   UNL d   1     -54.846-100.182 -44.506  0.00  0.00     0.178 A 
ATOM     13  N   UNL d   1     -54.790-100.895 -44.135  0.00  0.00    -0.264 N 
ATOM     14  C   UNL d   1     -54.769-101.472 -44.725  0.00  0.00     0.227 A 
ATOM     15  N   UNL d   1     -54.813-101.095 -45.427  0.00  0.00    -0.117 NA
ATOM     16  S   UNL d   1     -54.711-102.334 -44.632  0.00  0.00    -0.036 SA
ATOM     17  N   UNL d   1     -54.859-100.316 -45.307  0.00  0.00    -0.127 NA
BRANCH  13  18
ATOM     18  C   UNL d   1     -54.756-101.065 -43.296  0.00  0.00     0.084 C 
BRANCH  18  19
ATOM     19  C   UNL d   1     -54.818-101.856 -43.043  0.00  0.00     0.019 C 
ATOM     20  C   UNL d   1     -54.829-102.032 -42.228  0.00  0.00     0.002 C 
ENDBRANCH  18  19
ENDBRANCH  13  18
ENDBRANCH  11  12
ENDBRANCH   1  11
TORSDOF 5
ENDMDL
MODEL 2
REMARK VINA RESULT:      26.9      1.346      4.163
REMARK  5 active torsions:
REMARK  status: ('A' for Active; 'I' for Inactive)
REMARK    1  A    between atoms: C_14  and  N_1 
REMARK    2  A    between atoms: C_13  and  C_3 
REMARK    3  A    between atoms: C_4  and  S_11 
REMARK    4  A    between atoms: S_11  and  C_13 
REMARK    5  A    between atoms: C_15  and  C_14 
ROOT
ATOM      1  S   UNL d   1     -56.065 -99.015 -44.127  0.00  0.00    -0.058 SA
ENDROOT
BRANCH   1   2
ATOM      2  C   UNL d   1     -55.774 -99.772 -44.211  0.00  0.00     0.141 A 
ATOM      3  N   UNL d   1     -55.539-100.118 -44.926  0.00  0.00    -0.232 NA
ATOM      4  C   UNL d   1     -55.284-100.878 -44.759  0.00  0.00     0.088 A 
ATOM      5  C   UNL d   1     -54.989-101.487 -45.226  0.00  0.00     0.020 A 
ATOM      6  C   UNL d   1     -55.362-100.998 -43.945  0.00  0.00     0.049 A 
ATOM      7  C   UNL d   1     -54.776-102.197 -44.904  0.00  0.00     0.002 A 
ATOM      8  C   UNL d   1     -54.855-102.316 -44.090  0.00  0.00     0.001 A 
ATOM      9  C   UNL d   1     -55.145-101.726 -43.603  0.00  0.00     0.008 A 
ATOM     10  S   UNL d   1     -55.664-100.310 -43.620  0.00  0.00    -0.060 SA
ENDBRANCH   1   2
BRANCH   1  11
ATOM     11  C   UNL d   1     -56.810 -98.830 -44.439  0.00  0.00     0.077 C 
BRANCH  11  12
ATOM     12  C   UNL d   1     -57.465 -98.832 -43.944  0.00  0.00     0.178 A 
ATOM     13  N   UNL d   1     -58.203 -98.797 -44.266  0.00  0.00    -0.264 N 
ATOM     14  C   UNL d   1     -58.740 -98.808 -43.639  0.00  0.00     0.227 A 
ATOM     15  N   UNL d   1     -58.315 -98.849 -42.964  0.00  0.00    -0.117 NA
ATOM     16  S   UNL d   1     -59.608 -98.781 -43.674  0.00  0.00    -0.036 SA
ATOM     17  N   UNL d   1     -57.545 -98.864 -43.136  0.00  0.00    -0.127 NA
BRANCH  13  18
ATOM     18  C   UNL d   1     -58.429 -98.755 -45.091  0.00  0.00     0.084 C 
BRANCH  18  19
ATOM     19  C   UNL d   1     -59.238 -98.776 -45.288  0.00  0.00     0.019 C 
ATOM     20  C   UNL d   1     -59.472 -98.774 -46.089  0.00  0.00     0.002 C 
ENDBRANCH  18  19
ENDBRANCH  13  18
ENDBRANCH  11  12
ENDBRANCH   1  11
TORSDOF 5
ENDMDL
MODEL 3
REMARK VINA RESULT:      27.1      0.855      1.440
REMARK  5 active torsions:
REMARK  status: ('A' for Active; 'I' for Inactive)
REMARK    1  A    between atoms: C_14  and  N_1 
REMARK    2  A    between atoms: C_13  and  C_3 
REMARK    3  A    between atoms: C_4  and  S_11 
REMARK    4  A    between atoms: S_11  and  C_13 
REMARK    5  A    between atoms: C_15  and  C_14 
ROOT
ATOM      1  S   UNL d   1     -56.031 -98.763 -44.239  0.00  0.00    -0.058 SA
ENDROOT
BRANCH   1   2
ATOM      2  C   UNL d   1     -56.839 -98.761 -44.354  0.00  0.00     0.141 A 
ATOM      3  N   UNL d   1     -57.217 -98.762 -45.091  0.00  0.00    -0.232 NA
ATOM      4  C   UNL d   1     -58.024 -98.760 -44.954  0.00  0.00     0.088 A 
ATOM      5  C   UNL d   1     -58.678 -98.759 -45.452  0.00  0.00     0.020 A 
ATOM      6  C   UNL d   1     -58.141 -98.758 -44.135  0.00  0.00     0.049 A 
ATOM      7  C   UNL d   1     -59.430 -98.757 -45.155  0.00  0.00     0.002 A 
ATOM      8  C   UNL d   1     -59.547 -98.756 -44.336  0.00  0.00     0.001 A 
ATOM      9  C   UNL d   1     -58.912 -98.756 -43.820  0.00  0.00     0.008 A 
ATOM     10  S   UNL d   1     -57.404 -98.759 -43.778  0.00  0.00    -0.060 SA
ENDBRANCH   1   2
BRANCH   1  11
ATOM     11  C   UNL d   1     -55.585 -99.410 -44.499  0.00  0.00     0.077 C 
BRANCH  11  12
ATOM     12  C   UNL d   1     -55.262 -99.925 -43.947  0.00  0.00     0.178 A 
ATOM     13  N   UNL d   1     -55.242-100.714 -44.108  0.00  0.00    -0.264 N 
ATOM     14  C   UNL d   1     -54.891-101.083 -43.458  0.00  0.00     0.227 A 
ATOM     15  N   UNL d   1     -54.711-100.512 -42.930  0.00  0.00    -0.117 NA
ATOM     16  S   UNL d   1     -54.733-101.929 -43.342  0.00  0.00    -0.036 SA
ATOM     17  N   UNL d   1     -54.930 -99.809 -43.214  0.00  0.00    -0.127 NA
BRANCH  13  18
ATOM     18  C   UNL d   1     -55.520-101.129 -44.804  0.00  0.00     0.084 C 
BRANCH  18  19
ATOM     19  C   UNL d   1     -55.242-101.900 -44.950  0.00  0.00     0.019 C 
ATOM     20  C   UNL d   1     -54.975-102.110 -45.712  0.00  0.00     0.002 C 
ENDBRANCH  18  19
ENDBRANCH  13  18
ENDBRANCH  11  12
ENDBRANCH   1  11
TORSDOF 5
ENDMDL
MODEL 4
REMARK VINA RESULT:      27.6      1.386      4.034
REMARK  5 active torsions:
REMARK  status: ('A' for Active; 'I' for Inactive)
REMARK    1  A    between atoms: C_14  and  N_1 
REMARK    2  A    between atoms: C_13  and  C_3 
REMARK    3  A    between atoms: C_4  and  S_11 
REMARK    4  A    between atoms: S_11  and  C_13 
REMARK    5  A    between atoms: C_15  and  C_14 
ROOT
ATOM      1  S   UNL d   1     -56.351 -99.108 -45.103  0.00  0.00    -0.058 SA
ENDROOT
BRANCH   1   2
ATOM      2  C   UNL d   1     -55.973 -99.738 -44.749  0.00  0.00     0.141 A 
ATOM      3  N   UNL d   1     -55.732 -99.769 -43.957  0.00  0.00    -0.232 NA
ATOM      4  C   UNL d   1     -55.378-100.497 -43.836  0.00  0.00     0.088 A 
ATOM      5  C   UNL d   1     -55.033-100.851 -43.179  0.00  0.00     0.020 A 
ATOM      6  C   UNL d   1     -55.401-100.912 -44.551  0.00  0.00     0.049 A 
ATOM      7  C   UNL d   1     -54.719-101.594 -43.221  0.00  0.00     0.002 A 
ATOM      8  C   UNL d   1     -54.742-102.009 -43.936  0.00  0.00     0.001 A 
ATOM      9  C   UNL d   1     -55.080-101.678 -44.604  0.00  0.00     0.008 A 
ATOM     10  S   UNL d   1     -55.769-100.434 -45.104  0.00  0.00    -0.060 SA
ENDBRANCH   1   2
BRANCH   1  11
ATOM     11  C   UNL d   1     -56.999 -98.758 -44.723  0.00  0.00     0.077 C 
BRANCH  11  12
ATOM     12  C   UNL d   1     -57.731 -98.757 -45.095  0.00  0.00     0.178 A 
ATOM     13  N   UNL d   1     -58.402 -98.757 -44.649  0.00  0.00    -0.264 N 
ATOM     14  C   UNL d   1     -59.040 -98.756 -45.172  0.00  0.00     0.227 A 
ATOM     15  N   UNL d   1     -58.740 -98.755 -45.911  0.00  0.00    -0.117 NA
ATOM     16  S   UNL d   1     -59.888 -98.756 -44.984  0.00  0.00    -0.036 SA
ATOM     17  N   UNL d   1     -57.951 -98.756 -45.878  0.00  0.00    -0.127 NA
BRANCH  13  18
ATOM     18  C   UNL d   1     -58.480 -98.759 -43.796  0.00  0.00     0.084 C 
BRANCH  18  19
ATOM     19  C   UNL d   1     -59.230 -98.892 -43.461  0.00  0.00     0.019 C 
ATOM     20  C   UNL d   1     -59.293 -99.221 -42.697  0.00  0.00     0.002 C 
ENDBRANCH  18  19
ENDBRANCH  13  18
ENDBRANCH  11  12
ENDBRANCH   1  11
TORSDOF 5
ENDMDL
