MODEL 1
REMARK VINA RESULT:      -5.1      0.000      0.000
REMARK  1 active torsions:
REMARK  status: ('A' for Active; 'I' for Inactive)
REMARK    1  A    between atoms: C_6  and  C_2 
ROOT
ATOM      1  S   UNL d   1      57.395   0.277  31.293  0.00  0.00    -0.024 SA
ATOM      2  C   UNL d   1      56.990  -0.387  31.550  0.00  0.00     0.135 A 
ATOM      3  N   UNL d   1      57.188  -1.022  31.064  0.00  0.00    -0.139 NA
ATOM      4  C   UNL d   1      57.849   0.049  30.642  0.00  0.00     0.236 A 
ATOM      5  N   UNL d   1      57.725  -0.743  30.500  0.00  0.00    -0.119 NA
ATOM      6  N   UNL d   1      58.345   0.547  30.209  0.00  0.00    -0.118 N 
ENDROOT
BRANCH   2   7
ATOM      7  C   UNL d   1      56.469  -0.416  32.188  0.00  0.00     0.029 A 
ATOM      8  C   UNL d   1      56.165   0.271  32.514  0.00  0.00     0.023 A 
ATOM      9  C   UNL d   1      55.642   0.241  33.155  0.00  0.00     0.099 A 
ATOM     10  N   UNL d   1      55.421  -0.475  33.474  0.00  0.00    -0.242 NA
ATOM     11  C   UNL d   1      55.721  -1.172  33.155  0.00  0.00     0.099 A 
ATOM     12  C   UNL d   1      56.244  -1.142  32.514  0.00  0.00     0.023 A 
ENDBRANCH   2   7
TORSDOF 1
ENDMDL
MODEL 2
REMARK VINA RESULT:      -5.0      1.020      1.536
REMARK  1 active torsions:
REMARK  status: ('A' for Active; 'I' for Inactive)
REMARK    1  A    between atoms: C_6  and  C_2 
ROOT
ATOM      1  S   UNL d   1      56.773   0.083  32.058  0.00  0.00    -0.024 SA
ATOM      2  C   UNL d   1      56.306  -0.320  32.598  0.00  0.00     0.135 A 
ATOM      3  N   UNL d   1      56.260  -1.110  32.369  0.00  0.00    -0.139 NA
ATOM      4  C   UNL d   1      57.018  -0.463  31.491  0.00  0.00     0.236 A 
ATOM      5  N   UNL d   1      56.707  -1.193  31.678  0.00  0.00    -0.119 NA
ATOM      6  N   UNL d   1      57.500  -0.294  30.843  0.00  0.00    -0.118 N 
ENDROOT
BRANCH   2   7
ATOM      7  C   UNL d   1      55.941   0.009  33.260  0.00  0.00     0.029 A 
ATOM      8  C   UNL d   1      55.126   0.004  33.336  0.00  0.00     0.023 A 
ATOM      9  C   UNL d   1      54.760   0.335  34.001  0.00  0.00     0.099 A 
ATOM     10  N   UNL d   1      55.207   0.672  34.593  0.00  0.00    -0.242 NA
ATOM     11  C   UNL d   1      56.027   0.682  34.526  0.00  0.00     0.099 A 
ATOM     12  C   UNL d   1      56.393   0.351  33.861  0.00  0.00     0.023 A 
ENDBRANCH   2   7
TORSDOF 1
ENDMDL
MODEL 3
REMARK VINA RESULT:      -4.5      1.012      2.903
REMARK  1 active torsions:
REMARK  status: ('A' for Active; 'I' for Inactive)
REMARK    1  A    between atoms: C_6  and  C_2 
ROOT
ATOM      1  S   UNL d   1      55.999   0.346  33.092  0.00  0.00    -0.024 SA
ATOM      2  C   UNL d   1      56.172  -0.232  32.538  0.00  0.00     0.135 A 
ATOM      3  N   UNL d   1      55.757  -0.916  32.732  0.00  0.00    -0.139 NA
ATOM      4  C   UNL d   1      55.472   0.016  33.633  0.00  0.00     0.236 A 
ATOM      5  N   UNL d   1      55.321  -0.755  33.417  0.00  0.00    -0.119 NA
ATOM      6  N   UNL d   1      55.151   0.407  34.286  0.00  0.00    -0.118 N 
ENDROOT
BRANCH   2   7
ATOM      7  C   UNL d   1      56.678  -0.145  31.893  0.00  0.00     0.029 A 
ATOM      8  C   UNL d   1      56.835   0.595  31.579  0.00  0.00     0.023 A 
ATOM      9  C   UNL d   1      57.343   0.682  30.931  0.00  0.00     0.099 A 
ATOM     10  N   UNL d   1      57.697   0.030  30.594  0.00  0.00    -0.242 NA
ATOM     11  C   UNL d   1      57.547  -0.718  30.902  0.00  0.00     0.099 A 
ATOM     12  C   UNL d   1      57.038  -0.805  31.550  0.00  0.00     0.023 A 
ENDBRANCH   2   7
TORSDOF 1
ENDMDL
MODEL 4
REMARK VINA RESULT:      -3.5      0.991      3.146
REMARK  1 active torsions:
REMARK  status: ('A' for Active; 'I' for Inactive)
REMARK    1  A    between atoms: C_6  and  C_2 
ROOT
ATOM      1  S   UNL d   1      57.204   0.203  31.979  0.00  0.00    -0.024 SA
ATOM      2  C   UNL d   1      57.275  -0.319  31.351  0.00  0.00     0.135 A 
ATOM      3  N   UNL d   1      56.839  -0.997  31.522  0.00  0.00    -0.139 NA
ATOM      4  C   UNL d   1      56.720  -0.156  32.542  0.00  0.00     0.236 A 
ATOM      5  N   UNL d   1      56.496  -0.889  32.267  0.00  0.00    -0.119 NA
ATOM      6  N   UNL d   1      56.502   0.177  33.265  0.00  0.00    -0.118 N 
ENDROOT
BRANCH   2   7
ATOM      7  C   UNL d   1      57.709  -0.189  30.663  0.00  0.00     0.029 A 
ATOM      8  C   UNL d   1      58.157  -0.788  30.329  0.00  0.00     0.023 A 
ATOM      9  C   UNL d   1      58.593  -0.657  29.638  0.00  0.00     0.099 A 
ATOM     10  N   UNL d   1      58.584   0.073  29.277  0.00  0.00    -0.242 NA
ATOM     11  C   UNL d   1      58.137   0.682  29.603  0.00  0.00     0.099 A 
ATOM     12  C   UNL d   1      57.701   0.551  30.295  0.00  0.00     0.023 A 
ENDBRANCH   2   7
TORSDOF 1
ENDMDL
MODEL 5
REMARK VINA RESULT:      -3.2      9.160      9.919
REMARK  1 active torsions:
REMARK  status: ('A' for Active; 'I' for Inactive)
REMARK    1  A    between atoms: C_6  and  C_2 
ROOT
ATOM      1  S   UNL d   1      59.568  -8.012  35.185  0.00  0.00    -0.024 SA
ATOM      2  C   UNL d   1      59.732  -8.803  35.048  0.00  0.00     0.135 A 
ATOM      3  N   UNL d   1      59.563  -9.229  35.733  0.00  0.00    -0.139 NA
ATOM      4  C   UNL d   1      59.296  -7.949  35.961  0.00  0.00     0.236 A 
ATOM      5  N   UNL d   1      59.291  -8.690  36.299  0.00  0.00    -0.119 NA
ATOM      6  N   UNL d   1      59.067  -7.247  36.330  0.00  0.00    -0.118 N 
ENDROOT
BRANCH   2   7
ATOM      7  C   UNL d   1      60.018  -9.121  34.344  0.00  0.00     0.029 A 
ATOM      8  C   UNL d   1      60.821  -9.138  34.187  0.00  0.00     0.023 A 
ATOM      9  C   UNL d   1      61.109  -9.458  33.479  0.00  0.00     0.099 A 
ATOM     10  N   UNL d   1      60.594  -9.762  32.925  0.00  0.00    -0.242 NA
ATOM     11  C   UNL d   1      59.785  -9.750  33.073  0.00  0.00     0.099 A 
ATOM     12  C   UNL d   1      59.498  -9.430  33.781  0.00  0.00     0.023 A 
ENDBRANCH   2   7
TORSDOF 1
ENDMDL
