MODEL 1
REMARK VINA RESULT:      52.8      0.000      0.000
REMARK  6 active torsions:
REMARK  status: ('A' for Active; 'I' for Inactive)
REMARK    1  A    between atoms: C_10  and  C_4 
REMARK    2  A    between atoms: N_12  and  C_5 
REMARK    3  A    between atoms: N_11  and  C_15 
REMARK    4  A    between atoms: C_20  and  N_12 
REMARK    5  A    between atoms: C_15  and  C_16 
REMARK    6  A    between atoms: C_16  and  C_20 
ROOT
ATOM      1  N   UNL d   1      45.379 -16.204  37.883  0.00  0.00    -0.195 N 
ATOM      2  C   UNL d   1      44.926 -15.680  37.436  0.00  0.00     0.167 A 
ATOM      3  N   UNL d   1      44.893 -16.816  38.135  0.00  0.00    -0.163 NA
ATOM      4  C   UNL d   1      44.159 -15.966  37.410  0.00  0.00     0.055 A 
ATOM      5  C   UNL d   1      46.184 -16.064  38.008  0.00  0.00     0.167 A 
ATOM      6  C   UNL d   1      44.133 -16.664  37.839  0.00  0.00     0.104 A 
ATOM      7  N   UNL d   1      45.274 -15.010  37.109  0.00  0.00    -0.227 NA
ATOM      8  C   UNL d   1      46.534 -15.383  37.676  0.00  0.00     0.058 A 
ATOM      9  C   UNL d   1      46.081 -14.859  37.229  0.00  0.00     0.086 A 
ATOM     10  C   UNL d   1      43.468 -17.137  37.958  0.00  0.00     0.023 C 
ATOM     11  C   UNL d   1      46.430 -14.184  36.900  0.00  0.00     0.021 C 
ENDROOT
BRANCH   5  12
ATOM     12  N   UNL d   1      46.633 -16.582  38.451  0.00  0.00    -0.225 NA
BRANCH  12  13
ATOM     13  C   UNL d   1      46.265 -17.125  38.949  0.00  0.00     0.102 C 
BRANCH  13  14
ATOM     14  C   UNL d   1      46.644 -17.376  39.645  0.00  0.00     0.040 C 
BRANCH  14  15
ATOM     15  C   UNL d   1      46.496 -18.127  39.948  0.00  0.00     0.082 C 
BRANCH  15  16
ATOM     16  N   UNL d   1      46.536 -18.261  40.760  0.00  0.00    -0.299 N 
ATOM     17  C   UNL d   1      46.604 -17.619  41.281  0.00  0.00     0.107 A 
ATOM     18  C   UNL d   1      46.644 -17.753  42.097  0.00  0.00     0.142 A 
ATOM     19  O   UNL d   1      46.615 -18.529  42.390  0.00  0.00    -0.300 OA
ATOM     20  C   UNL d   1      46.548 -19.164  41.870  0.00  0.00     0.142 A 
ATOM     21  C   UNL d   1      46.508 -19.029  41.054  0.00  0.00     0.107 A 
ENDBRANCH  15  16
ENDBRANCH  14  15
ENDBRANCH  13  14
ENDBRANCH  12  13
ENDBRANCH   5  12
BRANCH   4  22
ATOM     22  C   UNL d   1      43.474 -15.683  37.052  0.00  0.00     0.004 A 
ATOM     23  C   UNL d   1      43.385 -14.877  36.903  0.00  0.00     0.000 A 
ATOM     24  C   UNL d   1      42.694 -14.595  36.542  0.00  0.00     0.000 A 
ATOM     25  C   UNL d   1      42.096 -15.124  36.332  0.00  0.00     0.000 A 
ATOM     26  C   UNL d   1      42.184 -15.930  36.482  0.00  0.00     0.000 A 
ATOM     27  C   UNL d   1      42.869 -16.213  36.840  0.00  0.00     0.000 A 
ENDBRANCH   4  22
TORSDOF 6
ENDMDL
MODEL 2
REMARK VINA RESULT:      55.8      1.230      2.317
REMARK  6 active torsions:
REMARK  status: ('A' for Active; 'I' for Inactive)
REMARK    1  A    between atoms: C_10  and  C_4 
REMARK    2  A    between atoms: N_12  and  C_5 
REMARK    3  A    between atoms: N_11  and  C_15 
REMARK    4  A    between atoms: C_20  and  N_12 
REMARK    5  A    between atoms: C_15  and  C_16 
REMARK    6  A    between atoms: C_16  and  C_20 
ROOT
ATOM      1  N   UNL d   1      45.360 -17.097  38.906  0.00  0.00    -0.195 N 
ATOM      2  C   UNL d   1      44.646 -16.792  38.630  0.00  0.00     0.167 A 
ATOM      3  N   UNL d   1      45.947 -16.916  38.362  0.00  0.00    -0.163 NA
ATOM      4  C   UNL d   1      44.789 -16.421  37.913  0.00  0.00     0.055 A 
ATOM      5  C   UNL d   1      45.393 -17.507  39.624  0.00  0.00     0.167 A 
ATOM      6  C   UNL d   1      45.588 -16.494  37.744  0.00  0.00     0.104 A 
ATOM      7  N   UNL d   1      43.958 -16.894  39.068  0.00  0.00    -0.227 NA
ATOM      8  C   UNL d   1      44.693 -17.608  40.066  0.00  0.00     0.058 A 
ATOM      9  C   UNL d   1      43.979 -17.303  39.789  0.00  0.00     0.086 A 
ATOM     10  C   UNL d   1      45.972 -16.200  37.076  0.00  0.00     0.023 C 
ATOM     11  C   UNL d   1      43.286 -17.404  40.230  0.00  0.00     0.021 C 
ENDROOT
BRANCH   5  12
ATOM     12  N   UNL d   1      46.100 -17.809  39.897  0.00  0.00    -0.225 NA
BRANCH  12  13
ATOM     13  C   UNL d   1      46.228 -17.892  40.706  0.00  0.00     0.102 C 
BRANCH  13  14
ATOM     14  C   UNL d   1      46.060 -18.615  41.083  0.00  0.00     0.040 C 
BRANCH  14  15
ATOM     15  C   UNL d   1      46.638 -18.990  41.533  0.00  0.00     0.082 C 
BRANCH  15  16
ATOM     16  N   UNL d   1      46.463 -19.256  42.293  0.00  0.00    -0.299 N 
ATOM     17  C   UNL d   1      46.321 -20.063  42.426  0.00  0.00     0.107 A 
ATOM     18  C   UNL d   1      46.144 -20.330  43.189  0.00  0.00     0.142 A 
ATOM     19  O   UNL d   1      46.110 -19.789  43.819  0.00  0.00    -0.300 OA
ATOM     20  C   UNL d   1      46.252 -18.990  43.683  0.00  0.00     0.142 A 
ATOM     21  C   UNL d   1      46.429 -18.723  42.919  0.00  0.00     0.107 A 
ENDBRANCH  15  16
ENDBRANCH  14  15
ENDBRANCH  13  14
ENDBRANCH  12  13
ENDBRANCH   5  12
BRANCH   4  22
ATOM     22  C   UNL d   1      44.297 -16.023  37.388  0.00  0.00     0.004 A 
ATOM     23  C   UNL d   1      44.349 -15.204  37.307  0.00  0.00     0.000 A 
ATOM     24  C   UNL d   1      43.851 -14.806  36.777  0.00  0.00     0.000 A 
ATOM     25  C   UNL d   1      43.303 -15.232  36.330  0.00  0.00     0.000 A 
ATOM     26  C   UNL d   1      43.251 -16.051  36.411  0.00  0.00     0.000 A 
ATOM     27  C   UNL d   1      43.743 -16.449  36.936  0.00  0.00     0.000 A 
ENDBRANCH   4  22
TORSDOF 6
ENDMDL
