MODEL 1
REMARK VINA RESULT:      -9.0      0.000      0.000
REMARK  6 active torsions:
REMARK  status: ('A' for Active; 'I' for Inactive)
REMARK    1  A    between atoms: C_2  and  C_1 
REMARK       I    between atoms: N_10  and  C_1 
REMARK    2  A    between atoms: C_3  and  C_4 
REMARK    3  A    between atoms: C_16  and  N_10 
REMARK    4  A    between atoms: C_11  and  O_12 
REMARK    5  A    between atoms: O_12  and  C_17 
REMARK    6  A    between atoms: C_17  and  C_16 
ROOT
ATOM      1  C   UNL d   1      51.439  34.184  52.604  0.00  0.00     0.279 C 
ATOM      2  O   UNL d   1      51.503  34.160  51.782  0.00  0.00    -0.265 OA
ATOM      3  N   UNL d   1      50.719  34.384  52.956  0.00  0.00    -0.204 NA
ENDROOT
BRANCH   1   4
ATOM      4  C   UNL d   1      52.091  34.011  53.073  0.00  0.00     0.058 A 
ATOM      5  C   UNL d   1      52.605  34.612  53.307  0.00  0.00     0.004 A 
ATOM      6  C   UNL d   1      53.254  34.443  53.774  0.00  0.00    -0.004 A 
ATOM      7  C   UNL d   1      53.399  33.658  54.016  0.00  0.00    -0.023 A 
ATOM      8  C   UNL d   1      52.885  33.057  53.783  0.00  0.00    -0.004 A 
ATOM      9  C   UNL d   1      52.231  33.233  53.312  0.00  0.00     0.004 A 
BRANCH   7  10
ATOM     10  C   UNL d   1      54.056  33.480  54.490  0.00  0.00     0.019 C 
ATOM     11  C   UNL d   1      54.718  33.303  54.972  0.00  0.00     0.004 C 
ATOM     12  C   UNL d   1      54.347  32.962  53.901  0.00  0.00     0.004 C 
ATOM     13  C   UNL d   1      53.772  33.993  55.077  0.00  0.00     0.004 C 
ENDBRANCH   7  10
ENDBRANCH   1   4
BRANCH   3  14
ATOM     14  C   UNL d   1      50.064  34.559  52.486  0.00  0.00     0.129 C 
BRANCH  14  15
ATOM     15  C   UNL d   1      49.421  34.965  52.807  0.00  0.00     0.143 C 
BRANCH  15  16
ATOM     16  O   UNL d   1      48.762  35.133  52.340  0.00  0.00    -0.303 OA
BRANCH  16  17
ATOM     17  C   UNL d   1      48.175  35.665  52.609  0.00  0.00     0.100 A 
ATOM     18  C   UNL d   1      48.193  35.944  53.377  0.00  0.00     0.025 A 
ATOM     19  C   UNL d   1      47.612  36.465  53.633  0.00  0.00     0.002 A 
ATOM     20  C   UNL d   1      47.015  36.705  53.118  0.00  0.00     0.000 A 
ATOM     21  C   UNL d   1      46.998  36.424  52.345  0.00  0.00     0.002 A 
ATOM     22  C   UNL d   1      47.578  35.905  52.093  0.00  0.00     0.025 A 
ENDBRANCH  16  17
ENDBRANCH  15  16
ENDBRANCH  14  15
ENDBRANCH   3  14
TORSDOF 6
ENDMDL
MODEL 2
REMARK VINA RESULT:      -7.4      0.740      5.670
REMARK  6 active torsions:
REMARK  status: ('A' for Active; 'I' for Inactive)
REMARK    1  A    between atoms: C_2  and  C_1 
REMARK       I    between atoms: N_10  and  C_1 
REMARK    2  A    between atoms: C_3  and  C_4 
REMARK    3  A    between atoms: C_16  and  N_10 
REMARK    4  A    between atoms: C_11  and  O_12 
REMARK    5  A    between atoms: O_12  and  C_17 
REMARK    6  A    between atoms: C_17  and  C_16 
ROOT
ATOM      1  C   UNL d   1      50.206  34.382  52.231  0.00  0.00     0.279 C 
ATOM      2  O   UNL d   1      50.385  34.013  51.516  0.00  0.00    -0.265 OA
ATOM      3  N   UNL d   1      50.728  34.324  52.868  0.00  0.00    -0.204 NA
ENDROOT
BRANCH   1   4
ATOM      4  C   UNL d   1      49.509  34.809  52.311  0.00  0.00     0.058 A 
ATOM      5  C   UNL d   1      48.988  34.873  51.674  0.00  0.00     0.004 A 
ATOM      6  C   UNL d   1      48.292  35.297  51.751  0.00  0.00    -0.004 A 
ATOM      7  C   UNL d   1      48.108  35.668  52.474  0.00  0.00    -0.023 A 
ATOM      8  C   UNL d   1      48.629  35.604  53.110  0.00  0.00    -0.004 A 
ATOM      9  C   UNL d   1      49.329  35.175  53.028  0.00  0.00     0.004 A 
BRANCH   7  10
ATOM     10  C   UNL d   1      47.405  36.099  52.557  0.00  0.00     0.019 C 
ATOM     11  C   UNL d   1      46.697  36.537  52.646  0.00  0.00     0.004 C 
ATOM     12  C   UNL d   1      47.118  35.780  51.839  0.00  0.00     0.004 C 
ATOM     13  C   UNL d   1      47.686  36.418  53.270  0.00  0.00     0.004 C 
ENDBRANCH   7  10
ENDBRANCH   1   4
BRANCH   3  14
ATOM     14  C   UNL d   1      51.429  33.895  52.789  0.00  0.00     0.129 C 
BRANCH  14  15
ATOM     15  C   UNL d   1      51.952  33.838  53.425  0.00  0.00     0.143 C 
BRANCH  15  16
ATOM     16  O   UNL d   1      52.761  33.744  53.290  0.00  0.00    -0.303 OA
BRANCH  16  17
ATOM     17  C   UNL d   1      53.272  33.515  53.910  0.00  0.00     0.100 A 
ATOM     18  C   UNL d   1      53.570  34.075  54.426  0.00  0.00     0.025 A 
ATOM     19  C   UNL d   1      54.072  33.842  55.034  0.00  0.00     0.002 A 
ATOM     20  C   UNL d   1      54.274  33.047  55.121  0.00  0.00     0.000 A 
ATOM     21  C   UNL d   1      53.974  32.485  54.601  0.00  0.00     0.002 A 
ATOM     22  C   UNL d   1      53.475  32.720  53.998  0.00  0.00     0.025 A 
ENDBRANCH  16  17
ENDBRANCH  15  16
ENDBRANCH  14  15
ENDBRANCH   3  14
TORSDOF 6
ENDMDL
MODEL 3
REMARK VINA RESULT:      -7.3      1.698      5.798
REMARK  6 active torsions:
REMARK  status: ('A' for Active; 'I' for Inactive)
REMARK    1  A    between atoms: C_2  and  C_1 
REMARK       I    between atoms: N_10  and  C_1 
REMARK    2  A    between atoms: C_3  and  C_4 
REMARK    3  A    between atoms: C_16  and  N_10 
REMARK    4  A    between atoms: C_11  and  O_12 
REMARK    5  A    between atoms: O_12  and  C_17 
REMARK    6  A    between atoms: C_17  and  C_16 
ROOT
ATOM      1  C   UNL d   1      51.133  34.215  52.699  0.00  0.00     0.279 C 
ATOM      2  O   UNL d   1      51.752  34.748  52.813  0.00  0.00    -0.265 OA
ATOM      3  N   UNL d   1      51.269  33.404  52.764  0.00  0.00    -0.204 NA
ENDROOT
BRANCH   1   4
ATOM      4  C   UNL d   1      50.380  34.492  52.521  0.00  0.00     0.058 A 
ATOM      5  C   UNL d   1      49.934  34.880  53.097  0.00  0.00     0.004 A 
ATOM      6  C   UNL d   1      49.185  35.157  52.922  0.00  0.00    -0.004 A 
ATOM      7  C   UNL d   1      48.867  35.047  52.160  0.00  0.00    -0.023 A 
ATOM      8  C   UNL d   1      49.312  34.658  51.584  0.00  0.00    -0.004 A 
ATOM      9  C   UNL d   1      50.068  34.381  51.765  0.00  0.00     0.004 A 
BRANCH   7  10
ATOM     10  C   UNL d   1      48.108  35.325  51.977  0.00  0.00     0.019 C 
ATOM     11  C   UNL d   1      47.341  35.603  51.787  0.00  0.00     0.004 C 
ATOM     12  C   UNL d   1      48.062  35.704  52.721  0.00  0.00     0.004 C 
ATOM     13  C   UNL d   1      48.149  34.949  51.237  0.00  0.00     0.004 C 
ENDBRANCH   7  10
ENDBRANCH   1   4
BRANCH   3  14
ATOM     14  C   UNL d   1      52.024  33.125  52.943  0.00  0.00     0.129 C 
BRANCH  14  15
ATOM     15  C   UNL d   1      52.138  32.328  53.126  0.00  0.00     0.143 C 
BRANCH  15  16
ATOM     16  O   UNL d   1      52.801  31.929  52.840  0.00  0.00    -0.303 OA
BRANCH  16  17
ATOM     17  C   UNL d   1      52.997  31.168  53.130  0.00  0.00     0.100 A 
ATOM     18  C   UNL d   1      53.614  31.076  53.658  0.00  0.00     0.025 A 
ATOM     19  C   UNL d   1      53.800  30.326  53.937  0.00  0.00     0.002 A 
ATOM     20  C   UNL d   1      53.366  29.671  53.686  0.00  0.00     0.000 A 
ATOM     21  C   UNL d   1      52.746  29.766  53.154  0.00  0.00     0.002 A 
ATOM     22  C   UNL d   1      52.563  30.514  52.878  0.00  0.00     0.025 A 
ENDBRANCH  16  17
ENDBRANCH  15  16
ENDBRANCH  14  15
ENDBRANCH   3  14
TORSDOF 6
ENDMDL
