MODEL 1
REMARK VINA RESULT:      62.6      0.000      0.000
REMARK  8 active torsions:
REMARK  status: ('A' for Active; 'I' for Inactive)
REMARK    1  A    between atoms: C_21  and  C_3 
REMARK    2  A    between atoms: S_17  and  C_5 
REMARK    3  A    between atoms: C_11  and  C_16 
REMARK       I    between atoms: N_14  and  C_11 
REMARK    4  A    between atoms: C_19  and  N_14 
REMARK    5  A    between atoms: C_16  and  C_20 
REMARK    6  A    between atoms: C_20  and  S_17 
REMARK    7  A    between atoms: O_27  and  C_22 
REMARK    8  A    between atoms: C_30  and  O_27 
ROOT
ATOM      1  C   UNL d   1     -50.391  24.844  33.322  0.00  0.00     0.092 A 
ATOM      2  C   UNL d   1     -51.821  24.845  33.318  0.00  0.00     0.057 A 
ATOM      3  C   UNL d   1     -51.108  24.432  33.316  0.00  0.00     0.016 A 
ATOM      4  N   UNL d   1     -51.107  26.082  33.331  0.00  0.00    -0.239 NA
ATOM      5  C   UNL d   1     -50.390  25.669  33.329  0.00  0.00     0.120 A 
ATOM      6  C   UNL d   1     -51.820  25.670  33.325  0.00  0.00     0.081 A 
ATOM      7  C   UNL d   1     -52.533  24.433  33.313  0.00  0.00     0.193 A 
ATOM      8  C   UNL d   1     -49.671  24.419  33.320  0.00  0.00     0.103 C 
ATOM      9  N   UNL d   1     -48.946  23.997  33.318  0.00  0.00    -0.191 NA
ATOM     10  C   UNL d   1     -53.245  25.671  33.322  0.00  0.00     0.042 A 
ATOM     11  C   UNL d   1     -53.246  24.846  33.315  0.00  0.00     0.019 A 
ATOM     12  C   UNL d   1     -52.532  26.083  33.327  0.00  0.00    -0.003 A 
ATOM     13  O   UNL d   1     -52.533  23.608  33.306  0.00  0.00    -0.287 OA
ATOM     14  C   UNL d   1     -53.532  26.446  33.328  0.00  0.00     0.009 C 
ATOM     15  C   UNL d   1     -53.970  25.258  33.317  0.00  0.00     0.009 C 
ENDROOT
BRANCH   3  16
ATOM     16  C   UNL d   1     -51.108  23.607  33.309  0.00  0.00     0.001 C 
ATOM     17  C   UNL d   1     -50.552  23.190  33.751  0.00  0.00     0.000 C 
ENDBRANCH   3  16
BRANCH   5  18
ATOM     18  S   UNL d   1     -49.670  26.081  33.334  0.00  0.00    -0.067 SA
BRANCH  18  19
ATOM     19  C   UNL d   1     -49.602  26.783  33.766  0.00  0.00     0.042 C 
BRANCH  19  20
ATOM     20  C   UNL d   1     -49.150  26.803  34.464  0.00  0.00     0.070 C 
BRANCH  20  21
ATOM     21  C   UNL d   1     -48.683  27.463  34.636  0.00  0.00     0.280 C 
ATOM     22  N   UNL d   1     -49.012  28.112  35.040  0.00  0.00    -0.208 NA
ATOM     23  O   UNL d   1     -47.886  27.479  34.407  0.00  0.00    -0.265 OA
BRANCH  22  24
ATOM     24  C   UNL d   1     -48.544  28.773  35.213  0.00  0.00     0.085 A 
ATOM     25  C   UNL d   1     -48.042  28.765  35.872  0.00  0.00     0.021 A 
ATOM     26  C   UNL d   1     -47.580  29.425  36.038  0.00  0.00     0.026 A 
ATOM     27  C   UNL d   1     -47.609  30.106  35.552  0.00  0.00     0.100 A 
ATOM     28  C   UNL d   1     -48.112  30.107  34.898  0.00  0.00     0.026 A 
ATOM     29  C   UNL d   1     -48.579  29.447  34.725  0.00  0.00     0.021 A 
BRANCH  27  30
ATOM     30  O   UNL d   1     -47.136  30.778  35.725  0.00  0.00    -0.305 OA
BRANCH  30  31
ATOM     31  C   UNL d   1     -47.235  31.474  35.289  0.00  0.00     0.123 C 
ATOM     32  C   UNL d   1     -46.740  32.110  35.426  0.00  0.00     0.029 C 
ENDBRANCH  30  31
ENDBRANCH  27  30
ENDBRANCH  22  24
ENDBRANCH  20  21
ENDBRANCH  19  20
ENDBRANCH  18  19
ENDBRANCH   5  18
TORSDOF 8
ENDMDL
