MODEL 1
REMARK VINA RESULT:      24.1      0.000      0.000
REMARK  3 active torsions:
REMARK  status: ('A' for Active; 'I' for Inactive)
REMARK    1  A    between atoms: N_9  and  C_7 
REMARK       I    between atoms: C_10  and  N_9 
REMARK    2  A    between atoms: C_13  and  C_10 
REMARK    3  A    between atoms: O_23  and  C_18 
ROOT
ATOM      1  C   UNL d   1      46.247 -18.446  42.285  0.00  0.00     0.081 A 
ATOM      2  C   UNL d   1      46.230 -19.216  42.006  0.00  0.00     0.301 A 
ATOM      3  C   UNL d   1      46.332 -18.281  43.086  0.00  0.00     0.090 A 
ATOM      4  O   UNL d   1      46.301 -19.845  42.547  0.00  0.00    -0.273 OA
ATOM      5  N   UNL d   1      46.348 -17.500  43.356  0.00  0.00    -0.226 NA
ATOM      6  C   UNL d   1      46.402 -18.908  43.620  0.00  0.00     0.041 A 
ATOM      7  C   UNL d   1      46.276 -16.877  42.809  0.00  0.00     0.166 A 
ATOM      8  C   UNL d   1      46.176 -17.820  41.744  0.00  0.00     0.010 A 
ATOM      9  C   UNL d   1      46.387 -19.692  43.353  0.00  0.00     0.105 A 
ATOM     10  C   UNL d   1      46.191 -17.036  42.005  0.00  0.00     0.039 A 
ATOM     11  O   UNL d   1      46.144 -19.377  41.198  0.00  0.00    -0.259 OA
ATOM     12  C   UNL d   1      46.488 -18.750  44.427  0.00  0.00     0.004 A 
ATOM     13  C   UNL d   1      46.091 -17.988  40.941  0.00  0.00     0.000 C 
ATOM     14  C   UNL d   1      46.457 -20.311  43.880  0.00  0.00     0.025 A 
ATOM     15  C   UNL d   1      46.558 -19.379  44.955  0.00  0.00     0.000 A 
ATOM     16  C   UNL d   1      46.542 -20.160  44.681  0.00  0.00     0.002 A 
ENDROOT
BRANCH   7  17
ATOM     17  N   UNL d   1      46.291 -16.086  43.078  0.00  0.00    -0.189 NA
ATOM     18  C   UNL d   1      45.746 -15.836  43.642  0.00  0.00     0.281 C 
ATOM     19  O   UNL d   1      45.184 -16.370  43.942  0.00  0.00    -0.265 OA
BRANCH  18  20
ATOM     20  C   UNL d   1      45.758 -15.067  43.907  0.00  0.00     0.058 A 
ATOM     21  C   UNL d   1      45.986 -14.449  43.394  0.00  0.00     0.007 A 
ATOM     22  C   UNL d   1      45.998 -13.666  43.662  0.00  0.00     0.024 A 
ATOM     23  C   UNL d   1      45.778 -13.521  44.449  0.00  0.00     0.094 A 
ATOM     24  C   UNL d   1      45.553 -14.126  44.954  0.00  0.00     0.024 A 
ATOM     25  C   UNL d   1      45.546 -14.897  44.677  0.00  0.00     0.007 A 
BRANCH  23  26
ATOM     26  O   UNL d   1      45.786 -12.734  44.732  0.00  0.00    -0.328 OA
ATOM     27  C   UNL d   1      45.527 -12.106  44.261  0.00  0.00     0.181 C 
ENDBRANCH  23  26
ENDBRANCH  18  20
ENDBRANCH   7  17
TORSDOF 3
ENDMDL
