MODEL 1
REMARK VINA RESULT:      63.7      0.000      0.000
REMARK  6 active torsions:
REMARK  status: ('A' for Active; 'I' for Inactive)
REMARK    1  A    between atoms: N_6  and  S_1 
REMARK    2  A    between atoms: C_12  and  S_1 
REMARK    3  A    between atoms: C_2  and  N_5 
REMARK    4  A    between atoms: C_4  and  C_7 
REMARK       I    between atoms: N_5  and  C_4 
REMARK    5  A    between atoms: C_10  and  N_6 
REMARK    6  A    between atoms: C_15  and  C_8 
ROOT
ATOM      1  C   UNL d   1      13.236  13.424  -4.766  0.00  0.00     0.076 A 
ATOM      2  C   UNL d   1      13.310  13.084  -4.024  0.00  0.00     0.098 A 
ATOM      3  C   UNL d   1      13.009  12.961  -5.410  0.00  0.00     0.006 A 
ATOM      4  C   UNL d   1      13.156  12.276  -3.919  0.00  0.00     0.020 A 
ATOM      5  C   UNL d   1      12.855  12.153  -5.304  0.00  0.00     0.000 A 
ATOM      6  C   UNL d   1      12.930  11.812  -4.556  0.00  0.00     0.002 A 
ENDROOT
BRANCH   1   7
ATOM      7  C   UNL d   1      13.389  14.227  -4.870  0.00  0.00     0.282 C 
ATOM      8  N   UNL d   1      14.072  14.469  -5.249  0.00  0.00    -0.183 NA
ATOM      9  O   UNL d   1      12.851  14.787  -4.592  0.00  0.00    -0.265 OA
BRANCH   8  10
ATOM     10  C   UNL d   1      14.226  15.277  -5.355  0.00  0.00     0.197 A 
ATOM     11  N   UNL d   1      13.681  15.834  -5.564  0.00  0.00    -0.221 NA
ATOM     12  C   UNL d   1      14.063  16.563  -5.608  0.00  0.00     0.090 A 
ATOM     13  C   UNL d   1      14.860  16.436  -5.418  0.00  0.00     0.058 A 
ATOM     14  S   UNL d   1      14.963  15.631  -5.259  0.00  0.00    -0.046 SA
BRANCH  12  15
ATOM     15  C   UNL d   1      13.798  17.323  -5.793  0.00  0.00     0.018 A 
ATOM     16  C   UNL d   1      14.244  17.988  -5.566  0.00  0.00     0.004 A 
ATOM     17  C   UNL d   1      13.976  18.746  -5.752  0.00  0.00     0.030 A 
ATOM     18  C   UNL d   1      13.267  18.834  -6.164  0.00  0.00     0.140 A 
ATOM     19  C   UNL d   1      12.827  18.178  -6.388  0.00  0.00     0.030 A 
ATOM     20  F   UNL d   1      12.997  19.588  -6.351  0.00  0.00    -0.204 F 
ATOM     21  C   UNL d   1      13.087  17.422  -6.205  0.00  0.00     0.004 A 
ENDBRANCH  12  15
ENDBRANCH   8  10
ENDBRANCH   1   7
BRANCH   2  22
ATOM     22  N   UNL d   1      13.537  13.547  -3.380  0.00  0.00    -0.158 NA
BRANCH  22  23
ATOM     23  S   UNL d   1      13.879  13.184  -2.694  0.00  0.00     0.285 S 
ATOM     24  O   UNL d   1      14.228  13.904  -2.504  0.00  0.00    -0.198 OA
ATOM     25  O   UNL d   1      13.510  12.466  -2.914  0.00  0.00    -0.198 OA
BRANCH  23  26
ATOM     26  C   UNL d   1      14.206  12.836  -2.037  0.00  0.00     0.105 A 
ATOM     27  C   UNL d   1      14.013  13.124  -1.290  0.00  0.00     0.013 A 
ATOM     28  C   UNL d   1      14.353  12.762  -0.603  0.00  0.00     0.001 A 
ATOM     29  C   UNL d   1      14.866  12.136  -0.688  0.00  0.00     0.000 A 
ATOM     30  C   UNL d   1      15.059  11.848  -1.452  0.00  0.00     0.001 A 
ATOM     31  C   UNL d   1      15.188  11.796  -0.015  0.00  0.00     0.000 C 
ATOM     32  C   UNL d   1      14.726  12.201  -2.123  0.00  0.00     0.013 A 
ENDBRANCH  23  26
ENDBRANCH  22  23
ENDBRANCH   2  22
TORSDOF 6
ENDMDL
