MODEL 1
REMARK VINA RESULT:      37.5      0.000      0.000
REMARK  5 active torsions:
REMARK  status: ('A' for Active; 'I' for Inactive)
REMARK       I    between atoms: N_3  and  C_1 
REMARK    1  A    between atoms: C_4  and  C_1 
REMARK    2  A    between atoms: N_2  and  C_4 
REMARK       I    between atoms: C_5  and  N_2 
REMARK    3  A    between atoms: C_18  and  C_4 
REMARK    4  A    between atoms: C_9  and  C_5 
REMARK    5  A    between atoms: C_7  and  N_6 
ROOT
ATOM      1  C   UNL d   1      45.495 -18.421  44.326  0.00  0.00     0.283 C 
ATOM      2  N   UNL d   1      45.555 -17.602  44.392  0.00  0.00    -0.268 N 
ATOM      3  N   UNL d   1      45.673 -15.969  44.526  0.00  0.00    -0.286 N 
ATOM      4  O   UNL d   1      44.898 -18.830  44.722  0.00  0.00    -0.265 OA
ATOM      5  C   UNL d   1      46.153 -17.200  43.994  0.00  0.00     0.102 A 
ATOM      6  C   UNL d   1      45.012 -17.192  44.860  0.00  0.00     0.102 A 
ATOM      7  C   UNL d   1      45.074 -16.368  44.926  0.00  0.00     0.101 A 
ATOM      8  C   UNL d   1      46.207 -16.382  44.065  0.00  0.00     0.101 A 
ENDROOT
BRANCH   1   9
ATOM      9  C   UNL d   1      46.038 -18.832  43.859  0.00  0.00     0.141 C 
BRANCH   9  10
ATOM     10  N   UNL d   1      46.179 -18.589  43.077  0.00  0.00    -0.203 NA
ATOM     11  C   UNL d   1      46.060 -19.115  42.457  0.00  0.00     0.279 C 
ATOM     12  O   UNL d   1      45.801 -19.879  42.608  0.00  0.00    -0.265 OA
BRANCH  11  13
ATOM     13  C   UNL d   1      46.201 -18.872  41.681  0.00  0.00     0.058 A 
ATOM     14  C   UNL d   1      46.503 -19.399  41.130  0.00  0.00     0.005 A 
ATOM     15  C   UNL d   1      46.646 -19.163  40.358  0.00  0.00     0.000 A 
ATOM     16  C   UNL d   1      46.484 -18.387  40.133  0.00  0.00     0.000 A 
ATOM     17  C   UNL d   1      46.179 -17.844  40.678  0.00  0.00     0.000 A 
ATOM     18  C   UNL d   1      46.624 -18.135  39.355  0.00  0.00     0.000 C 
ATOM     19  C   UNL d   1      46.039 -18.095  41.456  0.00  0.00     0.005 A 
ENDBRANCH  11  13
ENDBRANCH   9  10
BRANCH   9  20
ATOM     20  C   UNL d   1      46.442 -19.479  44.158  0.00  0.00     0.022 C 
ATOM     21  C   UNL d   1      46.646 -20.104  43.646  0.00  0.00     0.002 C 
ATOM     22  C   UNL d   1      46.646 -19.518  44.955  0.00  0.00     0.002 C 
ENDBRANCH   9  20
ENDBRANCH   1   9
BRANCH   3  23
ATOM     23  C   UNL d   1      45.732 -15.147  44.594  0.00  0.00     0.148 A 
ATOM     24  N   UNL d   1      45.064 -14.676  44.479  0.00  0.00    -0.227 NA
ATOM     25  C   UNL d   1      45.127 -13.856  44.548  0.00  0.00     0.101 A 
ATOM     26  C   UNL d   1      45.846 -13.506  44.729  0.00  0.00     0.021 A 
ATOM     27  C   UNL d   1      46.518 -13.986  44.844  0.00  0.00     0.005 A 
ATOM     28  C   UNL d   1      46.458 -14.804  44.776  0.00  0.00     0.037 A 
ENDBRANCH   3  23
TORSDOF 5
ENDMDL
