MODEL 1
REMARK VINA RESULT:      -2.4      0.000      0.000
REMARK  3 active torsions:
REMARK  status: ('A' for Active; 'I' for Inactive)
REMARK    1  A    between atoms: S_12  and  C_6 
REMARK    2  A    between atoms: C_10  and  C_14 
REMARK       I    between atoms: N_11  and  C_10 
REMARK    3  A    between atoms: C_14  and  S_12 
ROOT
ATOM      1  C   UNL d   1      33.233  20.874 -21.866  0.00  0.00     0.155 A 
ATOM      2  C   UNL d   1      33.230  20.891 -22.694  0.00  0.00     0.107 A 
ATOM      3  N   UNL d   1      33.228  19.445 -21.898  0.00  0.00    -0.250 N 
ATOM      4  C   UNL d   1      33.231  20.156 -21.470  0.00  0.00     0.285 A 
ATOM      5  N   UNL d   1      33.227  20.181 -23.123  0.00  0.00    -0.220 NA
ATOM      6  C   UNL d   1      33.226  19.465 -22.717  0.00  0.00     0.182 A 
ATOM      7  N   UNL d   1      33.236  21.652 -21.593  0.00  0.00    -0.239 NA
ATOM      8  C   UNL d   1      33.232  21.676 -22.938  0.00  0.00     0.037 A 
ATOM      9  C   UNL d   1      33.236  22.154 -22.254  0.00  0.00     0.083 A 
ATOM     10  O   UNL d   1      33.233  20.130 -20.640  0.00  0.00    -0.265 OA
ATOM     11  C   UNL d   1      33.227  18.719 -21.500  0.00  0.00     0.104 C 
ATOM     12  C   UNL d   1      33.231  22.027 -23.682  0.00  0.00     0.003 A 
ATOM     13  C   UNL d   1      33.238  22.978 -22.323  0.00  0.00     0.019 A 
ATOM     14  C   UNL d   1      33.234  22.852 -23.750  0.00  0.00     0.000 A 
ATOM     15  C   UNL d   1      33.237  23.322 -23.073  0.00  0.00     0.002 A 
ENDROOT
BRANCH   6  16
ATOM     16  S   UNL d   1      33.222  18.756 -23.142  0.00  0.00    -0.044 SA
BRANCH  16  17
ATOM     17  C   UNL d   1      32.557  18.534 -23.576  0.00  0.00     0.099 C 
BRANCH  17  18
ATOM     18  C   UNL d   1      32.554  17.824 -23.991  0.00  0.00     0.271 C 
ATOM     19  N   UNL d   1      31.853  17.551 -24.315  0.00  0.00    -0.272 N 
ATOM     20  C   UNL d   1      31.837  16.842 -24.732  0.00  0.00     0.083 A 
ATOM     21  C   UNL d   1      31.157  17.987 -24.224  0.00  0.00     0.083 A 
ATOM     22  C   UNL d   1      31.138  16.572 -25.054  0.00  0.00     0.019 A 
ATOM     23  C   UNL d   1      30.444  16.996 -24.969  0.00  0.00     0.003 A 
ATOM     24  C   UNL d   1      30.450  17.708 -24.552  0.00  0.00     0.019 A 
ATOM     25  O   UNL d   1      33.240  17.386 -24.086  0.00  0.00    -0.266 OA
ENDBRANCH  17  18
ENDBRANCH  16  17
ENDBRANCH   6  16
TORSDOF 3
ENDMDL
