MODEL 1
REMARK VINA RESULT:      -8.6      0.000      0.000
REMARK  4 active torsions:
REMARK  status: ('A' for Active; 'I' for Inactive)
REMARK    1  A    between atoms: N_7  and  S_1 
REMARK    2  A    between atoms: C_8  and  S_1 
REMARK    3  A    between atoms: C_17  and  N_2 
REMARK    4  A    between atoms: C_14  and  N_7 
ROOT
ATOM      1  N   UNL d   1     -45.841  12.889  22.727  0.00  0.00    -0.273 N 
ATOM      2  C   UNL d   1     -45.811  11.889  23.165  0.00  0.00     0.265 A 
ATOM      3  C   UNL d   1     -46.617  13.066  22.727  0.00  0.00     0.067 A 
ATOM      4  C   UNL d   1     -47.028  12.410  23.057  0.00  0.00     0.021 A 
ATOM      5  C   UNL d   1     -46.607  11.746  23.308  0.00  0.00     0.058 A 
ATOM      6  C   UNL d   1     -48.282  13.105  22.876  0.00  0.00     0.105 A 
ATOM      7  C   UNL d   1     -47.853  12.436  23.128  0.00  0.00     0.014 A 
ATOM      8  C   UNL d   1     -47.058  13.705  22.489  0.00  0.00     0.018 A 
ATOM      9  C   UNL d   1     -47.904  13.743  22.557  0.00  0.00     0.014 A 
ATOM     10  O   UNL d   1     -45.229  11.348  23.345  0.00  0.00    -0.267 OA
ATOM     11  C   UNL d   1     -47.001  11.117  23.625  0.00  0.00     0.005 A 
ATOM     12  C   UNL d   1     -48.247  11.807  23.445  0.00  0.00     0.001 A 
ATOM     13  C   UNL d   1     -47.823  11.140  23.697  0.00  0.00     0.000 A 
ENDROOT
BRANCH   6  14
ATOM     14  S   UNL d   1     -49.086  13.154  22.935  0.00  0.00     0.287 S 
ATOM     15  O   UNL d   1     -49.038  13.400  23.694  0.00  0.00    -0.198 OA
ATOM     16  O   UNL d   1     -49.150  12.900  22.147  0.00  0.00    -0.198 OA
BRANCH  14  17
ATOM     17  N   UNL d   1     -49.920  13.195  22.961  0.00  0.00    -0.139 NA
BRANCH  17  18
ATOM     18  C   UNL d   1     -50.298  13.925  22.971  0.00  0.00     0.175 A 
ATOM     19  N   UNL d   1     -50.362  14.362  23.681  0.00  0.00    -0.225 NA
ATOM     20  C   UNL d   1     -50.749  15.101  23.673  0.00  0.00     0.101 A 
ATOM     21  C   UNL d   1     -51.062  15.393  22.968  0.00  0.00     0.021 A 
ATOM     22  C   UNL d   1     -51.004  14.973  22.270  0.00  0.00     0.005 A 
ATOM     23  C   UNL d   1     -50.617  14.231  22.274  0.00  0.00     0.040 A 
ENDBRANCH  17  18
ENDBRANCH  14  17
ENDBRANCH   6  14
BRANCH   1  24
ATOM     24  C   UNL d   1     -45.302  13.433  22.433  0.00  0.00     0.083 C 
ATOM     25  C   UNL d   1     -44.724  13.179  21.879  0.00  0.00     0.021 C 
ENDBRANCH   1  24
TORSDOF 4
ENDMDL
MODEL 2
REMARK VINA RESULT:      -7.9      1.381      4.538
REMARK  4 active torsions:
REMARK  status: ('A' for Active; 'I' for Inactive)
REMARK    1  A    between atoms: N_7  and  S_1 
REMARK    2  A    between atoms: C_8  and  S_1 
REMARK    3  A    between atoms: C_17  and  N_2 
REMARK    4  A    between atoms: C_14  and  N_7 
ROOT
ATOM      1  N   UNL d   1     -49.876  12.683  23.012  0.00  0.00    -0.273 N 
ATOM      2  C   UNL d   1     -50.234  13.706  22.879  0.00  0.00     0.265 A 
ATOM      3  C   UNL d   1     -49.084  12.763  22.991  0.00  0.00     0.067 A 
ATOM      4  C   UNL d   1     -48.913  13.579  22.879  0.00  0.00     0.021 A 
ATOM      5  C   UNL d   1     -49.530  14.123  22.813  0.00  0.00     0.058 A 
ATOM      6  C   UNL d   1     -47.498  13.285  22.900  0.00  0.00     0.105 A 
ATOM      7  C   UNL d   1     -48.124  13.831  22.834  0.00  0.00     0.014 A 
ATOM      8  C   UNL d   1     -48.455  12.251  23.052  0.00  0.00     0.018 A 
ATOM      9  C   UNL d   1     -47.643  12.498  23.008  0.00  0.00     0.014 A 
ATOM     10  O   UNL d   1     -50.964  14.068  22.839  0.00  0.00    -0.267 OA
ATOM     11  C   UNL d   1     -49.366  14.905  22.705  0.00  0.00     0.005 A 
ATOM     12  C   UNL d   1     -47.960  14.614  22.727  0.00  0.00     0.001 A 
ATOM     13  C   UNL d   1     -48.581  15.159  22.661  0.00  0.00     0.000 A 
ENDROOT
BRANCH   6  14
ATOM     14  S   UNL d   1     -46.721  13.505  22.860  0.00  0.00     0.287 S 
ATOM     15  O   UNL d   1     -46.746  13.530  22.062  0.00  0.00    -0.198 OA
ATOM     16  O   UNL d   1     -46.683  13.483  23.690  0.00  0.00    -0.198 OA
BRANCH  14  17
ATOM     17  N   UNL d   1     -45.918  13.732  22.855  0.00  0.00    -0.139 NA
BRANCH  17  18
ATOM     18  C   UNL d   1     -45.344  13.212  22.578  0.00  0.00     0.175 A 
ATOM     19  N   UNL d   1     -45.176  12.504  22.990  0.00  0.00    -0.225 NA
ATOM     20  C   UNL d   1     -44.590  11.987  22.695  0.00  0.00     0.101 A 
ATOM     21  C   UNL d   1     -44.186  12.180  22.002  0.00  0.00     0.021 A 
ATOM     22  C   UNL d   1     -44.343  12.869  21.593  0.00  0.00     0.005 A 
ATOM     23  C   UNL d   1     -44.929  13.389  21.886  0.00  0.00     0.040 A 
ENDBRANCH  17  18
ENDBRANCH  14  17
ENDBRANCH   6  14
BRANCH   1  24
ATOM     24  C   UNL d   1     -50.204  11.939  23.117  0.00  0.00     0.083 C 
ATOM     25  C   UNL d   1     -50.806  11.835  23.692  0.00  0.00     0.021 C 
ENDBRANCH   1  24
TORSDOF 4
ENDMDL
MODEL 3
REMARK VINA RESULT:      -7.6      1.557      2.481
REMARK  4 active torsions:
REMARK  status: ('A' for Active; 'I' for Inactive)
REMARK    1  A    between atoms: N_7  and  S_1 
REMARK    2  A    between atoms: C_8  and  S_1 
REMARK    3  A    between atoms: C_17  and  N_2 
REMARK    4  A    between atoms: C_14  and  N_7 
ROOT
ATOM      1  N   UNL d   1     -44.801  11.068  23.282  0.00  0.00    -0.273 N 
ATOM      2  C   UNL d   1     -44.188  11.740  22.677  0.00  0.00     0.265 A 
ATOM      3  C   UNL d   1     -45.519  11.413  23.268  0.00  0.00     0.067 A 
ATOM      4  C   UNL d   1     -45.457  12.112  22.805  0.00  0.00     0.021 A 
ATOM      5  C   UNL d   1     -44.732  12.318  22.466  0.00  0.00     0.058 A 
ATOM      6  C   UNL d   1     -46.857  12.388  23.033  0.00  0.00     0.105 A 
ATOM      7  C   UNL d   1     -46.124  12.591  22.692  0.00  0.00     0.014 A 
ATOM      8  C   UNL d   1     -46.244  11.237  23.589  0.00  0.00     0.018 A 
ATOM      9  C   UNL d   1     -46.935  11.721  23.480  0.00  0.00     0.014 A 
ATOM     10  O   UNL d   1     -43.409  11.763  22.438  0.00  0.00    -0.267 OA
ATOM     11  C   UNL d   1     -44.673  12.989  22.021  0.00  0.00     0.005 A 
ATOM     12  C   UNL d   1     -46.064  13.262  22.248  0.00  0.00     0.001 A 
ATOM     13  C   UNL d   1     -45.336  13.467  21.908  0.00  0.00     0.000 A 
ENDROOT
BRANCH   6  14
ATOM     14  S   UNL d   1     -47.522  12.838  22.938  0.00  0.00     0.287 S 
ATOM     15  O   UNL d   1     -47.647  12.538  22.208  0.00  0.00    -0.198 OA
ATOM     16  O   UNL d   1     -47.402  13.156  23.695  0.00  0.00    -0.198 OA
BRANCH  14  17
ATOM     17  N   UNL d   1     -48.203  13.316  22.873  0.00  0.00    -0.139 NA
BRANCH  17  18
ATOM     18  C   UNL d   1     -48.949  12.970  22.848  0.00  0.00     0.175 A 
ATOM     19  N   UNL d   1     -49.371  12.817  23.553  0.00  0.00    -0.225 NA
ATOM     20  C   UNL d   1     -50.127  12.466  23.510  0.00  0.00     0.101 A 
ATOM     21  C   UNL d   1     -50.449  12.274  22.775  0.00  0.00     0.021 A 
ATOM     22  C   UNL d   1     -50.043  12.420  22.081  0.00  0.00     0.005 A 
ATOM     23  C   UNL d   1     -49.286  12.772  22.120  0.00  0.00     0.040 A 
ENDBRANCH  17  18
ENDBRANCH  14  17
ENDBRANCH   6  14
BRANCH   1  24
ATOM     24  C   UNL d   1     -44.697  10.369  23.697  0.00  0.00     0.083 C 
ATOM     25  C   UNL d   1     -43.960   9.969  23.647  0.00  0.00     0.021 C 
ENDBRANCH   1  24
TORSDOF 4
ENDMDL
MODEL 4
REMARK VINA RESULT:      -7.4      1.242      4.220
REMARK  4 active torsions:
REMARK  status: ('A' for Active; 'I' for Inactive)
REMARK    1  A    between atoms: N_7  and  S_1 
REMARK    2  A    between atoms: C_8  and  S_1 
REMARK    3  A    between atoms: C_17  and  N_2 
REMARK    4  A    between atoms: C_14  and  N_7 
ROOT
ATOM      1  N   UNL d   1     -49.950  13.513  22.262  0.00  0.00    -0.273 N 
ATOM      2  C   UNL d   1     -50.329  12.607  22.738  0.00  0.00     0.265 A 
ATOM      3  C   UNL d   1     -49.167  13.482  22.407  0.00  0.00     0.067 A 
ATOM      4  C   UNL d   1     -49.017  12.781  22.846  0.00  0.00     0.021 A 
ATOM      5  C   UNL d   1     -49.642  12.278  23.044  0.00  0.00     0.058 A 
ATOM      6  C   UNL d   1     -47.609  13.104  22.882  0.00  0.00     0.105 A 
ATOM      7  C   UNL d   1     -48.243  12.599  23.079  0.00  0.00     0.014 A 
ATOM      8  C   UNL d   1     -48.533  13.957  22.227  0.00  0.00     0.018 A 
ATOM      9  C   UNL d   1     -47.734  13.781  22.460  0.00  0.00     0.014 A 
ATOM     10  O   UNL d   1     -51.060  12.257  22.828  0.00  0.00    -0.267 OA
ATOM     11  C   UNL d   1     -49.498  11.606  23.465  0.00  0.00     0.005 A 
ATOM     12  C   UNL d   1     -48.099  11.926  23.500  0.00  0.00     0.001 A 
ATOM     13  C   UNL d   1     -48.727  11.423  23.698  0.00  0.00     0.000 A 
ENDROOT
BRANCH   6  14
ATOM     14  S   UNL d   1     -46.846  12.949  23.096  0.00  0.00     0.287 S 
ATOM     15  O   UNL d   1     -46.806  12.330  22.593  0.00  0.00    -0.198 OA
ATOM     16  O   UNL d   1     -46.874  13.591  23.623  0.00  0.00    -0.198 OA
BRANCH  14  17
ATOM     17  N   UNL d   1     -46.058  12.817  23.340  0.00  0.00    -0.139 NA
BRANCH  17  18
ATOM     18  C   UNL d   1     -45.445  12.849  22.793  0.00  0.00     0.175 A 
ATOM     19  N   UNL d   1     -45.288  13.553  22.370  0.00  0.00    -0.225 NA
ATOM     20  C   UNL d   1     -44.662  13.568  21.818  0.00  0.00     0.101 A 
ATOM     21  C   UNL d   1     -44.207  12.891  21.696  0.00  0.00     0.021 A 
ATOM     22  C   UNL d   1     -44.354  12.199  22.104  0.00  0.00     0.005 A 
ATOM     23  C   UNL d   1     -44.980  12.180  22.658  0.00  0.00     0.040 A 
ENDBRANCH  17  18
ENDBRANCH  14  17
ENDBRANCH   6  14
BRANCH   1  24
ATOM     24  C   UNL d   1     -50.257  14.145  21.838  0.00  0.00     0.083 C 
ATOM     25  C   UNL d   1     -51.013  14.446  22.044  0.00  0.00     0.021 C 
ENDBRANCH   1  24
TORSDOF 4
ENDMDL
MODEL 5
REMARK VINA RESULT:      -6.1      8.806      9.947
REMARK  4 active torsions:
REMARK  status: ('A' for Active; 'I' for Inactive)
REMARK    1  A    between atoms: N_7  and  S_1 
REMARK    2  A    between atoms: C_8  and  S_1 
REMARK    3  A    between atoms: C_17  and  N_2 
REMARK    4  A    between atoms: C_14  and  N_7 
ROOT
ATOM      1  N   UNL d   1     -39.392  14.208  17.414  0.00  0.00    -0.273 N 
ATOM      2  C   UNL d   1     -40.158  14.939  17.145  0.00  0.00     0.265 A 
ATOM      3  C   UNL d   1     -39.376  14.244  18.210  0.00  0.00     0.067 A 
ATOM      4  C   UNL d   1     -39.945  14.816  18.450  0.00  0.00     0.021 A 
ATOM      5  C   UNL d   1     -40.391  15.215  17.882  0.00  0.00     0.058 A 
ATOM      6  C   UNL d   1     -39.604  14.573  19.833  0.00  0.00     0.105 A 
ATOM      7  C   UNL d   1     -40.053  14.974  19.256  0.00  0.00     0.014 A 
ATOM      8  C   UNL d   1     -38.952  13.867  18.791  0.00  0.00     0.018 A 
ATOM      9  C   UNL d   1     -39.054  14.021  19.621  0.00  0.00     0.014 A 
ATOM     10  O   UNL d   1     -40.484  15.213  16.450  0.00  0.00    -0.267 OA
ATOM     11  C   UNL d   1     -40.937  15.763  18.112  0.00  0.00     0.005 A 
ATOM     12  C   UNL d   1     -40.599  15.522  19.487  0.00  0.00     0.001 A 
ATOM     13  C   UNL d   1     -41.046  15.922  18.915  0.00  0.00     0.000 A 
ENDROOT
BRANCH   6  14
ATOM     14  S   UNL d   1     -39.691  14.709  20.625  0.00  0.00     0.287 S 
ATOM     15  O   UNL d   1     -39.136  15.283  20.610  0.00  0.00    -0.198 OA
ATOM     16  O   UNL d   1     -40.269  14.114  20.654  0.00  0.00    -0.198 OA
BRANCH  14  17
ATOM     17  N   UNL d   1     -39.805  14.823  21.444  0.00  0.00    -0.139 NA
BRANCH  17  18
ATOM     18  C   UNL d   1     -39.289  14.480  21.985  0.00  0.00     0.175 A 
ATOM     19  N   UNL d   1     -39.366  13.675  22.195  0.00  0.00    -0.225 NA
ATOM     20  C   UNL d   1     -38.835  13.342  22.745  0.00  0.00     0.101 A 
ATOM     21  C   UNL d   1     -38.240  13.809  23.075  0.00  0.00     0.021 A 
ATOM     22  C   UNL d   1     -38.158  14.597  22.876  0.00  0.00     0.005 A 
ATOM     23  C   UNL d   1     -38.689  14.934  22.325  0.00  0.00     0.040 A 
ENDBRANCH  17  18
ENDBRANCH  14  17
ENDBRANCH   6  14
BRANCH   1  24
ATOM     24  C   UNL d   1     -38.889  13.691  17.023  0.00  0.00     0.083 C 
ATOM     25  C   UNL d   1     -38.593  13.902  16.266  0.00  0.00     0.021 C 
ENDBRANCH   1  24
TORSDOF 4
ENDMDL
