MODEL 1
REMARK VINA RESULT:      -4.8      0.000      0.000
REMARK  3 active torsions:
REMARK  status: ('A' for Active; 'I' for Inactive)
REMARK    1  A    between atoms: N_5  and  C_1 
REMARK    2  A    between atoms: C_2  and  C_6 
REMARK       I    between atoms: C_11  and  N_5 
REMARK    3  A    between atoms: C_9  and  C_11 
ROOT
ATOM      1  C   UNL d   1      57.874  -0.700  30.422  0.00  0.00     0.053 A 
ATOM      2  S   UNL d   1      58.222  -0.093  29.979  0.00  0.00    -0.080 SA
ATOM      3  C   UNL d   1      58.615  -0.444  29.339  0.00  0.00     0.087 A 
ATOM      4  C   UNL d   1      58.051  -1.419  30.060  0.00  0.00     0.009 A 
ATOM      5  C   UNL d   1      58.510  -1.263  29.389  0.00  0.00     0.012 A 
ENDROOT
BRANCH   3   6
ATOM      6  C   UNL d   1      59.039  -0.042  28.753  0.00  0.00     0.287 C 
ATOM      7  N   UNL d   1      59.737  -0.367  28.460  0.00  0.00    -0.182 NA
ATOM      8  O   UNL d   1      58.762   0.682  28.465  0.00  0.00    -0.265 OA
BRANCH   7   9
ATOM      9  C   UNL d   1      60.015  -1.094  28.750  0.00  0.00     0.197 A 
ATOM     10  N   UNL d   1      60.541  -1.195  29.377  0.00  0.00    -0.221 NA
ATOM     11  C   UNL d   1      60.661  -2.000  29.472  0.00  0.00     0.090 A 
ATOM     12  C   UNL d   1      61.124  -2.419  30.004  0.00  0.00     0.020 A 
ATOM     13  C   UNL d   1      60.210  -2.383  28.905  0.00  0.00     0.050 A 
ATOM     14  C   UNL d   1      61.133  -3.235  29.963  0.00  0.00     0.002 A 
ATOM     15  C   UNL d   1      60.690  -3.635  29.405  0.00  0.00     0.001 A 
ATOM     16  C   UNL d   1      60.221  -3.223  28.866  0.00  0.00     0.008 A 
ATOM     17  C   UNL d   1      60.703  -4.461  29.370  0.00  0.00     0.000 C 
ATOM     18  S   UNL d   1      59.810  -1.830  28.458  0.00  0.00    -0.047 SA
ENDBRANCH   7   9
ENDBRANCH   3   6
BRANCH   1  19
ATOM     19  C   UNL d   1      57.426  -0.600  31.110  0.00  0.00     0.117 A 
ATOM     20  N   UNL d   1      56.919  -1.162  31.438  0.00  0.00    -0.238 NA
ATOM     21  C   UNL d   1      56.587  -0.828  32.122  0.00  0.00     0.088 A 
ATOM     22  C   UNL d   1      56.049  -1.123  32.671  0.00  0.00     0.020 A 
ATOM     23  C   UNL d   1      56.892  -0.065  32.209  0.00  0.00     0.049 A 
ATOM     24  C   UNL d   1      55.817  -0.656  33.306  0.00  0.00     0.002 A 
ATOM     25  C   UNL d   1      56.122   0.108  33.393  0.00  0.00     0.001 A 
ATOM     26  C   UNL d   1      56.659   0.403  32.846  0.00  0.00     0.008 A 
ATOM     27  S   UNL d   1      57.413   0.074  31.579  0.00  0.00    -0.066 SA
ENDBRANCH   1  19
TORSDOF 3
ENDMDL
MODEL 2
REMARK VINA RESULT:      -3.8      1.487      4.483
REMARK  3 active torsions:
REMARK  status: ('A' for Active; 'I' for Inactive)
REMARK    1  A    between atoms: N_5  and  C_1 
REMARK    2  A    between atoms: C_2  and  C_6 
REMARK       I    between atoms: C_11  and  N_5 
REMARK    3  A    between atoms: C_9  and  C_11 
ROOT
ATOM      1  C   UNL d   1      59.252  -1.587  28.730  0.00  0.00     0.053 A 
ATOM      2  S   UNL d   1      59.894  -1.193  29.073  0.00  0.00    -0.080 SA
ATOM      3  C   UNL d   1      59.751  -0.379  29.014  0.00  0.00     0.087 A 
ATOM      4  C   UNL d   1      58.717  -1.021  28.460  0.00  0.00     0.009 A 
ATOM      5  C   UNL d   1      59.024  -0.272  28.636  0.00  0.00     0.012 A 
ENDROOT
BRANCH   3   6
ATOM      6  C   UNL d   1      60.251   0.221  29.288  0.00  0.00     0.287 C 
ATOM      7  N   UNL d   1      60.021   0.682  29.930  0.00  0.00    -0.182 NA
ATOM      8  O   UNL d   1      60.978   0.355  28.917  0.00  0.00    -0.265 OA
BRANCH   7   9
ATOM      9  C   UNL d   1      59.290   0.547  30.303  0.00  0.00     0.197 A 
ATOM     10  N   UNL d   1      58.547   0.682  29.971  0.00  0.00    -0.221 NA
ATOM     11  C   UNL d   1      57.985   0.473  30.531  0.00  0.00     0.090 A 
ATOM     12  C   UNL d   1      57.166   0.491  30.507  0.00  0.00     0.020 A 
ATOM     13  C   UNL d   1      58.388   0.214  31.196  0.00  0.00     0.050 A 
ATOM     14  C   UNL d   1      56.746   0.244  31.163  0.00  0.00     0.002 A 
ATOM     15  C   UNL d   1      57.129  -0.019  31.836  0.00  0.00     0.001 A 
ATOM     16  C   UNL d   1      57.953  -0.040  31.870  0.00  0.00     0.008 A 
ATOM     17  C   UNL d   1      56.698  -0.267  32.496  0.00  0.00     0.000 C 
ATOM     18  S   UNL d   1      59.191   0.257  31.061  0.00  0.00    -0.047 SA
ENDBRANCH   7   9
ENDBRANCH   3   6
BRANCH   1  19
ATOM     19  C   UNL d   1      59.164  -2.407  28.668  0.00  0.00     0.117 A 
ATOM     20  N   UNL d   1      59.781  -2.954  28.649  0.00  0.00    -0.238 NA
ATOM     21  C   UNL d   1      59.441  -3.709  28.583  0.00  0.00     0.088 A 
ATOM     22  C   UNL d   1      59.776  -4.460  28.541  0.00  0.00     0.020 A 
ATOM     23  C   UNL d   1      58.620  -3.619  28.562  0.00  0.00     0.049 A 
ATOM     24  C   UNL d   1      59.291  -5.120  28.477  0.00  0.00     0.002 A 
ATOM     25  C   UNL d   1      58.469  -5.030  28.455  0.00  0.00     0.001 A 
ATOM     26  C   UNL d   1      58.134  -4.281  28.498  0.00  0.00     0.008 A 
ATOM     27  S   UNL d   1      58.451  -2.809  28.614  0.00  0.00    -0.066 SA
ENDBRANCH   1  19
TORSDOF 3
ENDMDL
MODEL 3
REMARK VINA RESULT:      -2.7      1.194      4.701
REMARK  3 active torsions:
REMARK  status: ('A' for Active; 'I' for Inactive)
REMARK    1  A    between atoms: N_5  and  C_1 
REMARK    2  A    between atoms: C_2  and  C_6 
REMARK       I    between atoms: C_11  and  N_5 
REMARK    3  A    between atoms: C_9  and  C_11 
ROOT
ATOM      1  C   UNL d   1      59.030  -1.636  29.503  0.00  0.00     0.053 A 
ATOM      2  S   UNL d   1      58.675  -1.060  29.026  0.00  0.00    -0.080 SA
ATOM      3  C   UNL d   1      58.544  -0.390  29.496  0.00  0.00     0.087 A 
ATOM      4  C   UNL d   1      59.117  -1.325  30.261  0.00  0.00     0.009 A 
ATOM      5  C   UNL d   1      58.817  -0.554  30.259  0.00  0.00     0.012 A 
ENDROOT
BRANCH   3   6
ATOM      6  C   UNL d   1      58.199   0.318  29.243  0.00  0.00     0.287 C 
ATOM      7  N   UNL d   1      57.626   0.682  29.709  0.00  0.00    -0.182 NA
ATOM      8  O   UNL d   1      58.431   0.658  28.525  0.00  0.00    -0.265 OA
BRANCH   7   9
ATOM      9  C   UNL d   1      57.394   0.341  30.430  0.00  0.00     0.197 A 
ATOM     10  N   UNL d   1      56.986  -0.371  30.518  0.00  0.00    -0.221 NA
ATOM     11  C   UNL d   1      56.873  -0.494  31.321  0.00  0.00     0.090 A 
ATOM     12  C   UNL d   1      56.506  -1.102  31.729  0.00  0.00     0.020 A 
ATOM     13  C   UNL d   1      57.212   0.141  31.715  0.00  0.00     0.050 A 
ATOM     14  C   UNL d   1      56.480  -1.072  32.545  0.00  0.00     0.002 A 
ATOM     15  C   UNL d   1      56.812  -0.448  32.956  0.00  0.00     0.001 A 
ATOM     16  C   UNL d   1      57.183   0.169  32.555  0.00  0.00     0.008 A 
ATOM     17  C   UNL d   1      56.781  -0.424  33.782  0.00  0.00     0.000 C 
ATOM     18  S   UNL d   1      57.534   0.657  31.171  0.00  0.00    -0.047 SA
ENDBRANCH   7   9
ENDBRANCH   3   6
BRANCH   1  19
ATOM     19  C   UNL d   1      59.257  -2.393  29.259  0.00  0.00     0.117 A 
ATOM     20  N   UNL d   1      58.744  -3.020  29.102  0.00  0.00    -0.238 NA
ATOM     21  C   UNL d   1      59.208  -3.669  28.875  0.00  0.00     0.088 A 
ATOM     22  C   UNL d   1      59.008  -4.438  28.655  0.00  0.00     0.020 A 
ATOM     23  C   UNL d   1      60.002  -3.437  28.895  0.00  0.00     0.049 A 
ATOM     24  C   UNL d   1      59.599  -4.972  28.455  0.00  0.00     0.002 A 
ATOM     25  C   UNL d   1      60.393  -4.740  28.475  0.00  0.00     0.001 A 
ATOM     26  C   UNL d   1      60.594  -3.974  28.694  0.00  0.00     0.008 A 
ATOM     27  S   UNL d   1      60.029  -2.644  29.133  0.00  0.00    -0.066 SA
ENDBRANCH   1  19
TORSDOF 3
ENDMDL
