MODEL 1
REMARK VINA RESULT:      -7.0      0.000      0.000
REMARK  6 active torsions:
REMARK  status: ('A' for Active; 'I' for Inactive)
REMARK    1  A    between atoms: C_7  and  C_1 
REMARK    2  A    between atoms: N_6  and  C_3 
REMARK    3  A    between atoms: N_8  and  N_6 
REMARK    4  A    between atoms: O_12  and  C_7 
REMARK    5  A    between atoms: C_9  and  N_8 
REMARK    6  A    between atoms: C_18  and  O_12 
ROOT
ATOM      1  C   UNL d   1      52.462  33.394  53.316  0.00  0.00     0.084 A 
ATOM      2  N   UNL d   1      51.280  33.050  52.924  0.00  0.00    -0.225 NA
ATOM      3  C   UNL d   1      51.267  33.863  53.031  0.00  0.00     0.184 A 
ATOM      4  C   UNL d   1      52.031  32.761  53.104  0.00  0.00     0.088 A 
ATOM      5  C   UNL d   1      52.024  34.076  53.281  0.00  0.00     0.044 A 
ATOM      6  C   UNL d   1      52.326  31.984  53.084  0.00  0.00     0.021 C 
ATOM      7  C   UNL d   1      52.273  34.845  53.459  0.00  0.00     0.003 C 
ENDROOT
BRANCH   3   8
ATOM      8  N   UNL d   1      50.692  34.427  52.940  0.00  0.00    -0.129 NA
BRANCH   8   9
ATOM      9  N   UNL d   1      50.052  34.320  52.420  0.00  0.00    -0.147 NA
BRANCH   9  10
ATOM     10  C   UNL d   1      49.373  34.810  52.430  0.00  0.00     0.103 A 
ATOM     11  C   UNL d   1      48.892  34.883  51.769  0.00  0.00     0.019 A 
ATOM     12  C   UNL d   1      49.082  34.446  51.033  0.00  0.00     0.002 C 
ATOM     13  C   UNL d   1      48.231  35.359  51.778  0.00  0.00     0.002 A 
ATOM     14  C   UNL d   1      48.051  35.767  52.460  0.00  0.00     0.000 A 
ATOM     15  C   UNL d   1      48.500  35.717  53.123  0.00  0.00     0.002 A 
ATOM     16  C   UNL d   1      49.161  35.237  53.104  0.00  0.00     0.021 A 
ENDBRANCH   9  10
ENDBRANCH   8   9
ENDBRANCH   3   8
BRANCH   1  17
ATOM     17  C   UNL d   1      53.279  33.331  53.546  0.00  0.00     0.302 C 
ATOM     18  O   UNL d   1      53.860  33.317  52.930  0.00  0.00    -0.259 OA
BRANCH  17  19
ATOM     19  O   UNL d   1      53.484  33.287  54.334  0.00  0.00    -0.271 OA
BRANCH  19  20
ATOM     20  C   UNL d   1      54.295  33.204  54.536  0.00  0.00     0.126 C 
ATOM     21  C   UNL d   1      54.516  33.212  55.348  0.00  0.00     0.029 C 
ENDBRANCH  19  20
ENDBRANCH  17  19
ENDBRANCH   1  17
TORSDOF 6
ENDMDL
MODEL 2
REMARK VINA RESULT:      -6.7      2.386      3.639
REMARK  6 active torsions:
REMARK  status: ('A' for Active; 'I' for Inactive)
REMARK    1  A    between atoms: C_7  and  C_1 
REMARK    2  A    between atoms: N_6  and  C_3 
REMARK    3  A    between atoms: N_8  and  N_6 
REMARK    4  A    between atoms: O_12  and  C_7 
REMARK    5  A    between atoms: C_9  and  N_8 
REMARK    6  A    between atoms: C_18  and  O_12 
ROOT
ATOM      1  C   UNL d   1      53.334  30.544  53.495  0.00  0.00     0.084 A 
ATOM      2  N   UNL d   1      52.727  31.389  52.728  0.00  0.00    -0.225 NA
ATOM      3  C   UNL d   1      53.144  31.827  53.281  0.00  0.00     0.184 A 
ATOM      4  C   UNL d   1      52.848  30.584  52.867  0.00  0.00     0.088 A 
ATOM      5  C   UNL d   1      53.529  31.283  53.766  0.00  0.00     0.044 A 
ATOM      6  C   UNL d   1      52.552  29.920  52.465  0.00  0.00     0.021 C 
ATOM      7  C   UNL d   1      54.019  31.471  54.407  0.00  0.00     0.003 C 
ENDROOT
BRANCH   3   8
ATOM      8  N   UNL d   1      53.229  32.623  53.410  0.00  0.00    -0.129 NA
BRANCH   8   9
ATOM      9  N   UNL d   1      52.662  33.173  53.149  0.00  0.00    -0.147 NA
BRANCH   9  10
ATOM     10  C   UNL d   1      52.632  33.961  53.428  0.00  0.00     0.103 A 
ATOM     11  C   UNL d   1      51.991  34.446  53.262  0.00  0.00     0.019 A 
ATOM     12  C   UNL d   1      51.319  34.145  52.787  0.00  0.00     0.002 C 
ATOM     13  C   UNL d   1      51.961  35.214  53.533  0.00  0.00     0.002 A 
ATOM     14  C   UNL d   1      52.584  35.498  53.976  0.00  0.00     0.000 A 
ATOM     15  C   UNL d   1      53.225  35.050  54.155  0.00  0.00     0.002 A 
ATOM     16  C   UNL d   1      53.245  34.281  53.878  0.00  0.00     0.021 A 
ENDBRANCH   9  10
ENDBRANCH   8   9
ENDBRANCH   3   8
BRANCH   1  17
ATOM     17  C   UNL d   1      53.597  29.802  53.818  0.00  0.00     0.302 C 
ATOM     18  O   UNL d   1      54.297  29.458  53.490  0.00  0.00    -0.259 OA
BRANCH  17  19
ATOM     19  O   UNL d   1      53.183  29.444  54.422  0.00  0.00    -0.271 OA
BRANCH  19  20
ATOM     20  C   UNL d   1      53.494  28.745  54.766  0.00  0.00     0.126 C 
ATOM     21  C   UNL d   1      53.176  28.473  55.497  0.00  0.00     0.029 C 
ENDBRANCH  19  20
ENDBRANCH  17  19
ENDBRANCH   1  17
TORSDOF 6
ENDMDL
MODEL 3
REMARK VINA RESULT:      -6.1      2.160      4.695
REMARK  6 active torsions:
REMARK  status: ('A' for Active; 'I' for Inactive)
REMARK    1  A    between atoms: C_7  and  C_1 
REMARK    2  A    between atoms: N_6  and  C_3 
REMARK    3  A    between atoms: N_8  and  N_6 
REMARK    4  A    between atoms: O_12  and  C_7 
REMARK    5  A    between atoms: C_9  and  N_8 
REMARK    6  A    between atoms: C_18  and  O_12 
ROOT
ATOM      1  C   UNL d   1      52.784  33.759  53.385  0.00  0.00     0.084 A 
ATOM      2  N   UNL d   1      52.194  32.656  53.062  0.00  0.00    -0.225 NA
ATOM      3  C   UNL d   1      52.891  32.450  53.439  0.00  0.00     0.184 A 
ATOM      4  C   UNL d   1      52.131  33.478  53.030  0.00  0.00     0.088 A 
ATOM      5  C   UNL d   1      53.263  33.158  53.642  0.00  0.00     0.044 A 
ATOM      6  C   UNL d   1      51.534  33.959  52.709  0.00  0.00     0.021 C 
ATOM      7  C   UNL d   1      53.989  33.224  54.036  0.00  0.00     0.003 C 
ENDROOT
BRANCH   3   8
ATOM      8  N   UNL d   1      53.236  31.739  53.623  0.00  0.00    -0.129 NA
BRANCH   8   9
ATOM      9  N   UNL d   1      52.937  31.020  53.331  0.00  0.00    -0.147 NA
BRANCH   9  10
ATOM     10  C   UNL d   1      53.069  30.286  53.713  0.00  0.00     0.103 A 
ATOM     11  C   UNL d   1      52.989  29.576  53.308  0.00  0.00     0.019 A 
ATOM     12  C   UNL d   1      52.761  29.573  52.461  0.00  0.00     0.002 C 
ATOM     13  C   UNL d   1      53.117  28.862  53.679  0.00  0.00     0.002 A 
ATOM     14  C   UNL d   1      53.328  28.861  54.465  0.00  0.00     0.000 A 
ATOM     15  C   UNL d   1      53.415  29.537  54.889  0.00  0.00     0.002 A 
ATOM     16  C   UNL d   1      53.284  30.248  54.508  0.00  0.00     0.021 A 
ENDBRANCH   9  10
ENDBRANCH   8   9
ENDBRANCH   3   8
BRANCH   1  17
ATOM     17  C   UNL d   1      52.933  34.592  53.468  0.00  0.00     0.302 C 
ATOM     18  O   UNL d   1      53.185  35.017  52.780  0.00  0.00    -0.259 OA
BRANCH  17  19
ATOM     19  O   UNL d   1      52.833  34.961  54.189  0.00  0.00    -0.271 OA
BRANCH  19  20
ATOM     20  C   UNL d   1      53.023  35.776  54.256  0.00  0.00     0.126 C 
ATOM     21  C   UNL d   1      52.927  36.157  55.001  0.00  0.00     0.029 C 
ENDBRANCH  19  20
ENDBRANCH  17  19
ENDBRANCH   1  17
TORSDOF 6
ENDMDL
MODEL 4
REMARK VINA RESULT:      -6.1      1.780      4.732
REMARK  6 active torsions:
REMARK  status: ('A' for Active; 'I' for Inactive)
REMARK    1  A    between atoms: C_7  and  C_1 
REMARK    2  A    between atoms: N_6  and  C_3 
REMARK    3  A    between atoms: N_8  and  N_6 
REMARK    4  A    between atoms: O_12  and  C_7 
REMARK    5  A    between atoms: C_9  and  N_8 
REMARK    6  A    between atoms: C_18  and  O_12 
ROOT
ATOM      1  C   UNL d   1      50.464  34.310  52.496  0.00  0.00     0.084 A 
ATOM      2  N   UNL d   1      51.710  34.104  52.220  0.00  0.00    -0.225 NA
ATOM      3  C   UNL d   1      51.622  33.976  53.024  0.00  0.00     0.184 A 
ATOM      4  C   UNL d   1      50.982  34.314  51.893  0.00  0.00     0.088 A 
ATOM      5  C   UNL d   1      50.825  34.109  53.194  0.00  0.00     0.044 A 
ATOM      6  C   UNL d   1      50.779  34.498  51.109  0.00  0.00     0.021 C 
ATOM      7  C   UNL d   1      50.476  34.044  53.942  0.00  0.00     0.003 C 
ENDROOT
BRANCH   3   8
ATOM      8  N   UNL d   1      52.136  33.762  53.614  0.00  0.00    -0.129 NA
BRANCH   8   9
ATOM      9  N   UNL d   1      52.869  33.406  53.448  0.00  0.00    -0.147 NA
BRANCH   9  10
ATOM     10  C   UNL d   1      53.486  33.355  54.011  0.00  0.00     0.103 A 
ATOM     11  C   UNL d   1      53.931  32.670  54.092  0.00  0.00     0.019 A 
ATOM     12  C   UNL d   1      53.767  31.973  53.586  0.00  0.00     0.002 C 
ATOM     13  C   UNL d   1      54.532  32.619  54.640  0.00  0.00     0.002 A 
ATOM     14  C   UNL d   1      54.688  33.265  55.111  0.00  0.00     0.000 A 
ATOM     15  C   UNL d   1      54.272  33.949  55.057  0.00  0.00     0.002 A 
ATOM     16  C   UNL d   1      53.671  33.989  54.504  0.00  0.00     0.021 A 
ENDBRANCH   9  10
ENDBRANCH   8   9
ENDBRANCH   3   8
BRANCH   1  17
ATOM     17  C   UNL d   1      49.642  34.499  52.390  0.00  0.00     0.302 C 
ATOM     18  O   UNL d   1      49.175  33.969  51.922  0.00  0.00    -0.259 OA
BRANCH  17  19
ATOM     19  O   UNL d   1      49.323  35.167  52.732  0.00  0.00    -0.271 OA
BRANCH  19  20
ATOM     20  C   UNL d   1      48.520  35.356  52.576  0.00  0.00     0.126 C 
ATOM     21  C   UNL d   1      48.174  36.017  52.968  0.00  0.00     0.029 C 
ENDBRANCH  19  20
ENDBRANCH  17  19
ENDBRANCH   1  17
TORSDOF 6
ENDMDL
MODEL 5
REMARK VINA RESULT:      -6.0      2.436      5.226
REMARK  6 active torsions:
REMARK  status: ('A' for Active; 'I' for Inactive)
REMARK    1  A    between atoms: C_7  and  C_1 
REMARK    2  A    between atoms: N_6  and  C_3 
REMARK    3  A    between atoms: N_8  and  N_6 
REMARK    4  A    between atoms: O_12  and  C_7 
REMARK    5  A    between atoms: C_9  and  N_8 
REMARK    6  A    between atoms: C_18  and  O_12 
ROOT
ATOM      1  C   UNL d   1      48.209  35.636  52.525  0.00  0.00     0.084 A 
ATOM      2  N   UNL d   1      49.114  35.471  53.432  0.00  0.00    -0.225 NA
ATOM      3  C   UNL d   1      49.321  34.991  52.801  0.00  0.00     0.184 A 
ATOM      4  C   UNL d   1      48.416  35.874  53.254  0.00  0.00     0.088 A 
ATOM      5  C   UNL d   1      48.740  35.101  52.226  0.00  0.00     0.044 A 
ATOM      6  C   UNL d   1      47.982  36.421  53.705  0.00  0.00     0.021 C 
ATOM      7  C   UNL d   1      48.717  34.727  51.488  0.00  0.00     0.003 C 
ENDROOT
BRANCH   3   8
ATOM      8  N   UNL d   1      49.938  34.482  52.668  0.00  0.00    -0.129 NA
BRANCH   8   9
ATOM      9  N   UNL d   1      50.659  34.552  53.076  0.00  0.00    -0.147 NA
BRANCH   9  10
ATOM     10  C   UNL d   1      51.235  33.945  53.087  0.00  0.00     0.103 A 
ATOM     11  C   UNL d   1      52.036  34.119  53.136  0.00  0.00     0.019 A 
ATOM     12  C   UNL d   1      52.306  34.952  53.177  0.00  0.00     0.002 C 
ATOM     13  C   UNL d   1      52.596  33.528  53.147  0.00  0.00     0.002 A 
ATOM     14  C   UNL d   1      52.350  32.753  53.109  0.00  0.00     0.000 A 
ATOM     15  C   UNL d   1      51.575  32.549  53.060  0.00  0.00     0.002 A 
ATOM     16  C   UNL d   1      51.021  33.149  53.050  0.00  0.00     0.021 A 
ENDBRANCH   9  10
ENDBRANCH   8   9
ENDBRANCH   3   8
BRANCH   1  17
ATOM     17  C   UNL d   1      47.511  35.926  52.134  0.00  0.00     0.302 C 
ATOM     18  O   UNL d   1      47.580  36.643  51.689  0.00  0.00    -0.259 OA
BRANCH  17  19
ATOM     19  O   UNL d   1      46.806  35.520  52.191  0.00  0.00    -0.271 OA
BRANCH  19  20
ATOM     20  C   UNL d   1      46.131  35.827  51.797  0.00  0.00     0.126 C 
ATOM     21  C   UNL d   1      45.408  35.397  51.834  0.00  0.00     0.029 C 
ENDBRANCH  19  20
ENDBRANCH  17  19
ENDBRANCH   1  17
TORSDOF 6
ENDMDL
MODEL 6
REMARK VINA RESULT:      -6.0      1.623      2.542
REMARK  6 active torsions:
REMARK  status: ('A' for Active; 'I' for Inactive)
REMARK    1  A    between atoms: C_7  and  C_1 
REMARK    2  A    between atoms: N_6  and  C_3 
REMARK    3  A    between atoms: N_8  and  N_6 
REMARK    4  A    between atoms: O_12  and  C_7 
REMARK    5  A    between atoms: C_9  and  N_8 
REMARK    6  A    between atoms: C_18  and  O_12 
ROOT
ATOM      1  C   UNL d   1      53.347  31.748  53.581  0.00  0.00     0.084 A 
ATOM      2  N   UNL d   1      53.092  33.008  53.720  0.00  0.00    -0.225 NA
ATOM      3  C   UNL d   1      52.591  32.727  53.135  0.00  0.00     0.184 A 
ATOM      4  C   UNL d   1      53.564  32.390  53.996  0.00  0.00     0.088 A 
ATOM      5  C   UNL d   1      52.759  31.924  53.051  0.00  0.00     0.044 A 
ATOM      6  C   UNL d   1      54.154  32.387  54.581  0.00  0.00     0.021 C 
ATOM      7  C   UNL d   1      52.387  31.407  52.521  0.00  0.00     0.003 C 
ENDROOT
BRANCH   3   8
ATOM      8  N   UNL d   1      52.020  33.076  52.676  0.00  0.00    -0.129 NA
BRANCH   8   9
ATOM      9  N   UNL d   1      51.615  33.758  52.926  0.00  0.00    -0.147 NA
BRANCH   9  10
ATOM     10  C   UNL d   1      50.949  34.064  52.521  0.00  0.00     0.103 A 
ATOM     11  C   UNL d   1      50.329  34.416  52.928  0.00  0.00     0.019 A 
ATOM     12  C   UNL d   1      50.352  34.479  53.802  0.00  0.00     0.002 C 
ATOM     13  C   UNL d   1      49.681  34.713  52.534  0.00  0.00     0.002 A 
ATOM     14  C   UNL d   1      49.655  34.656  51.722  0.00  0.00     0.000 A 
ATOM     15  C   UNL d   1      50.244  34.318  51.295  0.00  0.00     0.002 A 
ATOM     16  C   UNL d   1      50.890  34.023  51.699  0.00  0.00     0.021 A 
ENDBRANCH   9  10
ENDBRANCH   8   9
ENDBRANCH   3   8
BRANCH   1  17
ATOM     17  C   UNL d   1      53.707  30.987  53.700  0.00  0.00     0.302 C 
ATOM     18  O   UNL d   1      54.460  30.847  53.338  0.00  0.00    -0.259 OA
BRANCH  17  19
ATOM     19  O   UNL d   1      53.333  30.419  54.149  0.00  0.00    -0.271 OA
BRANCH  19  20
ATOM     20  C   UNL d   1      53.607  29.626  54.109  0.00  0.00     0.126 C 
ATOM     21  C   UNL d   1      53.279  29.054  54.632  0.00  0.00     0.029 C 
ENDBRANCH  19  20
ENDBRANCH  17  19
ENDBRANCH   1  17
TORSDOF 6
ENDMDL
MODEL 7
REMARK VINA RESULT:      -5.9      1.902      4.945
REMARK  6 active torsions:
REMARK  status: ('A' for Active; 'I' for Inactive)
REMARK    1  A    between atoms: C_7  and  C_1 
REMARK    2  A    between atoms: N_6  and  C_3 
REMARK    3  A    between atoms: N_8  and  N_6 
REMARK    4  A    between atoms: O_12  and  C_7 
REMARK    5  A    between atoms: C_9  and  N_8 
REMARK    6  A    between atoms: C_18  and  O_12 
ROOT
ATOM      1  C   UNL d   1      51.077  33.938  52.677  0.00  0.00     0.084 A 
ATOM      2  N   UNL d   1      52.234  33.439  52.390  0.00  0.00    -0.225 NA
ATOM      3  C   UNL d   1      51.840  32.879  52.840  0.00  0.00     0.184 A 
ATOM      4  C   UNL d   1      51.752  34.101  52.290  0.00  0.00     0.088 A 
ATOM      5  C   UNL d   1      51.103  33.203  53.019  0.00  0.00     0.044 A 
ATOM      6  C   UNL d   1      51.894  34.812  51.883  0.00  0.00     0.021 C 
ATOM      7  C   UNL d   1      50.511  32.835  53.466  0.00  0.00     0.003 C 
ENDROOT
BRANCH   3   8
ATOM      8  N   UNL d   1      52.037  32.139  53.106  0.00  0.00    -0.129 NA
BRANCH   8   9
ATOM      9  N   UNL d   1      52.779  31.799  52.943  0.00  0.00    -0.147 NA
BRANCH   9  10
ATOM     10  C   UNL d   1      52.989  31.028  53.195  0.00  0.00     0.103 A 
ATOM     11  C   UNL d   1      53.694  30.889  53.592  0.00  0.00     0.019 A 
ATOM     12  C   UNL d   1      54.244  31.550  53.762  0.00  0.00     0.002 C 
ATOM     13  C   UNL d   1      53.899  30.140  53.837  0.00  0.00     0.002 A 
ATOM     14  C   UNL d   1      53.391  29.523  53.681  0.00  0.00     0.000 A 
ATOM     15  C   UNL d   1      52.695  29.626  53.295  0.00  0.00     0.002 A 
ATOM     16  C   UNL d   1      52.498  30.381  53.054  0.00  0.00     0.021 A 
ENDBRANCH   9  10
ENDBRANCH   8   9
ENDBRANCH   3   8
BRANCH   1  17
ATOM     17  C   UNL d   1      50.428  34.486  52.708  0.00  0.00     0.302 C 
ATOM     18  O   UNL d   1      50.438  35.071  53.320  0.00  0.00    -0.259 OA
BRANCH  17  19
ATOM     19  O   UNL d   1      49.822  34.442  52.164  0.00  0.00    -0.271 OA
BRANCH  19  20
ATOM     20  C   UNL d   1      49.159  34.949  52.255  0.00  0.00     0.126 C 
ATOM     21  C   UNL d   1      48.540  34.918  51.685  0.00  0.00     0.029 C 
ENDBRANCH  19  20
ENDBRANCH  17  19
ENDBRANCH   1  17
TORSDOF 6
ENDMDL
