MODEL 1
REMARK VINA RESULT:      -9.1      0.000      0.000
REMARK  4 active torsions:
REMARK  status: ('A' for Active; 'I' for Inactive)
REMARK    1  A    between atoms: N_10  and  C_3 
REMARK    2  A    between atoms: C_13  and  C_5 
REMARK    3  A    between atoms: C_19  and  C_9 
REMARK    4  A    between atoms: C_12  and  N_11 
ROOT
ATOM      1  N   UNL d   1      51.999  34.122  53.450  0.00  0.00    -0.196 N 
ATOM      2  C   UNL d   1      52.683  33.817  53.768  0.00  0.00     0.167 A 
ATOM      3  C   UNL d   1      51.524  33.644  53.018  0.00  0.00     0.152 A 
ATOM      4  N   UNL d   1      52.294  35.365  54.008  0.00  0.00    -0.163 NA
ATOM      5  C   UNL d   1      53.159  34.281  54.197  0.00  0.00     0.055 A 
ATOM      6  N   UNL d   1      52.866  33.045  53.642  0.00  0.00    -0.227 NA
ATOM      7  C   UNL d   1      51.721  32.850  52.893  0.00  0.00     0.057 A 
ATOM      8  C   UNL d   1      52.978  35.060  54.326  0.00  0.00     0.104 A 
ATOM      9  C   UNL d   1      52.389  32.577  53.211  0.00  0.00     0.086 A 
ATOM     10  C   UNL d   1      53.453  35.520  54.753  0.00  0.00     0.023 C 
ENDROOT
BRANCH   3  11
ATOM     11  N   UNL d   1      50.821  33.953  52.690  0.00  0.00    -0.286 N 
ATOM     12  C   UNL d   1      50.166  34.099  53.176  0.00  0.00     0.101 A 
ATOM     13  C   UNL d   1      49.459  34.410  52.848  0.00  0.00     0.101 A 
ATOM     14  N   UNL d   1      49.415  34.572  52.034  0.00  0.00    -0.286 N 
ATOM     15  C   UNL d   1      50.072  34.426  51.544  0.00  0.00     0.101 A 
ATOM     16  C   UNL d   1      50.777  34.117  51.867  0.00  0.00     0.101 A 
BRANCH  14  17
ATOM     17  C   UNL d   1      48.712  34.881  51.707  0.00  0.00     0.148 A 
ATOM     18  N   UNL d   1      48.409  34.560  50.995  0.00  0.00    -0.227 NA
ATOM     19  C   UNL d   1      47.709  34.870  50.672  0.00  0.00     0.101 A 
ATOM     20  C   UNL d   1      47.307  35.498  51.052  0.00  0.00     0.021 A 
ATOM     21  C   UNL d   1      47.610  35.814  51.756  0.00  0.00     0.005 A 
ATOM     22  C   UNL d   1      48.317  35.504  52.086  0.00  0.00     0.037 A 
ENDBRANCH  14  17
ENDBRANCH   3  11
BRANCH   9  23
ATOM     23  C   UNL d   1      52.587  31.767  53.083  0.00  0.00     0.018 C 
ATOM     24  C   UNL d   1      53.153  31.557  52.496  0.00  0.00     0.002 C 
ATOM     25  C   UNL d   1      52.212  31.168  53.550  0.00  0.00     0.002 C 
ENDBRANCH   9  23
BRANCH   5  26
ATOM     26  C   UNL d   1      53.850  33.973  54.518  0.00  0.00     0.004 A 
ATOM     27  C   UNL d   1      53.837  33.627  55.237  0.00  0.00     0.000 A 
ATOM     28  C   UNL d   1      54.502  33.326  55.555  0.00  0.00     0.000 A 
ATOM     29  C   UNL d   1      55.197  33.373  55.144  0.00  0.00     0.000 A 
ATOM     30  C   UNL d   1      55.217  33.718  54.424  0.00  0.00     0.000 A 
ATOM     31  C   UNL d   1      54.537  34.021  54.108  0.00  0.00     0.000 A 
ENDBRANCH   5  26
TORSDOF 4
ENDMDL
MODEL 2
REMARK VINA RESULT:      -7.9      0.923      2.143
REMARK  4 active torsions:
REMARK  status: ('A' for Active; 'I' for Inactive)
REMARK    1  A    between atoms: N_10  and  C_3 
REMARK    2  A    between atoms: C_13  and  C_5 
REMARK    3  A    between atoms: C_19  and  C_9 
REMARK    4  A    between atoms: C_12  and  N_11 
ROOT
ATOM      1  N   UNL d   1      51.625  33.596  53.007  0.00  0.00    -0.196 N 
ATOM      2  C   UNL d   1      52.354  33.440  53.334  0.00  0.00     0.167 A 
ATOM      3  C   UNL d   1      51.335  34.342  53.041  0.00  0.00     0.152 A 
ATOM      4  N   UNL d   1      51.510  32.260  52.626  0.00  0.00    -0.163 NA
ATOM      5  C   UNL d   1      52.649  32.707  53.306  0.00  0.00     0.055 A 
ATOM      6  N   UNL d   1      52.765  34.035  53.684  0.00  0.00    -0.227 NA
ATOM      7  C   UNL d   1      51.766  34.948  53.403  0.00  0.00     0.057 A 
ATOM      8  C   UNL d   1      52.238  32.104  52.954  0.00  0.00     0.104 A 
ATOM      9  C   UNL d   1      52.469  34.773  53.713  0.00  0.00     0.086 A 
ATOM     10  C   UNL d   1      52.534  31.374  52.927  0.00  0.00     0.023 C 
ENDROOT
BRANCH   3  11
ATOM     11  N   UNL d   1      50.588  34.506  52.706  0.00  0.00    -0.286 N 
ATOM     12  C   UNL d   1      50.483  34.461  51.885  0.00  0.00     0.101 A 
ATOM     13  C   UNL d   1      49.733  34.625  51.547  0.00  0.00     0.101 A 
ATOM     14  N   UNL d   1      49.094  34.834  52.036  0.00  0.00    -0.286 N 
ATOM     15  C   UNL d   1      49.198  34.880  52.860  0.00  0.00     0.101 A 
ATOM     16  C   UNL d   1      49.943  34.717  53.200  0.00  0.00     0.101 A 
BRANCH  14  17
ATOM     17  C   UNL d   1      48.347  34.998  51.700  0.00  0.00     0.148 A 
ATOM     18  N   UNL d   1      48.109  34.598  51.004  0.00  0.00    -0.227 NA
ATOM     19  C   UNL d   1      47.365  34.763  50.672  0.00  0.00     0.101 A 
ATOM     20  C   UNL d   1      46.855  35.325  51.027  0.00  0.00     0.021 A 
ATOM     21  C   UNL d   1      47.096  35.719  51.716  0.00  0.00     0.005 A 
ATOM     22  C   UNL d   1      47.846  35.555  52.054  0.00  0.00     0.037 A 
ENDBRANCH  14  17
ENDBRANCH   3  11
BRANCH   9  23
ATOM     23  C   UNL d   1      52.906  35.394  54.082  0.00  0.00     0.018 C 
ATOM     24  C   UNL d   1      53.491  35.815  53.648  0.00  0.00     0.002 C 
ATOM     25  C   UNL d   1      52.749  35.588  54.891  0.00  0.00     0.002 C 
ENDBRANCH   9  23
BRANCH   5  26
ATOM     26  C   UNL d   1      53.385  32.549  53.637  0.00  0.00     0.004 A 
ATOM     27  C   UNL d   1      53.440  32.331  54.402  0.00  0.00     0.000 A 
ATOM     28  C   UNL d   1      54.149  32.177  54.730  0.00  0.00     0.000 A 
ATOM     29  C   UNL d   1      54.819  32.241  54.282  0.00  0.00     0.000 A 
ATOM     30  C   UNL d   1      54.771  32.459  53.514  0.00  0.00     0.000 A 
ATOM     31  C   UNL d   1      54.046  32.614  53.189  0.00  0.00     0.000 A 
ENDBRANCH   5  26
TORSDOF 4
ENDMDL
