MODEL 1
REMARK VINA RESULT:       9.2      0.000      0.000
REMARK  2 active torsions:
REMARK  status: ('A' for Active; 'I' for Inactive)
REMARK    1  A    between atoms: N_6  and  C_1 
REMARK    2  A    between atoms: C_7  and  C_2 
REMARK       I    between atoms: C_8  and  N_6 
ROOT
ATOM      1  C   UNL d   1      46.574 -19.068  42.275  0.00  0.00     0.119 A 
ATOM      2  C   UNL d   1      46.422 -18.559  42.876  0.00  0.00     0.084 A 
ATOM      3  S   UNL d   1      46.646 -19.837  42.592  0.00  0.00    -0.068 SA
ATOM      4  C   UNL d   1      46.395 -18.981  43.567  0.00  0.00     0.013 A 
ATOM      5  C   UNL d   1      46.535 -19.780  43.389  0.00  0.00     0.031 A 
ATOM      6  C   UNL d   1      46.261 -18.747  44.346  0.00  0.00     0.001 A 
ATOM      7  C   UNL d   1      46.536 -20.329  44.005  0.00  0.00     0.006 A 
ATOM      8  C   UNL d   1      46.265 -19.312  44.955  0.00  0.00     0.000 A 
ATOM      9  C   UNL d   1      46.402 -20.082  44.771  0.00  0.00     0.001 A 
ENDROOT
BRANCH   1  10
ATOM     10  N   UNL d   1      46.647 -18.846  41.454  0.00  0.00    -0.201 NA
ATOM     11  C   UNL d   1      46.570 -19.399  40.850  0.00  0.00     0.280 C 
ATOM     12  O   UNL d   1      46.417 -20.205  41.030  0.00  0.00    -0.265 OA
ATOM     13  C   UNL d   1      46.643 -19.172  40.060  0.00  0.00     0.068 C 
ENDBRANCH   1  10
BRANCH   2  14
ATOM     14  C   UNL d   1      46.313 -17.728  42.778  0.00  0.00     0.299 C 
ATOM     15  O   UNL d   1      46.560 -17.388  42.061  0.00  0.00    -0.264 OA
ATOM     16  N   UNL d   1      45.975 -17.263  43.363  0.00  0.00    -0.102 N 
ENDBRANCH   2  14
TORSDOF 2
ENDMDL
MODEL 2
REMARK VINA RESULT:      11.8      4.392      5.713
REMARK  2 active torsions:
REMARK  status: ('A' for Active; 'I' for Inactive)
REMARK    1  A    between atoms: N_6  and  C_1 
REMARK    2  A    between atoms: C_7  and  C_2 
REMARK       I    between atoms: C_8  and  N_6 
ROOT
ATOM      1  C   UNL d   1      45.517 -14.763  44.791  0.00  0.00     0.119 A 
ATOM      2  C   UNL d   1      44.985 -14.206  44.567  0.00  0.00     0.084 A 
ATOM      3  S   UNL d   1      46.250 -14.386  44.931  0.00  0.00    -0.068 SA
ATOM      4  C   UNL d   1      45.356 -13.486  44.561  0.00  0.00     0.013 A 
ATOM      5  C   UNL d   1      46.147 -13.599  44.789  0.00  0.00     0.031 A 
ATOM      6  C   UNL d   1      45.082 -12.731  44.377  0.00  0.00     0.001 A 
ATOM      7  C   UNL d   1      46.647 -12.944  44.826  0.00  0.00     0.006 A 
ATOM      8  C   UNL d   1      45.598 -12.081  44.420  0.00  0.00     0.000 A 
ATOM      9  C   UNL d   1      46.360 -12.202  44.641  0.00  0.00     0.001 A 
ENDROOT
BRANCH   1  10
ATOM     10  N   UNL d   1      45.349 -15.596  44.868  0.00  0.00    -0.201 NA
ATOM     11  C   UNL d   1      45.873 -16.168  44.594  0.00  0.00     0.280 C 
ATOM     12  O   UNL d   1      46.594 -15.943  44.228  0.00  0.00    -0.265 OA
ATOM     13  C   UNL d   1      45.699 -16.971  44.675  0.00  0.00     0.068 C 
ENDBRANCH   1  10
BRANCH   2  14
ATOM     14  C   UNL d   1      44.180 -14.369  44.376  0.00  0.00     0.299 C 
ATOM     15  O   UNL d   1      43.956 -14.331  43.576  0.00  0.00    -0.264 OA
ATOM     16  N   UNL d   1      43.628 -14.561  44.952  0.00  0.00    -0.102 N 
ENDBRANCH   2  14
TORSDOF 2
ENDMDL
