MODEL 1
REMARK VINA RESULT:      18.3      0.000      0.000
REMARK  2 active torsions:
REMARK  status: ('A' for Active; 'I' for Inactive)
REMARK    1  A    between atoms: C_5  and  C_1 
REMARK    2  A    between atoms: N_2  and  C_6 
ROOT
ATOM      1  C   UNL d   1      57.903  49.635  50.287  0.00  0.00     0.077 A 
ATOM      2  C   UNL d   1      56.786  49.677  51.082  0.00  0.00     0.160 A 
ATOM      3  C   UNL d   1      57.668  49.666  51.050  0.00  0.00     0.024 A 
ATOM      4  C   UNL d   1      57.326  49.622  49.802  0.00  0.00    -0.014 A 
ATOM      5  C   UNL d   1      57.569  49.607  49.469  0.00  0.00    -0.014 A 
ATOM      6  C   UNL d   1      56.840  49.615  49.478  0.00  0.00    -0.000 A 
ATOM      7  C   UNL d   1      56.417  49.633  49.830  0.00  0.00    -0.000 A 
ATOM      8  C   UNL d   1      56.510  49.656  50.444  0.00  0.00     0.038 A 
ATOM      9  C   UNL d   1      56.188  49.664  50.573  0.00  0.00     0.038 A 
ATOM     10  C   UNL d   1      56.058  49.605  49.005  0.00  0.00    -0.000 A 
ATOM     11  O   UNL d   1      56.595  49.706  51.788  0.00  0.00    -0.290 OA
ENDROOT
BRANCH   1  12
ATOM     12  C   UNL d   1      58.643  49.640  50.634  0.00  0.00    -0.011 A 
ATOM     13  C   UNL d   1      58.729  49.622  51.450  0.00  0.00    -0.002 A 
ATOM     14  C   UNL d   1      59.487  49.628  51.798  0.00  0.00     0.023 A 
ATOM     15  C   UNL d   1      60.152  49.652  51.309  0.00  0.00     0.127 A 
ATOM     16  C   UNL d   1      60.061  49.669  50.489  0.00  0.00     0.023 A 
ATOM     17  C   UNL d   1      59.295  49.663  50.156  0.00  0.00    -0.002 A 
BRANCH  15  18
ATOM     18  N   UNL d   1      60.910  49.658  51.637  0.00  0.00    -0.114 N 
ATOM     19  O   UNL d   1      61.545  49.617  51.119  0.00  0.00    -0.532 OA
ATOM     20  O   UNL d   1      61.025  49.705  52.484  0.00  0.00    -0.532 OA
ENDBRANCH  15  18
ENDBRANCH   1  12
TORSDOF 2
ENDMDL
