MODEL 1
REMARK VINA RESULT:      -9.2      0.000      0.000
REMARK  2 active torsions:
REMARK  status: ('A' for Active; 'I' for Inactive)
REMARK    1  A    between atoms: C_5  and  C_1 
REMARK    2  A    between atoms: C_10  and  N_4 
ROOT
ATOM      1  N   UNL d   1      51.099  33.972  52.777  0.00  0.00    -0.273 N 
ATOM      2  C   UNL d   1      52.066  33.056  52.948  0.00  0.00     0.057 A 
ATOM      3  C   UNL d   1      51.830  34.368  52.807  0.00  0.00     0.265 A 
ATOM      4  C   UNL d   1      51.249  33.171  52.863  0.00  0.00     0.086 A 
ATOM      5  C   UNL d   1      52.421  33.805  52.912  0.00  0.00     0.066 A 
ATOM      6  O   UNL d   1      51.933  35.186  52.742  0.00  0.00    -0.267 OA
ENDROOT
BRANCH   2   7
ATOM      7  C   UNL d   1      52.404  32.319  53.046  0.00  0.00     0.149 A 
ATOM      8  N   UNL d   1      52.235  31.630  52.685  0.00  0.00    -0.227 NA
ATOM      9  C   UNL d   1      52.738  31.043  52.981  0.00  0.00     0.099 A 
ATOM     10  C   UNL d   1      52.805  30.248  52.809  0.00  0.00     0.021 A 
ATOM     11  C   UNL d   1      53.222  31.394  53.536  0.00  0.00     0.083 A 
ATOM     12  C   UNL d   1      53.377  29.799  53.211  0.00  0.00     0.002 A 
ATOM     13  C   UNL d   1      53.861  30.150  53.765  0.00  0.00     0.002 A 
ATOM     14  C   UNL d   1      53.786  30.960  53.935  0.00  0.00     0.019 A 
ATOM     15  N   UNL d   1      53.012  32.193  53.576  0.00  0.00    -0.288 N 
ATOM     16  C   UNL d   1      53.358  32.772  54.070  0.00  0.00     0.101 C 
ENDBRANCH   2   7
BRANCH   1  17
ATOM     17  C   UNL d   1      50.392  34.352  52.678  0.00  0.00     0.067 A 
ATOM     18  C   UNL d   1      50.009  34.317  51.957  0.00  0.00     0.018 A 
ATOM     19  C   UNL d   1      49.283  34.701  51.840  0.00  0.00     0.001 A 
ATOM     20  C   UNL d   1      48.916  34.658  51.120  0.00  0.00     0.000 C 
ATOM     21  C   UNL d   1      48.942  35.129  52.472  0.00  0.00     0.000 A 
ATOM     22  C   UNL d   1      49.324  35.164  53.193  0.00  0.00     0.002 A 
ATOM     23  C   UNL d   1      48.198  35.527  52.365  0.00  0.00     0.000 C 
ATOM     24  C   UNL d   1      50.051  34.775  53.299  0.00  0.00     0.018 A 
ENDBRANCH   1  17
TORSDOF 2
ENDMDL
MODEL 2
REMARK VINA RESULT:      -8.9      1.298      2.128
REMARK  2 active torsions:
REMARK  status: ('A' for Active; 'I' for Inactive)
REMARK    1  A    between atoms: C_5  and  C_1 
REMARK    2  A    between atoms: C_10  and  N_4 
ROOT
ATOM      1  N   UNL d   1      50.553  34.457  52.433  0.00  0.00    -0.273 N 
ATOM      2  C   UNL d   1      51.756  34.065  52.884  0.00  0.00     0.057 A 
ATOM      3  C   UNL d   1      51.037  34.297  51.777  0.00  0.00     0.265 A 
ATOM      4  C   UNL d   1      50.997  34.314  53.108  0.00  0.00     0.086 A 
ATOM      5  C   UNL d   1      51.774  34.057  52.054  0.00  0.00     0.066 A 
ATOM      6  O   UNL d   1      50.808  34.370  50.985  0.00  0.00    -0.267 OA
ENDROOT
BRANCH   2   7
ATOM      7  C   UNL d   1      52.339  33.875  53.424  0.00  0.00     0.149 A 
ATOM      8  N   UNL d   1      52.720  34.340  53.945  0.00  0.00    -0.227 NA
ATOM      9  C   UNL d   1      53.264  33.880  54.367  0.00  0.00     0.099 A 
ATOM     10  C   UNL d   1      53.792  34.071  54.959  0.00  0.00     0.021 A 
ATOM     11  C   UNL d   1      53.205  33.117  54.087  0.00  0.00     0.083 A 
ATOM     12  C   UNL d   1      54.271  33.470  55.275  0.00  0.00     0.002 A 
ATOM     13  C   UNL d   1      54.212  32.707  54.995  0.00  0.00     0.002 A 
ATOM     14  C   UNL d   1      53.672  32.521  54.391  0.00  0.00     0.019 A 
ATOM     15  N   UNL d   1      52.625  33.115  53.496  0.00  0.00    -0.288 N 
ATOM     16  C   UNL d   1      52.375  32.453  53.050  0.00  0.00     0.101 C 
ENDBRANCH   2   7
BRANCH   1  17
ATOM     17  C   UNL d   1      49.786  34.708  52.370  0.00  0.00     0.067 A 
ATOM     18  C   UNL d   1      49.467  35.187  52.948  0.00  0.00     0.018 A 
ATOM     19  C   UNL d   1      48.682  35.453  52.898  0.00  0.00     0.001 A 
ATOM     20  C   UNL d   1      48.379  35.928  53.479  0.00  0.00     0.000 C 
ATOM     21  C   UNL d   1      48.216  35.223  52.243  0.00  0.00     0.000 A 
ATOM     22  C   UNL d   1      48.536  34.744  51.664  0.00  0.00     0.002 A 
ATOM     23  C   UNL d   1      47.411  35.488  52.179  0.00  0.00     0.000 C 
ATOM     24  C   UNL d   1      49.323  34.484  51.725  0.00  0.00     0.018 A 
ENDBRANCH   1  17
TORSDOF 2
ENDMDL
MODEL 3
REMARK VINA RESULT:      -8.6      0.757      4.771
REMARK  2 active torsions:
REMARK  status: ('A' for Active; 'I' for Inactive)
REMARK    1  A    between atoms: C_5  and  C_1 
REMARK    2  A    between atoms: C_10  and  N_4 
ROOT
ATOM      1  N   UNL d   1      52.224  33.190  53.021  0.00  0.00    -0.273 N 
ATOM      2  C   UNL d   1      51.267  34.037  52.607  0.00  0.00     0.057 A 
ATOM      3  C   UNL d   1      52.533  33.962  53.042  0.00  0.00     0.265 A 
ATOM      4  C   UNL d   1      51.450  33.241  52.755  0.00  0.00     0.086 A 
ATOM      5  C   UNL d   1      51.946  34.479  52.788  0.00  0.00     0.066 A 
ATOM      6  O   UNL d   1      53.300  34.163  53.279  0.00  0.00    -0.267 OA
ENDROOT
BRANCH   2   7
ATOM      7  C   UNL d   1      50.538  34.283  52.334  0.00  0.00     0.149 A 
ATOM      8  N   UNL d   1      50.214  34.209  51.611  0.00  0.00    -0.227 NA
ATOM      9  C   UNL d   1      49.460  34.551  51.620  0.00  0.00     0.099 A 
ATOM     10  C   UNL d   1      48.893  34.629  51.038  0.00  0.00     0.021 A 
ATOM     11  C   UNL d   1      49.332  34.837  52.372  0.00  0.00     0.083 A 
ATOM     12  C   UNL d   1      48.178  35.008  51.226  0.00  0.00     0.002 A 
ATOM     13  C   UNL d   1      48.050  35.295  51.978  0.00  0.00     0.002 A 
ATOM     14  C   UNL d   1      48.632  35.211  52.565  0.00  0.00     0.019 A 
ATOM     15  N   UNL d   1      50.007  34.669  52.819  0.00  0.00    -0.288 N 
ATOM     16  C   UNL d   1      50.129  34.860  53.624  0.00  0.00     0.101 C 
ENDBRANCH   2   7
BRANCH   1  17
ATOM     17  C   UNL d   1      52.648  32.535  53.235  0.00  0.00     0.067 A 
ATOM     18  C   UNL d   1      52.514  31.823  52.859  0.00  0.00     0.018 A 
ATOM     19  C   UNL d   1      52.941  31.143  53.067  0.00  0.00     0.001 A 
ATOM     20  C   UNL d   1      52.796  30.444  52.684  0.00  0.00     0.000 C 
ATOM     21  C   UNL d   1      53.516  31.192  53.671  0.00  0.00     0.000 A 
ATOM     22  C   UNL d   1      53.650  31.904  54.048  0.00  0.00     0.002 A 
ATOM     23  C   UNL d   1      53.960  30.502  53.894  0.00  0.00     0.000 C 
ATOM     24  C   UNL d   1      53.217  32.579  53.831  0.00  0.00     0.018 A 
ENDBRANCH   1  17
TORSDOF 2
ENDMDL
MODEL 4
REMARK VINA RESULT:      -8.5      1.605      5.000
REMARK  2 active torsions:
REMARK  status: ('A' for Active; 'I' for Inactive)
REMARK    1  A    between atoms: C_5  and  C_1 
REMARK    2  A    between atoms: C_10  and  N_4 
ROOT
ATOM      1  N   UNL d   1      52.191  33.783  53.391  0.00  0.00    -0.273 N 
ATOM      2  C   UNL d   1      50.982  34.086  52.891  0.00  0.00     0.057 A 
ATOM      3  C   UNL d   1      52.032  33.262  52.763  0.00  0.00     0.265 A 
ATOM      4  C   UNL d   1      51.547  34.284  53.466  0.00  0.00     0.086 A 
ATOM      5  C   UNL d   1      51.292  33.449  52.457  0.00  0.00     0.066 A 
ATOM      6  O   UNL d   1      52.539  32.663  52.499  0.00  0.00    -0.267 OA
ENDROOT
BRANCH   2   7
ATOM      7  C   UNL d   1      50.271  34.479  52.811  0.00  0.00     0.149 A 
ATOM      8  N   UNL d   1      49.848  34.880  53.353  0.00  0.00    -0.227 NA
ATOM      9  C   UNL d   1      49.165  35.177  52.993  0.00  0.00     0.099 A 
ATOM     10  C   UNL d   1      48.546  35.621  53.287  0.00  0.00     0.021 A 
ATOM     11  C   UNL d   1      49.181  34.944  52.212  0.00  0.00     0.083 A 
ATOM     12  C   UNL d   1      47.930  35.835  52.772  0.00  0.00     0.002 A 
ATOM     13  C   UNL d   1      47.946  35.603  51.991  0.00  0.00     0.002 A 
ATOM     14  C   UNL d   1      48.579  35.150  51.701  0.00  0.00     0.019 A 
ATOM     15  N   UNL d   1      49.874  34.507  52.099  0.00  0.00    -0.288 N 
ATOM     16  C   UNL d   1      50.127  34.155  51.383  0.00  0.00     0.101 C 
ENDBRANCH   2   7
BRANCH   1  17
ATOM     17  C   UNL d   1      52.874  33.761  53.825  0.00  0.00     0.067 A 
ATOM     18  C   UNL d   1      53.049  33.103  54.275  0.00  0.00     0.018 A 
ATOM     19  C   UNL d   1      53.746  33.066  54.725  0.00  0.00     0.001 A 
ATOM     20  C   UNL d   1      53.905  32.407  55.167  0.00  0.00     0.000 C 
ATOM     21  C   UNL d   1      54.273  33.715  54.714  0.00  0.00     0.000 A 
ATOM     22  C   UNL d   1      54.098  34.373  54.263  0.00  0.00     0.002 A 
ATOM     23  C   UNL d   1      54.989  33.689  55.170  0.00  0.00     0.000 C 
ATOM     24  C   UNL d   1      53.397  34.399  53.816  0.00  0.00     0.018 A 
ENDBRANCH   1  17
TORSDOF 2
ENDMDL
