MODEL 1
REMARK VINA RESULT:      -3.5      0.000      0.000
REMARK  5 active torsions:
REMARK  status: ('A' for Active; 'I' for Inactive)
REMARK    1  A    between atoms: C_12  and  N_3 
REMARK    2  A    between atoms: C_10  and  N_7 
REMARK    3  A    between atoms: C_11  and  C_10 
REMARK    4  A    between atoms: C_14  and  C_11 
REMARK    5  A    between atoms: C_19  and  C_12 
ROOT
ATOM      1  C   UNL d   1      32.885  18.440 -23.684  0.00  0.00     0.191 A 
ATOM      2  C   UNL d   1      32.873  19.141 -24.135  0.00  0.00     0.196 A 
ATOM      3  N   UNL d   1      32.758  17.807 -24.207  0.00  0.00    -0.191 N 
ATOM      4  N   UNL d   1      33.008  18.479 -22.877  0.00  0.00    -0.204 NA
ATOM      5  N   UNL d   1      32.738  18.926 -24.926  0.00  0.00    -0.122 NA
ATOM      6  N   UNL d   1      32.671  18.118 -24.958  0.00  0.00    -0.058 NA
ATOM      7  N   UNL d   1      33.108  19.906 -22.950  0.00  0.00    -0.251 N 
ATOM      8  C   UNL d   1      32.983  19.862 -23.765  0.00  0.00     0.289 A 
ATOM      9  C   UNL d   1      33.120  19.204 -22.500  0.00  0.00     0.187 A 
ATOM     10  O   UNL d   1      32.971  20.564 -24.216  0.00  0.00    -0.265 OA
ENDROOT
BRANCH   7  11
ATOM     11  C   UNL d   1      33.221  20.635 -22.568  0.00  0.00     0.127 C 
BRANCH  11  12
ATOM     12  C   UNL d   1      32.994  20.735 -21.772  0.00  0.00     0.213 C 
ATOM     13  O   UNL d   1      33.014  20.090 -21.256  0.00  0.00    -0.285 OA
BRANCH  12  14
ATOM     14  C   UNL d   1      32.753  21.474 -21.510  0.00  0.00     0.041 A 
ATOM     15  C   UNL d   1      33.009  22.156 -21.903  0.00  0.00     0.004 A 
ATOM     16  C   UNL d   1      32.767  22.888 -21.639  0.00  0.00     0.011 A 
ATOM     17  C   UNL d   1      32.270  22.953 -20.983  0.00  0.00     0.058 A 
ATOM     18  C   UNL d   1      32.014  22.271 -20.589  0.00  0.00     0.011 A 
ATOM     19 CL   UNL d   1      32.024  23.702 -20.714  0.00  0.00    -0.082 Cl
ATOM     20  C   UNL d   1      32.256  21.539 -20.853  0.00  0.00     0.004 A 
ENDBRANCH  12  14
ENDBRANCH  11  12
ENDBRANCH   7  11
BRANCH   3  21
ATOM     21  C   UNL d   1      32.725  16.995 -24.005  0.00  0.00     0.104 C 
BRANCH  21  22
ATOM     22  C   UNL d   1      32.053  16.545 -24.204  0.00  0.00     0.019 A 
ATOM     23  C   UNL d   1      31.340  16.660 -23.807  0.00  0.00     0.002 A 
ATOM     24  C   UNL d   1      30.696  16.212 -24.015  0.00  0.00     0.000 A 
ATOM     25  C   UNL d   1      30.735  15.653 -24.606  0.00  0.00     0.000 A 
ATOM     26  C   UNL d   1      31.469  15.535 -25.014  0.00  0.00     0.000 A 
ATOM     27  C   UNL d   1      32.120  15.986 -24.805  0.00  0.00     0.002 A 
ENDBRANCH  21  22
ENDBRANCH   3  21
TORSDOF 5
ENDMDL
MODEL 2
REMARK VINA RESULT:      -3.3      2.040      5.473
REMARK  5 active torsions:
REMARK  status: ('A' for Active; 'I' for Inactive)
REMARK    1  A    between atoms: C_12  and  N_3 
REMARK    2  A    between atoms: C_10  and  N_7 
REMARK    3  A    between atoms: C_11  and  C_10 
REMARK    4  A    between atoms: C_14  and  C_11 
REMARK    5  A    between atoms: C_19  and  C_12 
ROOT
ATOM      1  C   UNL d   1      33.065  20.216 -22.477  0.00  0.00     0.191 A 
ATOM      2  C   UNL d   1      33.051  20.288 -23.307  0.00  0.00     0.196 A 
ATOM      3  N   UNL d   1      33.182  20.977 -22.164  0.00  0.00    -0.191 N 
ATOM      4  N   UNL d   1      32.970  19.481 -22.132  0.00  0.00    -0.204 NA
ATOM      5  N   UNL d   1      33.160  21.091 -23.489  0.00  0.00    -0.122 NA
ATOM      6  N   UNL d   1      33.238  21.498 -22.792  0.00  0.00    -0.058 NA
ATOM      7  N   UNL d   1      32.847  18.878 -23.425  0.00  0.00    -0.251 N 
ATOM      8  C   UNL d   1      32.943  19.622 -23.769  0.00  0.00     0.289 A 
ATOM      9  C   UNL d   1      32.861  18.807 -22.594  0.00  0.00     0.187 A 
ATOM     10  O   UNL d   1      32.929  19.694 -24.600  0.00  0.00    -0.265 OA
ENDROOT
BRANCH   7  11
ATOM     11  C   UNL d   1      32.736  18.197 -23.888  0.00  0.00     0.127 C 
BRANCH  11  12
ATOM     12  C   UNL d   1      32.598  17.459 -23.528  0.00  0.00     0.213 C 
ATOM     13  O   UNL d   1      33.039  17.235 -22.867  0.00  0.00    -0.285 OA
BRANCH  12  14
ATOM     14  C   UNL d   1      32.022  16.960 -23.836  0.00  0.00     0.041 A 
ATOM     15  C   UNL d   1      31.227  17.076 -23.640  0.00  0.00     0.004 A 
ATOM     16  C   UNL d   1      30.659  16.579 -23.946  0.00  0.00     0.011 A 
ATOM     17  C   UNL d   1      30.873  15.962 -24.451  0.00  0.00     0.058 A 
ATOM     18  C   UNL d   1      31.669  15.845 -24.648  0.00  0.00     0.011 A 
ATOM     19 CL   UNL d   1      30.291  15.454 -24.765  0.00  0.00    -0.082 Cl
ATOM     20  C   UNL d   1      32.236  16.342 -24.341  0.00  0.00     0.004 A 
ENDBRANCH  12  14
ENDBRANCH  11  12
ENDBRANCH   7  11
BRANCH   3  21
ATOM     21  C   UNL d   1      33.234  21.178 -21.353  0.00  0.00     0.104 C 
BRANCH  21  22
ATOM     22  C   UNL d   1      32.886  21.882 -21.077  0.00  0.00     0.019 A 
ATOM     23  C   UNL d   1      33.197  22.615 -21.293  0.00  0.00     0.002 A 
ATOM     24  C   UNL d   1      32.844  23.291 -21.015  0.00  0.00     0.000 A 
ATOM     25  C   UNL d   1      32.192  23.265 -20.527  0.00  0.00     0.000 A 
ATOM     26  C   UNL d   1      31.873  22.511 -20.305  0.00  0.00     0.000 A 
ATOM     27  C   UNL d   1      32.228  21.828 -20.586  0.00  0.00     0.002 A 
ENDBRANCH  21  22
ENDBRANCH   3  21
TORSDOF 5
ENDMDL
MODEL 3
REMARK VINA RESULT:      -3.0      1.185      1.787
REMARK  5 active torsions:
REMARK  status: ('A' for Active; 'I' for Inactive)
REMARK    1  A    between atoms: C_12  and  N_3 
REMARK    2  A    between atoms: C_10  and  N_7 
REMARK    3  A    between atoms: C_11  and  C_10 
REMARK    4  A    between atoms: C_14  and  C_11 
REMARK    5  A    between atoms: C_19  and  C_12 
ROOT
ATOM      1  C   UNL d   1      32.041  17.673 -23.925  0.00  0.00     0.191 A 
ATOM      2  C   UNL d   1      32.451  17.418 -23.245  0.00  0.00     0.196 A 
ATOM      3  N   UNL d   1      31.728  16.997 -24.293  0.00  0.00    -0.191 N 
ATOM      4  N   UNL d   1      32.013  18.469 -24.107  0.00  0.00    -0.204 NA
ATOM      5  N   UNL d   1      32.382  16.591 -23.209  0.00  0.00    -0.122 NA
ATOM      6  N   UNL d   1      31.944  16.348 -23.846  0.00  0.00    -0.058 NA
ATOM      7  N   UNL d   1      32.796  18.773 -22.946  0.00  0.00    -0.251 N 
ATOM      8  C   UNL d   1      32.822  17.967 -22.766  0.00  0.00     0.289 A 
ATOM      9  C   UNL d   1      32.385  19.027 -23.626  0.00  0.00     0.187 A 
ATOM     10  O   UNL d   1      33.232  17.713 -22.086  0.00  0.00    -0.265 OA
ENDROOT
BRANCH   7  11
ATOM     11  C   UNL d   1      33.170  19.337 -22.463  0.00  0.00     0.127 C 
BRANCH  11  12
ATOM     12  C   UNL d   1      33.199  20.137 -22.693  0.00  0.00     0.213 C 
ATOM     13  O   UNL d   1      33.229  20.333 -23.495  0.00  0.00    -0.285 OA
BRANCH  12  14
ATOM     14  C   UNL d   1      33.197  20.724 -22.119  0.00  0.00     0.041 A 
ATOM     15  C   UNL d   1      33.233  21.520 -22.340  0.00  0.00     0.004 A 
ATOM     16  C   UNL d   1      33.231  22.099 -21.768  0.00  0.00     0.011 A 
ATOM     17  C   UNL d   1      33.192  21.896 -20.968  0.00  0.00     0.058 A 
ATOM     18  C   UNL d   1      33.156  21.099 -20.746  0.00  0.00     0.011 A 
ATOM     19 CL   UNL d   1      33.190  22.489 -20.383  0.00  0.00    -0.082 Cl
ATOM     20  C   UNL d   1      33.158  20.520 -21.319  0.00  0.00     0.004 A 
ENDBRANCH  12  14
ENDBRANCH  11  12
ENDBRANCH   7  11
BRANCH   3  21
ATOM     21  C   UNL d   1      31.273  16.981 -24.996  0.00  0.00     0.104 C 
BRANCH  21  22
ATOM     22  C   UNL d   1      30.516  16.633 -24.992  0.00  0.00     0.019 A 
ATOM     23  C   UNL d   1      29.842  17.098 -24.896  0.00  0.00     0.002 A 
ATOM     24  C   UNL d   1      29.114  16.741 -24.894  0.00  0.00     0.000 A 
ATOM     25  C   UNL d   1      29.030  15.936 -24.985  0.00  0.00     0.000 A 
ATOM     26  C   UNL d   1      29.724  15.458 -25.084  0.00  0.00     0.000 A 
ATOM     27  C   UNL d   1      30.460  15.817 -25.086  0.00  0.00     0.002 A 
ENDBRANCH  21  22
ENDBRANCH   3  21
TORSDOF 5
ENDMDL
MODEL 4
REMARK VINA RESULT:      -1.7      2.342      5.879
REMARK  5 active torsions:
REMARK  status: ('A' for Active; 'I' for Inactive)
REMARK    1  A    between atoms: C_12  and  N_3 
REMARK    2  A    between atoms: C_10  and  N_7 
REMARK    3  A    between atoms: C_11  and  C_10 
REMARK    4  A    between atoms: C_14  and  C_11 
REMARK    5  A    between atoms: C_19  and  C_12 
ROOT
ATOM      1  C   UNL d   1      33.011  20.941 -21.050  0.00  0.00     0.191 A 
ATOM      2  C   UNL d   1      33.085  21.226 -21.830  0.00  0.00     0.196 A 
ATOM      3  N   UNL d   1      32.948  21.601 -20.550  0.00  0.00    -0.191 N 
ATOM      4  N   UNL d   1      33.013  20.135 -20.911  0.00  0.00    -0.204 NA
ATOM      5  N   UNL d   1      33.065  22.056 -21.794  0.00  0.00    -0.122 NA
ATOM      6  N   UNL d   1      32.982  22.271 -21.017  0.00  0.00    -0.058 NA
ATOM      7  N   UNL d   1      33.160  19.883 -22.314  0.00  0.00    -0.251 N 
ATOM      8  C   UNL d   1      33.158  20.697 -22.449  0.00  0.00     0.289 A 
ATOM      9  C   UNL d   1      33.087  19.598 -21.533  0.00  0.00     0.187 A 
ATOM     10  O   UNL d   1      33.231  20.982 -23.230  0.00  0.00    -0.265 OA
ENDROOT
BRANCH   7  11
ATOM     11  C   UNL d   1      33.234  19.339 -22.938  0.00  0.00     0.127 C 
BRANCH  11  12
ATOM     12  C   UNL d   1      32.600  18.836 -23.137  0.00  0.00     0.213 C 
ATOM     13  O   UNL d   1      31.842  18.998 -22.852  0.00  0.00    -0.285 OA
BRANCH  12  14
ATOM     14  C   UNL d   1      32.738  18.183 -23.616  0.00  0.00     0.041 A 
ATOM     15  C   UNL d   1      32.891  17.444 -23.275  0.00  0.00     0.004 A 
ATOM     16  C   UNL d   1      33.027  16.800 -23.752  0.00  0.00     0.011 A 
ATOM     17  C   UNL d   1      33.012  16.878 -24.575  0.00  0.00     0.058 A 
ATOM     18  C   UNL d   1      32.858  17.616 -24.917  0.00  0.00     0.011 A 
ATOM     19 CL   UNL d   1      33.151  16.217 -25.063  0.00  0.00    -0.082 Cl
ATOM     20  C   UNL d   1      32.723  18.261 -24.438  0.00  0.00     0.004 A 
ENDBRANCH  12  14
ENDBRANCH  11  12
ENDBRANCH   7  11
BRANCH   3  21
ATOM     21  C   UNL d   1      32.864  21.586 -19.717  0.00  0.00     0.104 C 
BRANCH  21  22
ATOM     22  C   UNL d   1      32.864  22.300 -19.288  0.00  0.00     0.019 A 
ATOM     23  C   UNL d   1      32.505  22.975 -19.598  0.00  0.00     0.002 A 
ATOM     24  C   UNL d   1      32.515  23.661 -19.165  0.00  0.00     0.000 A 
ATOM     25  C   UNL d   1      32.870  23.702 -18.432  0.00  0.00     0.000 A 
ATOM     26  C   UNL d   1      33.239  23.008 -18.114  0.00  0.00     0.000 A 
ATOM     27  C   UNL d   1      33.230  22.314 -18.550  0.00  0.00     0.002 A 
ENDBRANCH  21  22
ENDBRANCH   3  21
TORSDOF 5
ENDMDL
MODEL 5
REMARK VINA RESULT:      -1.2      2.236      5.420
REMARK  5 active torsions:
REMARK  status: ('A' for Active; 'I' for Inactive)
REMARK    1  A    between atoms: C_12  and  N_3 
REMARK    2  A    between atoms: C_10  and  N_7 
REMARK    3  A    between atoms: C_11  and  C_10 
REMARK    4  A    between atoms: C_14  and  C_11 
REMARK    5  A    between atoms: C_19  and  C_12 
ROOT
ATOM      1  C   UNL d   1      32.691  18.910 -23.039  0.00  0.00     0.191 A 
ATOM      2  C   UNL d   1      32.564  18.929 -23.863  0.00  0.00     0.196 A 
ATOM      3  N   UNL d   1      32.835  19.689 -22.792  0.00  0.00    -0.191 N 
ATOM      4  N   UNL d   1      32.657  18.196 -22.642  0.00  0.00    -0.204 NA
ATOM      5  N   UNL d   1      32.633  19.721 -24.106  0.00  0.00    -0.122 NA
ATOM      6  N   UNL d   1      32.797  20.171 -23.451  0.00  0.00    -0.058 NA
ATOM      7  N   UNL d   1      32.372  17.513 -23.868  0.00  0.00    -0.251 N 
ATOM      8  C   UNL d   1      32.407  18.236 -24.266  0.00  0.00     0.289 A 
ATOM      9  C   UNL d   1      32.499  17.494 -23.044  0.00  0.00     0.187 A 
ATOM     10  O   UNL d   1      32.281  18.256 -25.090  0.00  0.00    -0.265 OA
ENDROOT
BRANCH   7  11
ATOM     11  C   UNL d   1      32.213  16.804 -24.271  0.00  0.00     0.127 C 
BRANCH  11  12
ATOM     12  C   UNL d   1      31.881  16.154 -23.868  0.00  0.00     0.213 C 
ATOM     13  O   UNL d   1      32.354  15.692 -23.374  0.00  0.00    -0.285 OA
BRANCH  12  14
ATOM     14  C   UNL d   1      31.084  15.981 -23.967  0.00  0.00     0.041 A 
ATOM     15  C   UNL d   1      30.595  15.892 -23.305  0.00  0.00     0.004 A 
ATOM     16  C   UNL d   1      29.806  15.721 -23.407  0.00  0.00     0.011 A 
ATOM     17  C   UNL d   1      29.491  15.635 -24.166  0.00  0.00     0.058 A 
ATOM     18  C   UNL d   1      29.980  15.724 -24.829  0.00  0.00     0.011 A 
ATOM     19 CL   UNL d   1      28.683  15.460 -24.270  0.00  0.00    -0.082 Cl
ATOM     20  C   UNL d   1      30.770  15.896 -24.726  0.00  0.00     0.004 A 
ENDBRANCH  12  14
ENDBRANCH  11  12
ENDBRANCH   7  11
BRANCH   3  21
ATOM     21  C   UNL d   1      32.992  19.940 -22.008  0.00  0.00     0.104 C 
BRANCH  21  22
ATOM     22  C   UNL d   1      32.911  20.744 -21.807  0.00  0.00     0.019 A 
ATOM     23  C   UNL d   1      33.239  21.331 -22.285  0.00  0.00     0.002 A 
ATOM     24  C   UNL d   1      33.150  22.109 -22.072  0.00  0.00     0.000 A 
ATOM     25  C   UNL d   1      32.745  22.326 -21.399  0.00  0.00     0.000 A 
ATOM     26  C   UNL d   1      32.409  21.722 -20.907  0.00  0.00     0.000 A 
ATOM     27  C   UNL d   1      32.498  20.936 -21.121  0.00  0.00     0.002 A 
ENDBRANCH  21  22
ENDBRANCH   3  21
TORSDOF 5
ENDMDL
