MODEL 1
REMARK VINA RESULT:      51.0      0.000      0.000
REMARK  4 active torsions:
REMARK  status: ('A' for Active; 'I' for Inactive)
REMARK    1  A    between atoms: C_2  and  S_1 
REMARK    2  A    between atoms: N_5  and  S_1 
REMARK    3  A    between atoms: C_12  and  N_5 
REMARK    4  A    between atoms: C_13  and  C_12 
ROOT
ATOM      1  S   UNL d   1     -58.849 -99.009 -44.312  0.00  0.00     0.285 S 
ATOM      2  O   UNL d   1     -59.133 -99.214 -45.058  0.00  0.00    -0.198 OA
ATOM      3  O   UNL d   1     -58.564 -98.804 -43.565  0.00  0.00    -0.198 OA
ENDROOT
BRANCH   1   4
ATOM      4  C   UNL d   1     -58.086 -98.946 -44.620  0.00  0.00     0.105 A 
ATOM      5  C   UNL d   1     -57.963 -98.872 -45.426  0.00  0.00     0.012 A 
ATOM      6  C   UNL d   1     -57.201 -98.809 -45.734  0.00  0.00     0.001 A 
ATOM      7  C   UNL d   1     -58.623 -98.861 -45.934  0.00  0.00     0.001 C 
ATOM      8  C   UNL d   1     -56.554 -98.820 -45.239  0.00  0.00     0.000 A 
ATOM      9  C   UNL d   1     -56.666 -98.894 -44.425  0.00  0.00     0.001 A 
ATOM     10  C   UNL d   1     -55.791 -98.757 -45.547  0.00  0.00     0.000 C 
ATOM     11  C   UNL d   1     -57.428 -98.957 -44.117  0.00  0.00     0.012 A 
ATOM     12  C   UNL d   1     -57.546 -99.032 -43.300  0.00  0.00     0.001 C 
ENDBRANCH   1   4
BRANCH   1  13
ATOM     13  N   UNL d   1     -59.605 -99.071 -44.006  0.00  0.00    -0.157 NA
BRANCH  13  14
ATOM     14  C   UNL d   1     -59.779 -98.762 -43.272  0.00  0.00     0.112 C 
BRANCH  14  15
ATOM     15  C   UNL d   1     -59.839 -99.257 -42.624  0.00  0.00     0.023 A 
ATOM     16  C   UNL d   1     -59.849-100.072 -42.719  0.00  0.00     0.022 A 
ATOM     17  C   UNL d   1     -59.908-100.572 -42.069  0.00  0.00     0.099 A 
ATOM     18  N   UNL d   1     -59.960-100.250 -41.312  0.00  0.00    -0.242 NA
ATOM     19  C   UNL d   1     -59.952 -99.437 -41.201  0.00  0.00     0.099 A 
ATOM     20  C   UNL d   1     -59.891 -98.932 -41.860  0.00  0.00     0.022 A 
ENDBRANCH  14  15
ENDBRANCH  13  14
ENDBRANCH   1  13
TORSDOF 4
ENDMDL
