MODEL 1
REMARK VINA RESULT:     116.2      0.000      0.000
REMARK  5 active torsions:
REMARK  status: ('A' for Active; 'I' for Inactive)
REMARK    1  A    between atoms: C_10  and  N_1 
REMARK    2  A    between atoms: N_2  and  C_8 
REMARK    3  A    between atoms: C_5  and  C_12 
REMARK       I    between atoms: N_6  and  C_5 
REMARK    4  A    between atoms: C_7  and  N_6 
REMARK    5  A    between atoms: O_26  and  C_14 
ROOT
ATOM      1  C   UNL d   1     -56.594 -99.976 -43.240  0.00  0.00     0.279 C 
ATOM      2  N   UNL d   1     -56.367-100.757 -43.174  0.00  0.00    -0.206 NA
ATOM      3  O   UNL d   1     -56.292 -99.405 -42.736  0.00  0.00    -0.265 OA
ENDROOT
BRANCH   1   4
ATOM      4  C   UNL d   1     -57.149 -99.753 -43.836  0.00  0.00     0.058 A 
ATOM      5  C   UNL d   1     -57.157 -98.985 -44.111  0.00  0.00     0.006 A 
ATOM      6  C   UNL d   1     -57.709 -98.763 -44.703  0.00  0.00     0.018 A 
ATOM      7  C   UNL d   1     -58.230 -99.317 -44.997  0.00  0.00     0.070 A 
ATOM      8  C   UNL d   1     -58.223-100.090 -44.722  0.00  0.00     0.018 A 
ATOM      9  C   UNL d   1     -57.672-100.312 -44.130  0.00  0.00     0.006 A 
BRANCH   7  10
ATOM     10  N   UNL d   1     -58.787 -99.093 -45.595  0.00  0.00    -0.242 N 
ATOM     11  C   UNL d   1     -58.703 -98.970 -46.415  0.00  0.00     0.267 A 
ATOM     12  C   UNL d   1     -59.438 -98.758 -46.715  0.00  0.00     0.066 A 
ATOM     13  O   UNL d   1     -57.971 -99.050 -46.872  0.00  0.00    -0.267 OA
ATOM     14  C   UNL d   1     -59.959 -98.755 -46.072  0.00  0.00     0.066 A 
ATOM     15  C   UNL d   1     -59.566 -98.959 -45.385  0.00  0.00     0.267 A 
ATOM     16  O   UNL d   1     -59.923 -99.013 -44.626  0.00  0.00    -0.267 OA
ENDBRANCH   7  10
ENDBRANCH   1   4
BRANCH   2  17
ATOM     17  C   UNL d   1     -55.809-100.981 -42.575  0.00  0.00     0.108 A 
ATOM     18  C   UNL d   1     -55.658-100.474 -41.935  0.00  0.00     0.045 A 
ATOM     19  C   UNL d   1     -55.116-100.693 -41.353  0.00  0.00     0.128 A 
ATOM     20  C   UNL d   1     -54.713-101.423 -41.398  0.00  0.00     0.026 A 
ATOM     21  C   UNL d   1     -54.872-101.919 -42.040  0.00  0.00     0.027 A 
ATOM     22  C   UNL d   1     -55.414-101.701 -42.623  0.00  0.00     0.112 A 
BRANCH  19  23
ATOM     23  N   UNL d   1     -54.975-100.189 -40.730  0.00  0.00    -0.114 N 
ATOM     24  O   UNL d   1     -54.983-100.405 -39.922  0.00  0.00    -0.532 OA
ATOM     25  O   UNL d   1     -54.801 -99.360 -40.887  0.00  0.00    -0.532 OA
ENDBRANCH  19  23
BRANCH  22  26
ATOM     26  O   UNL d   1     -55.553-102.209 -43.248  0.00  0.00    -0.327 OA
ATOM     27  C   UNL d   1     -55.270-102.021 -44.002  0.00  0.00     0.181 C 
ENDBRANCH  22  26
ENDBRANCH   2  17
TORSDOF 5
ENDMDL
