MODEL 1
REMARK VINA RESULT:      -4.2      0.000      0.000
REMARK  2 active torsions:
REMARK  status: ('A' for Active; 'I' for Inactive)
REMARK    1  A    between atoms: N_2  and  C_1 
REMARK    2  A    between atoms: C_5  and  N_2 
ROOT
ATOM      1  C   UNL d   1      56.301   0.118  32.305  0.00  0.00     0.084 A 
ATOM      2  C   UNL d   1      56.331  -0.699  32.198  0.00  0.00     0.019 A 
ATOM      3  C   UNL d   1      55.885   0.442  32.930  0.00  0.00     0.019 A 
ATOM      4  C   UNL d   1      55.489  -0.049  33.462  0.00  0.00     0.001 A 
ATOM      5  C   UNL d   1      55.936  -1.195  32.729  0.00  0.00     0.001 A 
ATOM      6  C   UNL d   1      55.514  -0.876  33.363  0.00  0.00     0.000 A 
ENDROOT
BRANCH   1   7
ATOM      7  N   UNL d   1      56.694   0.615  31.777  0.00  0.00    -0.216 NA
BRANCH   7   8
ATOM      8  C   UNL d   1      57.495   0.519  31.634  0.00  0.00     0.241 C 
ATOM      9  S   UNL d   1      57.765   0.265  30.903  0.00  0.00    -0.036 SA
ATOM     10  N   UNL d   1      58.039   0.682  32.236  0.00  0.00    -0.114 N 
ENDBRANCH   7   8
ENDBRANCH   1   7
TORSDOF 2
ENDMDL
MODEL 2
REMARK VINA RESULT:      -3.2      8.819      9.357
REMARK  2 active torsions:
REMARK  status: ('A' for Active; 'I' for Inactive)
REMARK    1  A    between atoms: N_2  and  C_1 
REMARK    2  A    between atoms: C_5  and  N_2 
ROOT
ATOM      1  C   UNL d   1      60.037  -7.881  35.851  0.00  0.00     0.084 A 
ATOM      2  C   UNL d   1      60.764  -7.548  36.049  0.00  0.00     0.019 A 
ATOM      3  C   UNL d   1      59.356  -7.428  35.849  0.00  0.00     0.019 A 
ATOM      4  C   UNL d   1      59.392  -6.627  36.046  0.00  0.00     0.001 A 
ATOM      5  C   UNL d   1      60.805  -6.746  36.248  0.00  0.00     0.001 A 
ATOM      6  C   UNL d   1      60.122  -6.281  36.247  0.00  0.00     0.000 A 
ENDROOT
BRANCH   1   7
ATOM      7  N   UNL d   1      59.992  -8.681  35.653  0.00  0.00    -0.216 NA
BRANCH   7   8
ATOM      8  C   UNL d   1      60.120  -8.925  34.881  0.00  0.00     0.241 C 
ATOM      9  S   UNL d   1      60.846  -9.228  34.649  0.00  0.00    -0.036 SA
ATOM     10  N   UNL d   1      59.508  -8.865  34.328  0.00  0.00    -0.114 N 
ENDBRANCH   7   8
ENDBRANCH   1   7
TORSDOF 2
ENDMDL
MODEL 3
REMARK VINA RESULT:      -2.8      8.851      9.469
REMARK  2 active torsions:
REMARK  status: ('A' for Active; 'I' for Inactive)
REMARK    1  A    between atoms: N_2  and  C_1 
REMARK    2  A    between atoms: C_5  and  N_2 
ROOT
ATOM      1  C   UNL d   1      60.248  -8.195  35.505  0.00  0.00     0.084 A 
ATOM      2  C   UNL d   1      59.589  -8.514  35.126  0.00  0.00     0.019 A 
ATOM      3  C   UNL d   1      61.001  -8.326  35.215  0.00  0.00     0.019 A 
ATOM      4  C   UNL d   1      61.108  -8.782  34.535  0.00  0.00     0.001 A 
ATOM      5  C   UNL d   1      59.691  -8.972  34.445  0.00  0.00     0.001 A 
ATOM      6  C   UNL d   1      60.448  -9.109  34.145  0.00  0.00     0.000 A 
ENDROOT
BRANCH   1   7
ATOM      7  N   UNL d   1      60.150  -7.738  36.185  0.00  0.00    -0.216 NA
BRANCH   7   8
ATOM      8  C   UNL d   1      60.052  -6.926  36.128  0.00  0.00     0.241 C 
ATOM      9  S   UNL d   1      60.673  -6.414  36.288  0.00  0.00    -0.036 SA
ATOM     10  N   UNL d   1      59.317  -6.618  35.907  0.00  0.00    -0.114 N 
ENDBRANCH   7   8
ENDBRANCH   1   7
TORSDOF 2
ENDMDL
MODEL 4
REMARK VINA RESULT:      -2.4      1.942      3.467
REMARK  2 active torsions:
REMARK  status: ('A' for Active; 'I' for Inactive)
REMARK    1  A    between atoms: N_2  and  C_1 
REMARK    2  A    between atoms: C_5  and  N_2 
ROOT
ATOM      1  C   UNL d   1      58.042   0.108  30.373  0.00  0.00     0.084 A 
ATOM      2  C   UNL d   1      58.634   0.648  30.565  0.00  0.00     0.019 A 
ATOM      3  C   UNL d   1      58.186  -0.500  29.845  0.00  0.00     0.019 A 
ATOM      4  C   UNL d   1      58.931  -0.578  29.498  0.00  0.00     0.001 A 
ATOM      5  C   UNL d   1      59.382   0.573  30.221  0.00  0.00     0.001 A 
ATOM      6  C   UNL d   1      59.536  -0.038  29.687  0.00  0.00     0.000 A 
ENDROOT
BRANCH   1   7
ATOM      7  N   UNL d   1      57.294   0.180  30.714  0.00  0.00    -0.216 NA
BRANCH   7   8
ATOM      8  C   UNL d   1      57.142  -0.145  31.451  0.00  0.00     0.241 C 
ATOM      9  S   UNL d   1      57.125   0.325  32.124  0.00  0.00    -0.036 SA
ATOM     10  N   UNL d   1      57.005  -0.958  31.518  0.00  0.00    -0.114 N 
ENDBRANCH   7   8
ENDBRANCH   1   7
TORSDOF 2
ENDMDL
MODEL 5
REMARK VINA RESULT:      -2.0     10.206     10.478
REMARK  2 active torsions:
REMARK  status: ('A' for Active; 'I' for Inactive)
REMARK    1  A    between atoms: N_2  and  C_1 
REMARK    2  A    between atoms: C_5  and  N_2 
ROOT
ATOM      1  C   UNL d   1      60.476  -9.497  34.191  0.00  0.00     0.084 A 
ATOM      2  C   UNL d   1      59.810  -9.720  33.760  0.00  0.00     0.019 A 
ATOM      3  C   UNL d   1      61.133  -9.188  33.814  0.00  0.00     0.019 A 
ATOM      4  C   UNL d   1      61.133  -9.096  32.994  0.00  0.00     0.001 A 
ATOM      5  C   UNL d   1      59.805  -9.629  32.938  0.00  0.00     0.001 A 
ATOM      6  C   UNL d   1      60.464  -9.318  32.550  0.00  0.00     0.000 A 
ENDROOT
BRANCH   1   7
ATOM      7  N   UNL d   1      60.484  -9.586  35.011  0.00  0.00    -0.216 NA
BRANCH   7   8
ATOM      8  C   UNL d   1      59.872  -9.285  35.466  0.00  0.00     0.241 C 
ATOM      9  S   UNL d   1      59.333  -9.785  35.830  0.00  0.00    -0.036 SA
ATOM     10  N   UNL d   1      59.797  -8.467  35.561  0.00  0.00    -0.114 N 
ENDBRANCH   7   8
ENDBRANCH   1   7
TORSDOF 2
ENDMDL
