MODEL 1
REMARK VINA RESULT:      32.8      0.000      0.000
REMARK  2 active torsions:
REMARK  status: ('A' for Active; 'I' for Inactive)
REMARK    1  A    between atoms: C_2  and  N_1 
REMARK    2  A    between atoms: N_8  and  C_3 
REMARK       I    between atoms: C_12  and  N_8 
ROOT
ATOM      1  N   UNL d   1     -56.424 -99.264 -44.689  0.00  0.00    -0.189 N 
ATOM      2  C   UNL d   1     -55.893 -99.855 -44.458  0.00  0.00     0.171 A 
ATOM      3  N   UNL d   1     -56.049 -98.777 -45.245  0.00  0.00    -0.162 NA
ATOM      4  C   UNL d   1     -55.188 -99.731 -44.874  0.00  0.00     0.060 A 
ATOM      5  C   UNL d   1     -55.283 -99.071 -45.356  0.00  0.00     0.105 A 
ATOM      6  C   UNL d   1     -54.711 -98.755 -45.865  0.00  0.00     0.023 C 
ENDROOT
BRANCH   1   7
ATOM      7  C   UNL d   1     -57.188 -99.146 -44.438  0.00  0.00     0.197 A 
ATOM      8  N   UNL d   1     -57.797 -99.085 -44.992  0.00  0.00    -0.221 NA
ATOM      9  C   UNL d   1     -58.510 -98.967 -44.570  0.00  0.00     0.090 A 
ATOM     10  C   UNL d   1     -59.281 -98.870 -44.801  0.00  0.00     0.020 A 
ATOM     11  C   UNL d   1     -58.309 -98.961 -43.766  0.00  0.00     0.050 A 
ATOM     12  C   UNL d   1     -59.881 -98.762 -44.242  0.00  0.00     0.002 A 
ATOM     13  C   UNL d   1     -59.681 -98.755 -43.452  0.00  0.00     0.001 A 
ATOM     14  C   UNL d   1     -58.899 -98.854 -43.207  0.00  0.00     0.008 A 
ATOM     15  S   UNL d   1     -57.498 -99.071 -43.697  0.00  0.00    -0.047 SA
ENDBRANCH   1   7
BRANCH   2  16
ATOM     16  N   UNL d   1     -56.035-100.461 -43.912  0.00  0.00    -0.189 NA
ATOM     17  C   UNL d   1     -55.487-101.054 -43.834  0.00  0.00     0.281 C 
ATOM     18  O   UNL d   1     -55.626-101.662 -43.289  0.00  0.00    -0.265 OA
ATOM     19  C   UNL d   1     -54.800-101.071 -44.277  0.00  0.00     0.068 C 
ENDBRANCH   2  16
TORSDOF 2
ENDMDL
