MODEL 1
REMARK VINA RESULT:      -3.4      0.000      0.000
REMARK  7 active torsions:
REMARK  status: ('A' for Active; 'I' for Inactive)
REMARK    1  A    between atoms: S_3  and  N_1 
REMARK    2  A    between atoms: C_18  and  S_3 
REMARK    3  A    between atoms: C_8  and  C_4 
REMARK    4  A    between atoms: S_5  and  N_9 
REMARK    5  A    between atoms: C_12  and  C_6 
REMARK    6  A    between atoms: N_9  and  C_19 
REMARK    7  A    between atoms: C_26  and  C_18 
ROOT
ATOM      1  N   UNL d   1      58.500  -0.716  29.888  0.00  0.00    -0.152 N 
ATOM      2  N   UNL d   1      57.885  -0.745  30.442  0.00  0.00    -0.155 NA
ATOM      3  C   UNL d   1      58.940  -0.031  30.037  0.00  0.00     0.098 A 
ATOM      4  C   UNL d   1      57.946  -0.084  30.928  0.00  0.00     0.104 A 
ATOM      5  C   UNL d   1      58.597   0.354  30.676  0.00  0.00     0.041 A 
ENDROOT
BRANCH   4   6
ATOM      6  C   UNL d   1      57.448   0.106  31.552  0.00  0.00     0.019 A 
ATOM      7  C   UNL d   1      57.760   0.220  32.300  0.00  0.00     0.003 A 
ATOM      8  C   UNL d   1      57.258   0.411  32.928  0.00  0.00     0.020 A 
ATOM      9  C   UNL d   1      56.444   0.487  32.802  0.00  0.00     0.093 A 
ATOM     10  C   UNL d   1      56.138   0.370  32.046  0.00  0.00     0.020 A 
ATOM     11  C   UNL d   1      56.632   0.181  31.423  0.00  0.00     0.003 A 
BRANCH   9  12
ATOM     12  N   UNL d   1      55.952   0.678  33.434  0.00  0.00    -0.162 NA
BRANCH  12  13
ATOM     13  S   UNL d   1      55.624   0.094  33.902  0.00  0.00     0.266 S 
ATOM     14  O   UNL d   1      56.234   0.328  34.409  0.00  0.00    -0.203 OA
ATOM     15  O   UNL d   1      55.545  -0.389  34.568  0.00  0.00    -0.203 OA
ATOM     16  C   UNL d   1      55.011  -0.158  33.416  0.00  0.00     0.165 C 
ENDBRANCH  12  13
ENDBRANCH   9  12
ENDBRANCH   4   6
BRANCH   1  17
ATOM     17  S   UNL d   1      58.640  -1.274  29.298  0.00  0.00     0.287 S 
ATOM     18  O   UNL d   1      58.206  -0.594  29.128  0.00  0.00    -0.198 OA
ATOM     19  O   UNL d   1      58.553  -1.528  28.520  0.00  0.00    -0.198 OA
BRANCH  17  20
ATOM     20  C   UNL d   1      59.075  -1.923  29.531  0.00  0.00     0.117 C 
BRANCH  20  21
ATOM     21  C   UNL d   1      58.901  -2.668  29.218  0.00  0.00     0.014 C 
ATOM     22  C   UNL d   1      59.444  -3.286  29.304  0.00  0.00     0.001 C 
ENDBRANCH  20  21
ENDBRANCH  17  20
ENDBRANCH   1  17
BRANCH   3  23
ATOM     23  C   UNL d   1      59.598   0.210  29.618  0.00  0.00     0.046 A 
ATOM     24  C   UNL d   1      60.338   0.207  30.006  0.00  0.00     0.142 A 
ATOM     25  F   UNL d   1      60.390  -0.036  30.792  0.00  0.00    -0.204 F 
ATOM     26  C   UNL d   1      61.013   0.451  29.589  0.00  0.00     0.030 A 
ATOM     27  C   UNL d   1      60.950   0.679  28.844  0.00  0.00     0.002 A 
ATOM     28  C   UNL d   1      60.210   0.682  28.456  0.00  0.00     0.000 A 
ATOM     29  C   UNL d   1      59.510   0.454  28.812  0.00  0.00     0.004 A 
ENDBRANCH   3  23
TORSDOF 7
ENDMDL
