MODEL 1
REMARK VINA RESULT:      27.7      0.000      0.000
REMARK  1 active torsions:
REMARK  status: ('A' for Active; 'I' for Inactive)
REMARK    1  A    between atoms: C_2  and  C_1 
REMARK       I    between atoms: N_3  and  C_2 
ROOT
ATOM      1  C   UNL d   1      58.635  49.597  50.169  0.00  0.00     0.109 A 
ATOM      2  C   UNL d   1      58.460  49.669  49.437  0.00  0.00     0.026 A 
ATOM      3  C   UNL d   1      58.059  49.571  50.592  0.00  0.00    -0.014 A 
ATOM      4  C   UNL d   1      58.268  49.536  50.919  0.00  0.00    -0.014 A 
ATOM      5  C   UNL d   1      57.629  49.698  49.353  0.00  0.00     0.045 A 
ATOM      6  C   UNL d   1      57.579  49.558  50.867  0.00  0.00    -0.007 A 
ATOM      7  C   UNL d   1      57.202  49.601  50.510  0.00  0.00    -0.007 A 
ATOM      8  C   UNL d   1      57.032  49.672  49.796  0.00  0.00    -0.022 A 
ATOM      9  C   UNL d   1      56.811  49.540  51.266  0.00  0.00    -0.001 A 
ATOM     10  C   UNL d   1      57.328  49.651  49.937  0.00  0.00    -0.022 A 
ENDROOT
BRANCH   1  11
ATOM     11  C   UNL d   1      59.525  49.554  50.388  0.00  0.00     0.248 C 
ATOM     12  N   UNL d   1      59.958  49.576  51.057  0.00  0.00    -0.275 N 
ATOM     13  C   UNL d   1      60.751  49.520  51.022  0.00  0.00     0.083 A 
ATOM     14  C   UNL d   1      59.581  49.655  51.759  0.00  0.00     0.083 A 
ATOM     15  C   UNL d   1      61.193  49.544  51.718  0.00  0.00     0.019 A 
ATOM     16  C   UNL d   1      60.831  49.623  52.433  0.00  0.00     0.003 A 
ATOM     17  C   UNL d   1      60.023  49.679  52.455  0.00  0.00     0.019 A 
ATOM     18  O   UNL d   1      59.712  49.472  49.494  0.00  0.00    -0.271 OA
ENDBRANCH   1  11
TORSDOF 1
ENDMDL
