MODEL 1
REMARK VINA RESULT:      11.7      0.000      0.000
REMARK  6 active torsions:
REMARK  status: ('A' for Active; 'I' for Inactive)
REMARK    1  A    between atoms: C_12  and  N_1 
REMARK    2  A    between atoms: N_8  and  C_2 
REMARK    3  A    between atoms: C_6  and  C_5 
REMARK    4  A    between atoms: C_7  and  C_6 
REMARK       I    between atoms: N_9  and  C_7 
REMARK    5  A    between atoms: C_19  and  N_8 
REMARK    6  A    between atoms: C_13  and  N_9 
ROOT
ATOM      1  N   UNL d   1      46.493 -18.854  43.300  0.00  0.00    -0.252 N 
ATOM      2  C   UNL d   1      46.479 -19.089  44.096  0.00  0.00     0.182 A 
ATOM      3  C   UNL d   1      46.340 -18.037  43.275  0.00  0.00     0.272 A 
ATOM      4  S   UNL d   1      46.318 -18.424  44.562  0.00  0.00    -0.045 SA
ATOM      5  C   UNL d   1      46.233 -17.775  44.052  0.00  0.00     0.093 A 
ATOM      6  O   UNL d   1      46.301 -17.567  42.585  0.00  0.00    -0.266 OA
ENDROOT
BRANCH   5   7
ATOM      7  C   UNL d   1      46.074 -17.118  44.514  0.00  0.00     0.074 C 
BRANCH   7   8
ATOM      8  C   UNL d   1      45.779 -16.362  44.369  0.00  0.00     0.280 C 
ATOM      9  N   UNL d   1      46.273 -15.708  44.444  0.00  0.00    -0.208 NA
ATOM     10  O   UNL d   1      44.990 -16.262  44.150  0.00  0.00    -0.265 OA
BRANCH   9  11
ATOM     11  C   UNL d   1      45.965 -14.951  44.297  0.00  0.00     0.085 A 
ATOM     12  C   UNL d   1      46.450 -14.383  43.951  0.00  0.00     0.019 A 
ATOM     13  C   UNL d   1      46.162 -13.631  43.799  0.00  0.00     0.002 A 
ATOM     14  C   UNL d   1      45.387 -13.447  43.993  0.00  0.00     0.000 A 
ATOM     15  C   UNL d   1      44.901 -14.020  44.340  0.00  0.00     0.002 A 
ATOM     16  C   UNL d   1      45.087 -12.693  43.844  0.00  0.00     0.000 C 
ATOM     17  C   UNL d   1      45.198 -14.769  44.489  0.00  0.00     0.019 A 
ENDBRANCH   9  11
ENDBRANCH   7   8
ENDBRANCH   5   7
BRANCH   1  18
ATOM     18  C   UNL d   1      46.638 -19.372  42.666  0.00  0.00     0.085 C 
ATOM     19  C   UNL d   1      46.542 -19.124  41.885  0.00  0.00     0.021 C 
ENDBRANCH   1  18
BRANCH   2  20
ATOM     20  N   UNL d   1      46.593 -19.831  44.454  0.00  0.00    -0.221 NA
BRANCH  20  21
ATOM     21  C   UNL d   1      46.140 -20.313  44.947  0.00  0.00     0.101 C 
ATOM     22  C   UNL d   1      45.317 -20.318  44.875  0.00  0.00     0.022 C 
ENDBRANCH  20  21
ENDBRANCH   2  20
TORSDOF 6
ENDMDL
MODEL 2
REMARK VINA RESULT:      13.6      1.012      1.848
REMARK  6 active torsions:
REMARK  status: ('A' for Active; 'I' for Inactive)
REMARK    1  A    between atoms: C_12  and  N_1 
REMARK    2  A    between atoms: N_8  and  C_2 
REMARK    3  A    between atoms: C_6  and  C_5 
REMARK    4  A    between atoms: C_7  and  C_6 
REMARK       I    between atoms: N_9  and  C_7 
REMARK    5  A    between atoms: C_19  and  N_8 
REMARK    6  A    between atoms: C_13  and  N_9 
ROOT
ATOM      1  N   UNL d   1      46.346 -19.237  43.515  0.00  0.00    -0.252 N 
ATOM      2  C   UNL d   1      46.489 -18.572  43.039  0.00  0.00     0.182 A 
ATOM      3  C   UNL d   1      46.223 -18.971  44.292  0.00  0.00     0.272 A 
ATOM      4  S   UNL d   1      46.455 -17.897  43.517  0.00  0.00    -0.045 SA
ATOM      5  C   UNL d   1      46.291 -18.147  44.291  0.00  0.00     0.093 A 
ATOM      6  O   UNL d   1      46.060 -19.452  44.955  0.00  0.00    -0.266 OA
ENDROOT
BRANCH   5   7
ATOM      7  C   UNL d   1      46.258 -17.478  44.764  0.00  0.00     0.074 C 
BRANCH   7   8
ATOM      8  C   UNL d   1      45.892 -16.743  44.707  0.00  0.00     0.280 C 
ATOM      9  N   UNL d   1      46.348 -16.062  44.632  0.00  0.00    -0.208 NA
ATOM     10  O   UNL d   1      45.069 -16.689  44.725  0.00  0.00    -0.265 OA
BRANCH   9  11
ATOM     11  C   UNL d   1      45.969 -15.326  44.575  0.00  0.00     0.085 A 
ATOM     12  C   UNL d   1      45.153 -15.303  44.474  0.00  0.00     0.019 A 
ATOM     13  C   UNL d   1      44.763 -14.584  44.416  0.00  0.00     0.002 A 
ATOM     14  C   UNL d   1      45.192 -13.886  44.460  0.00  0.00     0.000 A 
ATOM     15  C   UNL d   1      46.013 -13.912  44.562  0.00  0.00     0.002 A 
ATOM     16  C   UNL d   1      44.810 -13.157  44.403  0.00  0.00     0.000 C 
ATOM     17  C   UNL d   1      46.394 -14.635  44.619  0.00  0.00     0.019 A 
ENDBRANCH   9  11
ENDBRANCH   7   8
ENDBRANCH   5   7
BRANCH   1  18
ATOM     18  C   UNL d   1      46.334 -20.018  43.228  0.00  0.00     0.085 C 
ATOM     19  C   UNL d   1      45.660 -20.329  42.870  0.00  0.00     0.021 C 
ENDBRANCH   1  18
BRANCH   2  20
ATOM     20  N   UNL d   1      46.646 -18.499  42.225  0.00  0.00    -0.221 NA
BRANCH  20  21
ATOM     21  C   UNL d   1      46.374 -18.004  41.624  0.00  0.00     0.101 C 
ATOM     22  C   UNL d   1      46.537 -18.185  40.836  0.00  0.00     0.022 C 
ENDBRANCH  20  21
ENDBRANCH   2  20
TORSDOF 6
ENDMDL
