MODEL 1
REMARK VINA RESULT:      51.3      0.000      0.000
REMARK  7 active torsions:
REMARK  status: ('A' for Active; 'I' for Inactive)
REMARK    1  A    between atoms: C_3  and  S_1 
REMARK    2  A    between atoms: N_8  and  S_1 
REMARK    3  A    between atoms: C_4  and  N_2 
REMARK    4  A    between atoms: N_5  and  C_19 
REMARK    5  A    between atoms: C_14  and  N_8 
REMARK    6  A    between atoms: O_21  and  C_11 
REMARK    7  A    between atoms: C_19  and  C_14 
ROOT
ATOM      1  N   UNL d   1      13.700  15.788  -5.112  0.00  0.00    -0.300 N 
ATOM      2  N   UNL d   1      13.142  14.309  -4.626  0.00  0.00    -0.299 N 
ATOM      3  C   UNL d   1      13.775  15.135  -5.609  0.00  0.00     0.100 A 
ATOM      4  C   UNL d   1      13.343  15.703  -4.366  0.00  0.00     0.100 A 
ATOM      5  C   UNL d   1      13.497  14.398  -5.366  0.00  0.00     0.100 A 
ATOM      6  C   UNL d   1      13.066  14.969  -4.125  0.00  0.00     0.100 A 
ENDROOT
BRANCH   2   7
ATOM      7  C   UNL d   1      12.863  13.571  -4.383  0.00  0.00     0.102 C 
BRANCH   7   8
ATOM      8  C   UNL d   1      13.386  12.938  -4.275  0.00  0.00     0.131 C 
BRANCH   8   9
ATOM      9  N   UNL d   1      13.166  12.288  -3.834  0.00  0.00    -0.155 NA
BRANCH   9  10
ATOM     10  S   UNL d   1      13.465  12.183  -3.075  0.00  0.00     0.285 S 
ATOM     11  O   UNL d   1      14.155  12.585  -3.294  0.00  0.00    -0.198 OA
ATOM     12  O   UNL d   1      12.777  11.781  -2.855  0.00  0.00    -0.198 OA
BRANCH  10  13
ATOM     13  C   UNL d   1      13.774  12.083  -2.319  0.00  0.00     0.105 A 
ATOM     14  C   UNL d   1      14.587  11.988  -2.214  0.00  0.00     0.013 A 
ATOM     15  C   UNL d   1      14.904  11.887  -1.461  0.00  0.00     0.001 A 
ATOM     16  C   UNL d   1      14.395  11.881  -0.806  0.00  0.00     0.000 A 
ATOM     17  C   UNL d   1      13.583  11.976  -0.914  0.00  0.00     0.001 A 
ATOM     18  C   UNL d   1      14.712  11.781  -0.057  0.00  0.00     0.000 C 
ATOM     19  C   UNL d   1      13.279  12.076  -1.674  0.00  0.00     0.013 A 
ENDBRANCH  10  13
ENDBRANCH   9  10
ENDBRANCH   8   9
ENDBRANCH   7   8
ENDBRANCH   2   7
BRANCH   1  20
ATOM     20  C   UNL d   1      13.978  16.526  -5.355  0.00  0.00     0.086 A 
ATOM     21  C   UNL d   1      14.624  16.877  -4.976  0.00  0.00     0.110 A 
ATOM     22  C   UNL d   1      14.904  17.619  -5.220  0.00  0.00     0.026 A 
ATOM     23  C   UNL d   1      14.535  18.001  -5.841  0.00  0.00     0.002 A 
ATOM     24  C   UNL d   1      13.887  17.657  -6.228  0.00  0.00     0.002 A 
ATOM     25  C   UNL d   1      13.611  16.927  -5.987  0.00  0.00     0.019 A 
BRANCH  21  26
ATOM     26  O   UNL d   1      14.995  16.476  -4.340  0.00  0.00    -0.327 OA
ATOM     27  C   UNL d   1      15.814  16.554  -4.238  0.00  0.00     0.181 C 
ENDBRANCH  21  26
ENDBRANCH   1  20
TORSDOF 7
ENDMDL
