MODEL 1
REMARK VINA RESULT:      -0.8      0.000      0.000
REMARK  8 active torsions:
REMARK  status: ('A' for Active; 'I' for Inactive)
REMARK    1  A    between atoms: N_7  and  N_1 
REMARK    2  A    between atoms: S_9  and  C_2 
REMARK       I    between atoms: C_8  and  N_7 
REMARK    3  A    between atoms: C_19  and  C_8 
REMARK    4  A    between atoms: C_18  and  S_9 
REMARK    5  A    between atoms: C_10  and  C_18 
REMARK       I    between atoms: N_13  and  C_10 
REMARK    6  A    between atoms: C_12  and  C_14 
REMARK    7  A    between atoms: C_14  and  N_13 
REMARK    8  A    between atoms: C_22  and  C_19 
ROOT
ATOM      1  N   UNL d   1      58.771  -1.207  29.596  0.00  0.00    -0.168 N 
ATOM      2  C   UNL d   1      58.512  -0.928  30.310  0.00  0.00     0.199 A 
ATOM      3  C   UNL d   1      59.495  -0.950  29.287  0.00  0.00     0.283 A 
ATOM      4  N   UNL d   1      58.970  -0.376  30.748  0.00  0.00    -0.221 NA
ATOM      5  C   UNL d   1      59.956  -0.399  29.720  0.00  0.00     0.076 A 
ATOM      6  C   UNL d   1      59.691  -0.115  30.448  0.00  0.00     0.088 A 
ATOM      7  O   UNL d   1      59.764  -1.230  28.559  0.00  0.00    -0.265 OA
ATOM      8  C   UNL d   1      60.680  -0.145  29.406  0.00  0.00     0.006 A 
ATOM      9  C   UNL d   1      60.148   0.422  30.864  0.00  0.00     0.019 A 
ATOM     10  C   UNL d   1      61.131   0.398  29.836  0.00  0.00     0.000 A 
ATOM     11  C   UNL d   1      60.867   0.682  30.564  0.00  0.00     0.002 A 
ENDROOT
BRANCH   2  12
ATOM     12  S   UNL d   1      57.800  -1.181  30.614  0.00  0.00    -0.043 SA
BRANCH  12  13
ATOM     13  C   UNL d   1      57.221  -0.633  30.823  0.00  0.00     0.101 C 
BRANCH  13  14
ATOM     14  C   UNL d   1      56.711  -0.793  31.442  0.00  0.00     0.286 C 
ATOM     15  N   UNL d   1      56.537  -0.210  31.993  0.00  0.00    -0.206 NA
ATOM     16  O   UNL d   1      56.370  -1.541  31.513  0.00  0.00    -0.265 OA
BRANCH  15  17
ATOM     17  C   UNL d   1      56.026  -0.370  32.613  0.00  0.00     0.103 C 
BRANCH  17  18
ATOM     18  C   UNL d   1      56.147  -0.023  33.346  0.00  0.00     0.030 A 
ATOM     19  C   UNL d   1      55.524   0.047  33.883  0.00  0.00     0.059 A 
ATOM     20 CL   UNL d   1      54.776  -0.235  33.680  0.00  0.00    -0.082 Cl
ATOM     21  C   UNL d   1      55.645   0.394  34.616  0.00  0.00     0.011 A 
ATOM     22  C   UNL d   1      56.393   0.676  34.819  0.00  0.00     0.001 A 
ATOM     23  C   UNL d   1      57.016   0.606  34.280  0.00  0.00     0.000 A 
ATOM     24  C   UNL d   1      56.895   0.259  33.549  0.00  0.00     0.002 A 
ENDBRANCH  17  18
ENDBRANCH  15  17
ENDBRANCH  13  14
ENDBRANCH  12  13
ENDBRANCH   2  12
BRANCH   1  25
ATOM     25  N   UNL d   1      58.323  -1.743  29.173  0.00  0.00    -0.119 NA
ATOM     26  C   UNL d   1      58.671  -2.421  28.883  0.00  0.00     0.296 C 
ATOM     27  O   UNL d   1      59.472  -2.573  29.011  0.00  0.00    -0.264 OA
BRANCH  26  28
ATOM     28  C   UNL d   1      58.215  -2.963  28.455  0.00  0.00     0.064 C 
BRANCH  28  29
ATOM     29  C   UNL d   1      58.412  -3.750  28.465  0.00  0.00     0.005 A 
ATOM     30  C   UNL d   1      57.812  -4.317  28.484  0.00  0.00     0.000 A 
ATOM     31  C   UNL d   1      58.012  -5.117  28.493  0.00  0.00     0.000 A 
ATOM     32  C   UNL d   1      58.793  -5.345  28.484  0.00  0.00     0.000 A 
ATOM     33  C   UNL d   1      59.389  -4.768  28.465  0.00  0.00     0.000 A 
ATOM     34  C   UNL d   1      59.191  -3.978  28.455  0.00  0.00     0.000 A 
ENDBRANCH  28  29
ENDBRANCH  26  28
ENDBRANCH   1  25
TORSDOF 8
ENDMDL
