MODEL 1
REMARK VINA RESULT:      -5.0      0.000      0.000
REMARK  1 active torsions:
REMARK  status: ('A' for Active; 'I' for Inactive)
REMARK    1  A    between atoms: C_8  and  C_1 
ROOT
ATOM      1  C   UNL d   1     -41.608-122.182 -50.966  0.00  0.00     0.010 A 
ATOM      2  C   UNL d   1     -41.489-122.585 -51.680  0.00  0.00     0.062 A 
ATOM      3  C   UNL d   1     -41.246-122.164 -52.351  0.00  0.00     0.106 A 
ATOM      4  C   UNL d   1     -41.609-123.397 -51.727  0.00  0.00     0.198 A 
ATOM      5  O   UNL d   1     -41.124-121.352 -52.307  0.00  0.00    -0.273 OA
ATOM      6  C   UNL d   1     -41.488-121.371 -50.919  0.00  0.00     0.069 A 
ATOM      7  C   UNL d   1     -41.246-120.952 -51.587  0.00  0.00     0.300 A 
ATOM      8  C   UNL d   1     -41.125-122.559 -53.064  0.00  0.00     0.025 A 
ATOM      9  C   UNL d   1     -41.490-123.796 -52.439  0.00  0.00     0.042 A 
ATOM     10  O   UNL d   1     -41.123-120.133 -51.543  0.00  0.00    -0.259 OA
ATOM     11  C   UNL d   1     -41.248-123.377 -53.107  0.00  0.00     0.005 A 
ATOM     12  O   UNL d   1     -41.853-123.817 -51.055  0.00  0.00    -0.286 OA
ATOM     13  C   UNL d   1     -41.126-123.767 -53.820  0.00  0.00     0.000 C 
ENDROOT
BRANCH   1  14
ATOM     14  C   UNL d   1     -41.852-122.603 -50.294  0.00  0.00     0.000 A 
ATOM     15  C   UNL d   1     -42.660-122.661 -50.115  0.00  0.00     0.000 A 
ATOM     16  C   UNL d   1     -42.905-123.086 -49.436  0.00  0.00     0.000 A 
ATOM     17  C   UNL d   1     -42.347-123.445 -48.950  0.00  0.00     0.000 A 
ATOM     18  C   UNL d   1     -41.535-123.381 -49.139  0.00  0.00     0.000 A 
ATOM     19  C   UNL d   1     -41.292-122.962 -49.808  0.00  0.00     0.000 A 
ENDBRANCH   1  14
TORSDOF 1
ENDMDL
MODEL 2
REMARK VINA RESULT:      -2.8      1.538      3.897
REMARK  1 active torsions:
REMARK  status: ('A' for Active; 'I' for Inactive)
REMARK    1  A    between atoms: C_8  and  C_1 
ROOT
ATOM      1  C   UNL d   1     -42.674-123.092 -49.824  0.00  0.00     0.010 A 
ATOM      2  C   UNL d   1     -42.403-123.212 -49.050  0.00  0.00     0.062 A 
ATOM      3  C   UNL d   1     -42.913-123.535 -48.483  0.00  0.00     0.106 A 
ATOM      4  C   UNL d   1     -41.633-123.012 -48.842  0.00  0.00     0.198 A 
ATOM      5  O   UNL d   1     -43.684-123.736 -48.688  0.00  0.00    -0.273 OA
ATOM      6  C   UNL d   1     -43.443-123.292 -50.032  0.00  0.00     0.069 A 
ATOM      7  C   UNL d   1     -43.951-123.614 -49.467  0.00  0.00     0.300 A 
ATOM      8  C   UNL d   1     -42.648-123.656 -47.712  0.00  0.00     0.025 A 
ATOM      9  C   UNL d   1     -41.365-123.131 -48.071  0.00  0.00     0.042 A 
ATOM     10  O   UNL d   1     -44.728-123.817 -49.673  0.00  0.00    -0.259 OA
ATOM     11  C   UNL d   1     -41.872-123.453 -47.507  0.00  0.00     0.005 A 
ATOM     12  O   UNL d   1     -41.123-122.688 -49.410  0.00  0.00    -0.286 OA
ATOM     13  C   UNL d   1     -41.613-123.576 -46.736  0.00  0.00     0.000 C 
ENDROOT
BRANCH   1  14
ATOM     14  C   UNL d   1     -42.164-122.769 -50.391  0.00  0.00     0.000 A 
ATOM     15  C   UNL d   1     -41.646-123.264 -50.810  0.00  0.00     0.000 A 
ATOM     16  C   UNL d   1     -41.131-122.937 -51.384  0.00  0.00     0.000 A 
ATOM     17  C   UNL d   1     -41.138-122.128 -51.531  0.00  0.00     0.000 A 
ATOM     18  C   UNL d   1     -41.663-121.637 -51.103  0.00  0.00     0.000 A 
ATOM     19  C   UNL d   1     -42.171-121.959 -50.538  0.00  0.00     0.000 A 
ENDBRANCH   1  14
TORSDOF 1
ENDMDL
