MODEL 1
REMARK VINA RESULT:      78.0      0.000      0.000
REMARK  5 active torsions:
REMARK  status: ('A' for Active; 'I' for Inactive)
REMARK    1  A    between atoms: N_5  and  S_1 
REMARK    2  A    between atoms: C_10  and  S_1 
REMARK    3  A    between atoms: C_2  and  N_6 
REMARK    4  A    between atoms: C_20  and  N_5 
REMARK    5  A    between atoms: C_7  and  C_14 
REMARK       I    between atoms: N_8  and  C_7 
ROOT
ATOM      1  C   UNL d   1      45.027 -16.644  38.173  0.00  0.00     0.104 A 
ATOM      2  C   UNL d   1      45.420 -18.115  38.759  0.00  0.00     0.057 A 
ATOM      3  C   UNL d   1      44.888 -17.343  37.738  0.00  0.00     0.013 A 
ATOM      4  C   UNL d   1      45.366 -16.697  38.906  0.00  0.00     0.013 A 
ATOM      5  C   UNL d   1      45.091 -18.073  38.047  0.00  0.00     0.005 A 
ATOM      6  C   UNL d   1      45.566 -17.430  39.207  0.00  0.00     0.005 A 
ENDROOT
BRANCH   2   7
ATOM      7  C   UNL d   1      45.620 -18.857  39.059  0.00  0.00     0.265 C 
ATOM      8  N   UNL d   1      45.761 -18.960  39.867  0.00  0.00    -0.269 N 
ATOM      9  C   UNL d   1      45.970 -19.702  40.224  0.00  0.00     0.102 A 
ATOM     10  C   UNL d   1      45.703 -18.321  40.375  0.00  0.00     0.102 A 
ATOM     11  C   UNL d   1      46.108 -19.806  41.006  0.00  0.00     0.101 A 
ATOM     12  N   UNL d   1      46.043 -19.149  41.497  0.00  0.00    -0.281 N 
ATOM     13  C   UNL d   1      45.851 -18.423  41.231  0.00  0.00     0.101 A 
ATOM     14  O   UNL d   1      45.676 -19.498  38.534  0.00  0.00    -0.267 OA
BRANCH  12  15
ATOM     15  C   UNL d   1      46.177 -19.227  42.293  0.00  0.00     0.179 A 
ATOM     16  N   UNL d   1      46.303 -19.950  42.725  0.00  0.00    -0.222 NA
ATOM     17  C   UNL d   1      46.411 -19.711  43.508  0.00  0.00     0.089 A 
ATOM     18  C   UNL d   1      46.555 -20.135  44.198  0.00  0.00     0.020 A 
ATOM     19  C   UNL d   1      46.348 -18.893  43.512  0.00  0.00     0.050 A 
ATOM     20  C   UNL d   1      46.647 -19.743  44.953  0.00  0.00     0.002 A 
ATOM     21  C   UNL d   1      46.579 -18.897  44.941  0.00  0.00     0.001 A 
ATOM     22  C   UNL d   1      46.432 -18.475  44.234  0.00  0.00     0.008 A 
ATOM     23  S   UNL d   1      46.204 -18.622  42.752  0.00  0.00    -0.048 SA
ENDBRANCH  12  15
ENDBRANCH   2   7
BRANCH   1  24
ATOM     24  S   UNL d   1      44.813 -15.913  37.841  0.00  0.00     0.271 S 
ATOM     25  O   UNL d   1      45.519 -15.926  37.385  0.00  0.00    -0.200 OA
ATOM     26  O   UNL d   1      44.110 -15.893  38.291  0.00  0.00    -0.200 OA
BRANCH  24  27
ATOM     27  N   UNL d   1      44.616 -15.183  37.499  0.00  0.00    -0.229 N 
ATOM     28  C   UNL d   1      43.814 -14.986  37.373  0.00  0.00     0.111 C 
BRANCH  27  29
ATOM     29  C   UNL d   1      45.210 -14.654  37.286  0.00  0.00     0.075 A 
ATOM     30  C   UNL d   1      45.687 -14.808  36.628  0.00  0.00     0.018 A 
ATOM     31  C   UNL d   1      46.281 -14.281  36.414  0.00  0.00     0.002 A 
ATOM     32  C   UNL d   1      46.409 -13.589  36.854  0.00  0.00     0.000 A 
ATOM     33  C   UNL d   1      45.924 -13.445  37.514  0.00  0.00     0.002 A 
ATOM     34  C   UNL d   1      45.330 -13.973  37.727  0.00  0.00     0.018 A 
ENDBRANCH  27  29
ENDBRANCH  24  27
ENDBRANCH   1  24
TORSDOF 5
ENDMDL
MODEL 2
REMARK VINA RESULT:      80.9      2.001      3.302
REMARK  5 active torsions:
REMARK  status: ('A' for Active; 'I' for Inactive)
REMARK    1  A    between atoms: N_5  and  S_1 
REMARK    2  A    between atoms: C_10  and  S_1 
REMARK    3  A    between atoms: C_2  and  N_6 
REMARK    4  A    between atoms: C_20  and  N_5 
REMARK    5  A    between atoms: C_7  and  C_14 
REMARK       I    between atoms: N_8  and  C_7 
ROOT
ATOM      1  C   UNL d   1      43.370 -15.672  37.121  0.00  0.00     0.104 A 
ATOM      2  C   UNL d   1      44.878 -16.047  37.615  0.00  0.00     0.057 A 
ATOM      3  C   UNL d   1      43.729 -16.399  36.926  0.00  0.00     0.013 A 
ATOM      4  C   UNL d   1      43.780 -15.137  37.569  0.00  0.00     0.013 A 
ATOM      5  C   UNL d   1      44.486 -16.571  37.181  0.00  0.00     0.005 A 
ATOM      6  C   UNL d   1      44.537 -15.317  37.821  0.00  0.00     0.005 A 
ENDROOT
BRANCH   2   7
ATOM      7  C   UNL d   1      45.641 -16.233  37.867  0.00  0.00     0.265 C 
ATOM      8  N   UNL d   1      45.761 -16.706  38.534  0.00  0.00    -0.269 N 
ATOM      9  C   UNL d   1      46.526 -16.925  38.832  0.00  0.00     0.102 A 
ATOM     10  C   UNL d   1      45.118 -16.994  38.949  0.00  0.00     0.102 A 
ATOM     11  C   UNL d   1      46.647 -17.383  39.478  0.00  0.00     0.101 A 
ATOM     12  N   UNL d   1      45.984 -17.661  39.880  0.00  0.00    -0.281 N 
ATOM     13  C   UNL d   1      45.238 -17.495  39.656  0.00  0.00     0.101 A 
ATOM     14  O   UNL d   1      46.287 -15.935  37.437  0.00  0.00    -0.267 OA
BRANCH  12  15
ATOM     15  C   UNL d   1      46.079 -18.127  40.537  0.00  0.00     0.179 A 
ATOM     16  N   UNL d   1      45.960 -18.968  40.593  0.00  0.00    -0.222 NA
ATOM     17  C   UNL d   1      46.132 -19.153  41.379  0.00  0.00     0.089 A 
ATOM     18  C   UNL d   1      46.125 -19.865  41.791  0.00  0.00     0.020 A 
ATOM     19  C   UNL d   1      46.338 -18.448  41.743  0.00  0.00     0.050 A 
ATOM     20  C   UNL d   1      46.332 -19.903  42.621  0.00  0.00     0.002 A 
ATOM     21  C   UNL d   1      46.542 -19.166  42.983  0.00  0.00     0.001 A 
ATOM     22  C   UNL d   1      46.546 -18.447  42.555  0.00  0.00     0.008 A 
ATOM     23  S   UNL d   1      46.297 -17.833  41.203  0.00  0.00    -0.048 SA
ENDBRANCH  12  15
ENDBRANCH   2   7
BRANCH   1  24
ATOM     24  S   UNL d   1      42.599 -15.517  36.851  0.00  0.00     0.271 S 
ATOM     25  O   UNL d   1      42.562 -14.857  37.370  0.00  0.00    -0.200 OA
ATOM     26  O   UNL d   1      42.628 -16.173  36.334  0.00  0.00    -0.200 OA
BRANCH  24  27
ATOM     27  N   UNL d   1      41.829 -15.347  36.594  0.00  0.00    -0.229 N 
ATOM     28  C   UNL d   1      41.612 -14.560  36.420  0.00  0.00     0.111 C 
BRANCH  27  29
ATOM     29  C   UNL d   1      41.280 -15.955  36.509  0.00  0.00     0.075 A 
ATOM     30  C   UNL d   1      41.528 -16.744  36.519  0.00  0.00     0.018 A 
ATOM     31  C   UNL d   1      40.980 -17.352  36.435  0.00  0.00     0.002 A 
ATOM     32  C   UNL d   1      40.174 -17.183  36.339  0.00  0.00     0.000 A 
ATOM     33  C   UNL d   1      39.935 -16.386  36.331  0.00  0.00     0.002 A 
ATOM     34  C   UNL d   1      40.484 -15.778  36.415  0.00  0.00     0.018 A 
ENDBRANCH  27  29
ENDBRANCH  24  27
ENDBRANCH   1  24
TORSDOF 5
ENDMDL
