MODEL 1
REMARK VINA RESULT:      50.6      0.000      0.000
REMARK  3 active torsions:
REMARK  status: ('A' for Active; 'I' for Inactive)
REMARK    1  A    between atoms: C_2  and  C_1 
REMARK    2  A    between atoms: C_3  and  C_2 
REMARK       I    between atoms: N_5  and  C_3 
REMARK    3  A    between atoms: C_10  and  N_8 
ROOT
ATOM      1  C   UNL d   1      45.846 -16.812  38.896  0.00  0.00     0.304 C 
ATOM      2  N   UNL d   1      45.899 -17.318  39.543  0.00  0.00    -0.266 N 
ATOM      3  N   UNL d   1      46.010 -18.333  40.843  0.00  0.00    -0.301 N 
ATOM      4  O   UNL d   1      46.481 -16.327  38.700  0.00  0.00    -0.263 OA
ATOM      5  C   UNL d   1      46.588 -17.339  39.994  0.00  0.00     0.102 A 
ATOM      6  C   UNL d   1      45.261 -17.800  39.733  0.00  0.00     0.102 A 
ATOM      7  C   UNL d   1      45.318 -18.306  40.382  0.00  0.00     0.100 A 
ATOM      8  C   UNL d   1      46.647 -17.842  40.640  0.00  0.00     0.100 A 
ENDROOT
BRANCH   1   9
ATOM      9  C   UNL d   1      45.150 -16.791  38.440  0.00  0.00     0.253 C 
ATOM     10  O   UNL d   1      44.521 -17.291  38.630  0.00  0.00    -0.281 OA
BRANCH   9  11
ATOM     11  C   UNL d   1      45.094 -16.275  37.805  0.00  0.00     0.064 A 
ATOM     12  C   UNL d   1      45.713 -15.875  37.433  0.00  0.00     0.102 A 
ATOM     13  N   UNL d   1      45.408 -15.415  36.822  0.00  0.00    -0.244 NA
ATOM     14  C   UNL d   1      44.591 -15.527  36.811  0.00  0.00     0.082 A 
ATOM     15  C   UNL d   1      44.397 -16.057  37.417  0.00  0.00     0.022 A 
ATOM     16  C   UNL d   1      43.999 -15.218  36.330  0.00  0.00     0.019 A 
ATOM     17  C   UNL d   1      43.612 -16.274  37.538  0.00  0.00     0.002 A 
ATOM     18  C   UNL d   1      43.015 -15.959  37.050  0.00  0.00     0.000 A 
ATOM     19  C   UNL d   1      43.214 -15.434  36.451  0.00  0.00     0.002 A 
ENDBRANCH   9  11
ENDBRANCH   1   9
BRANCH   3  20
ATOM     20  C   UNL d   1      46.071 -18.834  41.487  0.00  0.00     0.064 A 
ATOM     21  C   UNL d   1      46.357 -19.601  41.397  0.00  0.00     0.020 A 
ATOM     22  C   UNL d   1      46.414 -20.098  42.058  0.00  0.00     0.031 A 
ATOM     23  C   UNL d   1      46.185 -19.828  42.806  0.00  0.00     0.140 A 
ATOM     24  C   UNL d   1      45.896 -19.053  42.896  0.00  0.00     0.031 A 
ATOM     25  F   UNL d   1      46.244 -20.329  43.458  0.00  0.00    -0.204 F 
ATOM     26  C   UNL d   1      45.841 -18.563  42.239  0.00  0.00     0.020 A 
ENDBRANCH   3  20
TORSDOF 3
ENDMDL
