MODEL 1
REMARK VINA RESULT:      -5.8      0.000      0.000
REMARK  6 active torsions:
REMARK  status: ('A' for Active; 'I' for Inactive)
REMARK    1  A    between atoms: N_2  and  C_1 
REMARK    2  A    between atoms: C_8  and  C_5 
REMARK    3  A    between atoms: C_6  and  C_9 
REMARK       I    between atoms: N_13  and  C_6 
REMARK    4  A    between atoms: C_9  and  C_8 
REMARK    5  A    between atoms: C_14  and  C_11 
REMARK    6  A    between atoms: C_16  and  N_13 
ROOT
ATOM      1  C   UNL d   1     -41.600-122.942 -51.041  0.00  0.00     0.279 C 
ATOM      2  N   UNL d   1     -42.219-122.664 -50.583  0.00  0.00    -0.208 NA
ATOM      3  O   UNL d   1     -41.150-123.582 -50.754  0.00  0.00    -0.265 OA
ENDROOT
BRANCH   1   4
ATOM      4  C   UNL d   1     -41.429-122.602 -51.756  0.00  0.00     0.063 C 
BRANCH   4   5
ATOM      5  C   UNL d   1     -41.123-123.071 -52.372  0.00  0.00     0.011 C 
BRANCH   5   6
ATOM      6  C   UNL d   1     -41.338-122.912 -53.174  0.00  0.00     0.031 A 
ATOM      7  S   UNL d   1     -41.695-122.261 -53.535  0.00  0.00    -0.064 SA
ATOM      8  C   UNL d   1     -41.762-122.429 -54.322  0.00  0.00     0.156 A 
ATOM      9  C   UNL d   1     -41.452-123.177 -54.465  0.00  0.00     0.031 A 
ATOM     10  C   UNL d   1     -41.187-123.477 -53.738  0.00  0.00     0.009 A 
BRANCH   8  11
ATOM     11  N   UNL d   1     -42.093-121.930 -54.918  0.00  0.00    -0.107 N 
ATOM     12  O   UNL d   1     -41.603-121.645 -55.532  0.00  0.00    -0.531 OA
ATOM     13  O   UNL d   1     -42.891-121.721 -54.902  0.00  0.00    -0.531 OA
ENDBRANCH   8  11
ENDBRANCH   5   6
ENDBRANCH   4   5
ENDBRANCH   1   4
BRANCH   2  14
ATOM     14  C   UNL d   1     -42.403-123.000 -49.856  0.00  0.00     0.085 A 
ATOM     15  C   UNL d   1     -41.943-122.867 -49.207  0.00  0.00     0.022 A 
ATOM     16  C   UNL d   1     -42.133-123.209 -48.471  0.00  0.00     0.041 A 
ATOM     17  C   UNL d   1     -42.800-123.688 -48.403  0.00  0.00     0.003 A 
ATOM     18  C   UNL d   1     -43.267-123.818 -49.078  0.00  0.00     0.002 A 
ATOM     19  C   UNL d   1     -43.073-123.479 -49.796  0.00  0.00     0.019 A 
BRANCH  16  20
ATOM     20  C   UNL d   1     -41.663-123.074 -47.807  0.00  0.00     0.196 C 
ATOM     21  O   UNL d   1     -41.444-122.317 -47.616  0.00  0.00    -0.287 OA
ATOM     22  C   UNL d   1     -41.403-123.708 -47.321  0.00  0.00     0.045 C 
ENDBRANCH  16  20
ENDBRANCH   2  14
TORSDOF 6
ENDMDL
