MODEL 1
REMARK VINA RESULT:      43.5      0.000      0.000
REMARK  6 active torsions:
REMARK  status: ('A' for Active; 'I' for Inactive)
REMARK    1  A    between atoms: C_10  and  C_3 
REMARK    2  A    between atoms: S_9  and  C_4 
REMARK       I    between atoms: N_6  and  C_7 
REMARK    3  A    between atoms: C_8  and  N_6 
REMARK    4  A    between atoms: C_7  and  C_14 
REMARK    5  A    between atoms: C_14  and  S_9 
REMARK    6  A    between atoms: O_15  and  C_12 
ROOT
ATOM      1  S   UNL d   1     -55.633 -99.462 -44.821  0.00  0.00    -0.036 SA
ENDROOT
BRANCH   1   2
ATOM      2  C   UNL d   1     -55.314 -99.784 -44.104  0.00  0.00     0.236 A 
ATOM      3  O   UNL d   1     -55.403-100.584 -43.931  0.00  0.00    -0.263 OA
ATOM      4  C   UNL d   1     -55.047-100.735 -43.220  0.00  0.00     0.205 A 
ATOM      5  N   UNL d   1     -54.731-100.023 -42.943  0.00  0.00    -0.120 NA
ATOM      6  N   UNL d   1     -54.894 -99.444 -43.482  0.00  0.00    -0.114 NA
BRANCH   4   7
ATOM      7  C   UNL d   1     -54.988-101.447 -42.815  0.00  0.00     0.046 A 
ATOM      8  C   UNL d   1     -55.130-102.150 -43.203  0.00  0.00     0.024 A 
ATOM      9  C   UNL d   1     -55.069-102.877 -42.786  0.00  0.00     0.099 A 
ATOM     10  N   UNL d   1     -54.866-102.870 -41.987  0.00  0.00    -0.242 NA
ATOM     11  C   UNL d   1     -54.719-102.136 -41.588  0.00  0.00     0.099 A 
ATOM     12  C   UNL d   1     -54.781-101.435 -42.006  0.00  0.00     0.024 A 
ENDBRANCH   4   7
ENDBRANCH   1   2
BRANCH   1  13
ATOM     13  C   UNL d   1     -56.143 -98.815 -44.766  0.00  0.00     0.101 C 
BRANCH  13  14
ATOM     14  C   UNL d   1     -56.868 -98.929 -44.394  0.00  0.00     0.286 C 
ATOM     15  N   UNL d   1     -57.570 -98.755 -44.804  0.00  0.00    -0.206 NA
ATOM     16  O   UNL d   1     -56.925 -99.212 -43.623  0.00  0.00    -0.265 OA
BRANCH  15  17
ATOM     17  C   UNL d   1     -58.303 -98.864 -44.446  0.00  0.00     0.107 A 
ATOM     18  C   UNL d   1     -59.018 -98.879 -44.899  0.00  0.00     0.112 A 
ATOM     19  C   UNL d   1     -59.728 -98.986 -44.534  0.00  0.00     0.026 A 
ATOM     20  C   UNL d   1     -59.791 -99.085 -43.718  0.00  0.00     0.002 A 
ATOM     21  C   UNL d   1     -59.113 -99.076 -43.246  0.00  0.00     0.002 A 
ATOM     22  C   UNL d   1     -58.373 -98.966 -43.608  0.00  0.00     0.021 A 
BRANCH  18  23
ATOM     23  O   UNL d   1     -58.947 -98.777 -45.737  0.00  0.00    -0.327 OA
ATOM     24  C   UNL d   1     -59.636 -98.931 -46.206  0.00  0.00     0.181 C 
ENDBRANCH  18  23
ENDBRANCH  15  17
ENDBRANCH  13  14
ENDBRANCH   1  13
TORSDOF 6
ENDMDL
