MODEL 1
REMARK VINA RESULT:      23.2      0.000      0.000
REMARK  2 active torsions:
REMARK  status: ('A' for Active; 'I' for Inactive)
REMARK    1  A    between atoms: C_7  and  C_1 
REMARK    2  A    between atoms: C_8  and  C_7 
ROOT
ATOM      1  C   UNL d   1     -56.950 -98.756 -44.416  0.00  0.00     0.116 A 
ATOM      2  N   UNL d   1     -58.273 -98.757 -43.848  0.00  0.00    -0.152 NA
ATOM      3  N   UNL d   1     -58.083 -98.758 -45.281  0.00  0.00    -0.152 NA
ATOM      4  C   UNL d   1     -57.465 -98.756 -43.742  0.00  0.00     0.288 A 
ATOM      5  C   UNL d   1     -57.259 -98.757 -45.174  0.00  0.00     0.288 A 
ATOM      6  C   UNL d   1     -58.598 -98.757 -44.607  0.00  0.00     0.374 A 
ATOM      7  O   UNL d   1     -57.146 -98.755 -42.986  0.00  0.00    -0.265 OA
ATOM      8  O   UNL d   1     -56.766 -98.757 -45.820  0.00  0.00    -0.265 OA
ATOM      9  O   UNL d   1     -59.435 -98.758 -44.714  0.00  0.00    -0.242 OA
ENDROOT
BRANCH   1  10
ATOM     10  C   UNL d   1     -56.132 -98.756 -44.313  0.00  0.00     0.016 C 
BRANCH  10  11
ATOM     11  C   UNL d   1     -55.526 -99.745 -44.427  0.00  0.00     0.030 A 
ATOM     12  S   UNL d   1     -55.508-100.378 -43.892  0.00  0.00    -0.080 SA
ATOM     13  C   UNL d   1     -55.003-100.959 -44.204  0.00  0.00     0.064 A 
ATOM     14 BR   UNL d   1     -54.831-101.688 -43.835  0.00  0.00    -0.042 Br
ATOM     15  C   UNL d   1     -54.712-100.699 -44.914  0.00  0.00     0.014 A 
ATOM     16  C   UNL d   1     -55.038 -99.936 -45.060  0.00  0.00     0.007 A 
ENDBRANCH  10  11
ENDBRANCH   1  10
TORSDOF 2
ENDMDL
MODEL 2
REMARK VINA RESULT:      25.6      2.394      3.445
REMARK  2 active torsions:
REMARK  status: ('A' for Active; 'I' for Inactive)
REMARK    1  A    between atoms: C_7  and  C_1 
REMARK    2  A    between atoms: C_8  and  C_7 
ROOT
ATOM      1  C   UNL d   1     -55.965 -99.466 -44.412  0.00  0.00     0.116 A 
ATOM      2  N   UNL d   1     -55.932-100.868 -44.087  0.00  0.00    -0.152 NA
ATOM      3  N   UNL d   1     -54.759-100.200 -44.604  0.00  0.00    -0.152 NA
ATOM      4  C   UNL d   1     -56.347-100.168 -44.128  0.00  0.00     0.288 A 
ATOM      5  C   UNL d   1     -55.180 -99.486 -44.646  0.00  0.00     0.288 A 
ATOM      6  C   UNL d   1     -55.140-100.902 -44.320  0.00  0.00     0.374 A 
ATOM      7  O   UNL d   1     -57.133-100.137 -43.895  0.00  0.00    -0.265 OA
ATOM      8  O   UNL d   1     -54.815 -98.814 -44.918  0.00  0.00    -0.265 OA
ATOM      9  O   UNL d   1     -54.713-101.629 -44.276  0.00  0.00    -0.242 OA
ENDROOT
BRANCH   1  10
ATOM     10  C   UNL d   1     -56.381 -98.755 -44.455  0.00  0.00     0.016 C 
BRANCH  10  11
ATOM     11  C   UNL d   1     -57.547 -98.757 -44.441  0.00  0.00     0.030 A 
ATOM     12  S   UNL d   1     -58.049 -98.756 -45.100  0.00  0.00    -0.080 SA
ATOM     13  C   UNL d   1     -58.832 -98.758 -44.823  0.00  0.00     0.064 A 
ATOM     14 BR   UNL d   1     -59.510 -98.757 -45.310  0.00  0.00    -0.042 Br
ATOM     15  C   UNL d   1     -58.822 -98.760 -44.013  0.00  0.00     0.014 A 
ATOM     16  C   UNL d   1     -58.016 -98.760 -43.766  0.00  0.00     0.007 A 
ENDBRANCH  10  11
ENDBRANCH   1  10
TORSDOF 2
ENDMDL
