MODEL 1
REMARK VINA RESULT:      40.5      0.000      0.000
REMARK  2 active torsions:
REMARK  status: ('A' for Active; 'I' for Inactive)
REMARK       I    between atoms: C_2  and  N_1 
REMARK       I    between atoms: C_3  and  N_1 
REMARK       I    between atoms: N_4  and  C_2 
REMARK    1  A    between atoms: C_9  and  C_3 
REMARK    2  A    between atoms: C_5  and  N_4 
ROOT
ATOM      1  N   UNL d   1     -50.188  25.517  33.619  0.00  0.00    -0.140 NA
ATOM      2  C   UNL d   1     -49.838  26.259  33.655  0.00  0.00     0.424 C 
ATOM      3  C   UNL d   1     -50.995  25.437  33.484  0.00  0.00     0.284 C 
ATOM      4  N   UNL d   1     -50.266  26.946  33.559  0.00  0.00    -0.329 NA
ATOM      5  O   UNL d   1     -49.067  26.545  33.778  0.00  0.00    -0.228 OA
ATOM      6  O   UNL d   1     -51.460  26.114  33.382  0.00  0.00    -0.265 OA
ENDROOT
BRANCH   3   7
ATOM      7  C   UNL d   1     -51.343  24.693  33.449  0.00  0.00     0.058 A 
ATOM      8  C   UNL d   1     -52.153  24.628  33.355  0.00  0.00     0.005 A 
ATOM      9  C   UNL d   1     -52.510  23.885  33.319  0.00  0.00     0.000 A 
ATOM     10  C   UNL d   1     -52.043  23.200  33.379  0.00  0.00     0.000 A 
ATOM     11  C   UNL d   1     -51.233  23.265  33.472  0.00  0.00     0.000 A 
ATOM     12  C   UNL d   1     -50.876  24.017  33.508  0.00  0.00     0.005 A 
ENDBRANCH   3   7
BRANCH   4  13
ATOM     13  C   UNL d   1     -50.589  27.695  33.478  0.00  0.00     0.219 A 
ATOM     14  N   UNL d   1     -51.404  27.791  33.457  0.00  0.00    -0.214 NA
ATOM     15  C   UNL d   1     -51.726  28.553  33.376  0.00  0.00     0.102 A 
ATOM     16  C   UNL d   1     -51.222  29.204  33.317  0.00  0.00     0.021 A 
ATOM     17  C   UNL d   1     -50.408  29.109  33.338  0.00  0.00     0.006 A 
ATOM     18  C   UNL d   1     -50.085  28.352  33.419  0.00  0.00     0.052 A 
ENDBRANCH   4  13
TORSDOF 2
ENDMDL
