MODEL 1
REMARK VINA RESULT:      29.5      0.000      0.000
REMARK  2 active torsions:
REMARK  status: ('A' for Active; 'I' for Inactive)
REMARK    1  A    between atoms: N_10  and  C_1 
REMARK       I    between atoms: C_12  and  N_10 
REMARK    2  A    between atoms: C_17  and  C_12 
ROOT
ATOM      1  C   UNL d   1     -57.078 -99.018 -44.301  0.00  0.00     0.197 A 
ATOM      2  C   UNL d   1     -58.179 -98.919 -45.035  0.00  0.00     0.057 A 
ATOM      3  C   UNL d   1     -58.734 -98.872 -45.612  0.00  0.00     0.056 A 
ATOM      4  N   UNL d   1     -57.685 -98.951 -43.780  0.00  0.00    -0.221 NA
ATOM      5  S   UNL d   1     -57.346 -99.002 -45.093  0.00  0.00    -0.046 SA
ATOM      6  N   UNL d   1     -59.959 -98.757 -46.104  0.00  0.00    -0.238 NA
ATOM      7  S   UNL d   1     -58.693 -98.887 -46.423  0.00  0.00    -0.066 SA
ATOM      8  C   UNL d   1     -58.384 -98.888 -44.239  0.00  0.00     0.090 A 
ATOM      9  C   UNL d   1     -59.537 -98.790 -45.420  0.00  0.00     0.088 A 
ATOM     10  C   UNL d   1     -59.492 -98.812 -46.738  0.00  0.00     0.111 A 
ATOM     11  C   UNL d   1     -59.178 -98.807 -44.030  0.00  0.00     0.021 A 
ATOM     12  C   UNL d   1     -59.769 -98.756 -44.631  0.00  0.00     0.021 A 
ATOM     13  C   UNL d   1     -59.728 -98.800 -47.543  0.00  0.00     0.028 C 
ENDROOT
BRANCH   1  14
ATOM     14  N   UNL d   1     -56.254 -99.097 -44.085  0.00  0.00    -0.183 NA
ATOM     15  C   UNL d   1     -55.827 -99.724 -44.393  0.00  0.00     0.281 C 
ATOM     16  O   UNL d   1     -56.254-100.253 -44.913  0.00  0.00    -0.265 OA
BRANCH  15  17
ATOM     17  C   UNL d   1     -55.068 -99.796 -44.194  0.00  0.00     0.063 C 
ATOM     18  C   UNL d   1     -54.745-100.645 -43.895  0.00  0.00     0.005 C 
ENDBRANCH  15  17
ENDBRANCH   1  14
TORSDOF 2
ENDMDL
