MODEL 1
REMARK VINA RESULT:      56.3      0.000      0.000
REMARK  3 active torsions:
REMARK  status: ('A' for Active; 'I' for Inactive)
REMARK    1  A    between atoms: N_6  and  C_1 
REMARK    2  A    between atoms: C_11  and  C_2 
REMARK    3  A    between atoms: C_5  and  C_8 
REMARK       I    between atoms: C_8  and  N_6 
ROOT
ATOM      1  N   UNL d   1     -56.646 -98.768 -45.361  0.00  0.00    -0.200 NA
ATOM      2  C   UNL d   1     -55.940 -99.217 -45.372  0.00  0.00     0.302 C 
ATOM      3  O   UNL d   1     -55.452 -99.201 -46.053  0.00  0.00    -0.263 OA
ENDROOT
BRANCH   1   4
ATOM      4  C   UNL d   1     -57.107 -98.782 -44.720  0.00  0.00     0.119 A 
ATOM      5  C   UNL d   1     -57.880 -98.788 -44.721  0.00  0.00     0.084 A 
ATOM      6  C   UNL d   1     -58.111 -98.801 -43.964  0.00  0.00     0.013 A 
ATOM      7  C   UNL d   1     -58.840 -98.812 -43.641  0.00  0.00     0.001 A 
ATOM      8  C   UNL d   1     -57.481 -98.803 -43.515  0.00  0.00     0.031 A 
ATOM      9  C   UNL d   1     -58.904 -98.825 -42.851  0.00  0.00     0.001 A 
ATOM     10  C   UNL d   1     -58.256 -98.826 -42.401  0.00  0.00     0.006 A 
ATOM     11  S   UNL d   1     -56.851 -98.791 -43.970  0.00  0.00    -0.068 SA
BRANCH   5  12
ATOM     12  C   UNL d   1     -58.356 -98.783 -45.343  0.00  0.00     0.299 C 
ATOM     13  O   UNL d   1     -58.042 -98.758 -46.072  0.00  0.00    -0.264 OA
ATOM     14  N   UNL d   1     -59.139 -98.801 -45.261  0.00  0.00    -0.102 N 
ENDBRANCH   5  12
ENDBRANCH   1   4
BRANCH   2  15
ATOM     15  C   UNL d   1     -55.721 -99.672 -44.719  0.00  0.00     0.158 A 
ATOM     16  O   UNL d   1     -55.965-100.445 -44.547  0.00  0.00    -0.302 OA
ATOM     17  C   UNL d   1     -55.614-100.690 -43.842  0.00  0.00     0.100 A 
ATOM     18  C   UNL d   1     -55.651-101.395 -43.403  0.00  0.00     0.025 A 
ATOM     19  C   UNL d   1     -55.140-100.062 -43.564  0.00  0.00     0.025 A 
ATOM     20  C   UNL d   1     -55.228-101.481 -42.701  0.00  0.00     0.002 A 
ATOM     21  C   UNL d   1     -54.749-100.851 -42.416  0.00  0.00     0.000 A 
ATOM     22  C   UNL d   1     -54.712-100.143 -42.857  0.00  0.00     0.002 A 
ATOM     23  C   UNL d   1     -55.206 -99.434 -44.105  0.00  0.00     0.032 A 
ENDBRANCH   2  15
TORSDOF 3
ENDMDL
