MODEL 1
REMARK VINA RESULT:      -3.8      0.000      0.000
REMARK  6 active torsions:
REMARK  status: ('A' for Active; 'I' for Inactive)
REMARK    1  A    between atoms: S_5  and  C_2 
REMARK    2  A    between atoms: C_16  and  S_5 
REMARK    3  A    between atoms: N_11  and  C_8 
REMARK    4  A    between atoms: C_18  and  N_11 
REMARK    5  A    between atoms: C_19  and  N_12 
REMARK    6  A    between atoms: C_27  and  C_19 
ROOT
ATOM      1  C   UNL d   1     -39.290  14.306  19.905  0.00  0.00     0.197 A 
ATOM      2  C   UNL d   1     -39.127  14.387  19.102  0.00  0.00     0.227 A 
ATOM      3  N   UNL d   1     -38.615  14.012  20.273  0.00  0.00    -0.192 N 
ATOM      4  N   UNL d   1     -39.971  14.464  20.350  0.00  0.00    -0.206 NA
ATOM      5  N   UNL d   1     -38.341  14.139  18.972  0.00  0.00    -0.115 NA
ATOM      6  N   UNL d   1     -38.027  13.907  19.705  0.00  0.00    -0.058 NA
ATOM      7  C   UNL d   1     -39.981  14.328  21.166  0.00  0.00     0.166 A 
ATOM      8  C   UNL d   1     -39.299  14.032  21.531  0.00  0.00     0.054 A 
ATOM      9  C   UNL d   1     -38.619  13.874  21.091  0.00  0.00     0.089 A 
ATOM     10  C   UNL d   1     -37.940  13.579  21.457  0.00  0.00     0.020 A 
ATOM     11  C   UNL d   1     -39.300  13.894  22.347  0.00  0.00     0.016 A 
ATOM     12  C   UNL d   1     -38.625  13.599  22.715  0.00  0.00     0.058 A 
ATOM     13  C   UNL d   1     -37.944  13.442  22.270  0.00  0.00     0.013 A 
ATOM     14 CL   UNL d   1     -38.628  13.463  23.527  0.00  0.00    -0.082 Cl
ENDROOT
BRANCH   7  15
ATOM     15  N   UNL d   1     -40.659  14.485  21.610  0.00  0.00    -0.227 NA
BRANCH  15  16
ATOM     16  C   UNL d   1     -41.361  14.089  21.445  0.00  0.00     0.086 A 
ATOM     17  C   UNL d   1     -41.420  13.277  21.580  0.00  0.00     0.038 A 
ATOM     18  C   UNL d   1     -42.123  12.889  21.414  0.00  0.00     0.082 A 
ATOM     19  N   UNL d   1     -42.775  13.305  21.111  0.00  0.00    -0.302 N 
ATOM     20  C   UNL d   1     -42.708  14.117  20.978  0.00  0.00     0.082 A 
ATOM     21  C   UNL d   1     -42.006  14.505  21.144  0.00  0.00     0.038 A 
BRANCH  19  22
ATOM     22  C   UNL d   1     -43.477  12.914  20.945  0.00  0.00     0.080 C 
BRANCH  22  23
ATOM     23  C   UNL d   1     -44.060  12.847  21.525  0.00  0.00     0.018 A 
ATOM     24  C   UNL d   1     -44.643  13.425  21.598  0.00  0.00     0.002 A 
ATOM     25  C   UNL d   1     -45.227  13.362  22.177  0.00  0.00     0.000 A 
ATOM     26  C   UNL d   1     -45.227  12.714  22.686  0.00  0.00     0.000 A 
ATOM     27  C   UNL d   1     -44.641  12.129  22.615  0.00  0.00     0.000 A 
ATOM     28  C   UNL d   1     -44.060  12.199  22.033  0.00  0.00     0.002 A 
ENDBRANCH  22  23
ENDBRANCH  19  22
ENDBRANCH  15  16
ENDBRANCH   7  15
BRANCH   2  29
ATOM     29  S   UNL d   1     -39.643  14.664  18.515  0.00  0.00     0.231 S 
ATOM     30  O   UNL d   1     -39.992  13.924  18.435  0.00  0.00    -0.215 OA
ATOM     31  O   UNL d   1     -39.290  15.407  18.599  0.00  0.00    -0.215 OA
BRANCH  29  32
ATOM     32  C   UNL d   1     -40.133  14.991  17.938  0.00  0.00     0.090 A 
ATOM     33  C   UNL d   1     -40.691  15.552  18.148  0.00  0.00     0.011 A 
ATOM     34  C   UNL d   1     -41.181  15.880  17.571  0.00  0.00     0.001 A 
ATOM     35  C   UNL d   1     -41.102  15.637  16.786  0.00  0.00     0.000 A 
ATOM     36  C   UNL d   1     -40.537  15.070  16.575  0.00  0.00     0.001 A 
ATOM     37  C   UNL d   1     -40.055  14.750  17.156  0.00  0.00     0.011 A 
ENDBRANCH  29  32
ENDBRANCH   2  29
TORSDOF 6
ENDMDL
MODEL 2
REMARK VINA RESULT:      -2.2      1.640      3.504
REMARK  6 active torsions:
REMARK  status: ('A' for Active; 'I' for Inactive)
REMARK    1  A    between atoms: S_5  and  C_2 
REMARK    2  A    between atoms: C_16  and  S_5 
REMARK    3  A    between atoms: N_11  and  C_8 
REMARK    4  A    between atoms: C_18  and  N_11 
REMARK    5  A    between atoms: C_19  and  N_12 
REMARK    6  A    between atoms: C_27  and  C_19 
ROOT
ATOM      1  C   UNL d   1     -39.234  14.510  19.453  0.00  0.00     0.197 A 
ATOM      2  C   UNL d   1     -38.521  14.267  19.788  0.00  0.00     0.227 A 
ATOM      3  N   UNL d   1     -39.103  14.653  18.653  0.00  0.00    -0.192 N 
ATOM      4  N   UNL d   1     -39.988  14.621  19.778  0.00  0.00    -0.206 NA
ATOM      5  N   UNL d   1     -37.943  14.259  19.186  0.00  0.00    -0.115 NA
ATOM      6  N   UNL d   1     -38.311  14.500  18.482  0.00  0.00    -0.058 NA
ATOM      7  C   UNL d   1     -40.617  14.875  19.304  0.00  0.00     0.166 A 
ATOM      8  C   UNL d   1     -40.480  15.016  18.500  0.00  0.00     0.054 A 
ATOM      9  C   UNL d   1     -39.730  14.907  18.173  0.00  0.00     0.089 A 
ATOM     10  C   UNL d   1     -39.596  15.050  17.371  0.00  0.00     0.020 A 
ATOM     11  C   UNL d   1     -41.103  15.270  18.019  0.00  0.00     0.016 A 
ATOM     12  C   UNL d   1     -40.973  15.413  17.218  0.00  0.00     0.058 A 
ATOM     13  C   UNL d   1     -40.218  15.303  16.893  0.00  0.00     0.013 A 
ATOM     14 CL   UNL d   1     -41.594  15.666  16.741  0.00  0.00    -0.082 Cl
ENDROOT
BRANCH   7  15
ATOM     15  N   UNL d   1     -41.368  14.984  19.627  0.00  0.00    -0.227 NA
BRANCH  15  16
ATOM     16  C   UNL d   1     -41.682  14.425  20.142  0.00  0.00     0.086 A 
ATOM     17  C   UNL d   1     -41.942  13.697  19.854  0.00  0.00     0.038 A 
ATOM     18  C   UNL d   1     -42.254  13.144  20.373  0.00  0.00     0.082 A 
ATOM     19  N   UNL d   1     -42.310  13.310  21.185  0.00  0.00    -0.302 N 
ATOM     20  C   UNL d   1     -42.048  14.041  21.466  0.00  0.00     0.082 A 
ATOM     21  C   UNL d   1     -41.736  14.594  20.947  0.00  0.00     0.038 A 
BRANCH  19  22
ATOM     22  C   UNL d   1     -42.623  12.755  21.703  0.00  0.00     0.080 C 
BRANCH  22  23
ATOM     23  C   UNL d   1     -43.435  12.737  21.849  0.00  0.00     0.018 A 
ATOM     24  C   UNL d   1     -43.913  13.367  21.619  0.00  0.00     0.002 A 
ATOM     25  C   UNL d   1     -44.726  13.352  21.763  0.00  0.00     0.000 A 
ATOM     26  C   UNL d   1     -45.059  12.700  22.141  0.00  0.00     0.000 A 
ATOM     27  C   UNL d   1     -44.580  12.063  22.374  0.00  0.00     0.000 A 
ATOM     28  C   UNL d   1     -43.768  12.085  22.227  0.00  0.00     0.002 A 
ENDBRANCH  22  23
ENDBRANCH  19  22
ENDBRANCH  15  16
ENDBRANCH   7  15
BRANCH   2  29
ATOM     29  S   UNL d   1     -38.389  14.063  20.580  0.00  0.00     0.231 S 
ATOM     30  O   UNL d   1     -38.511  13.266  20.424  0.00  0.00    -0.215 OA
ATOM     31  O   UNL d   1     -38.266  14.867  20.734  0.00  0.00    -0.215 OA
BRANCH  29  32
ATOM     32  C   UNL d   1     -38.248  13.915  21.380  0.00  0.00     0.090 A 
ATOM     33  C   UNL d   1     -38.268  13.146  21.661  0.00  0.00     0.011 A 
ATOM     34  C   UNL d   1     -38.128  12.998  22.460  0.00  0.00     0.001 A 
ATOM     35  C   UNL d   1     -37.968  13.629  22.968  0.00  0.00     0.000 A 
ATOM     36  C   UNL d   1     -37.947  14.405  22.682  0.00  0.00     0.001 A 
ATOM     37  C   UNL d   1     -38.088  14.542  21.886  0.00  0.00     0.011 A 
ENDBRANCH  29  32
ENDBRANCH   2  29
TORSDOF 6
ENDMDL
