MODEL 1
REMARK VINA RESULT:      -6.6      0.000      0.000
REMARK  4 active torsions:
REMARK  status: ('A' for Active; 'I' for Inactive)
REMARK    1  A    between atoms: C_6  and  C_1 
REMARK    2  A    between atoms: C_8  and  N_3 
REMARK    3  A    between atoms: C_7  and  C_4 
REMARK    4  A    between atoms: O_16  and  C_13 
ROOT
ATOM      1  C   UNL d   1     -47.763  13.294  22.202  0.00  0.00     0.103 A 
ATOM      2  N   UNL d   1     -46.975  14.268  22.889  0.00  0.00    -0.165 NA
ATOM      3  N   UNL d   1     -46.353  13.112  22.347  0.00  0.00    -0.228 N 
ATOM      4  C   UNL d   1     -47.702  14.006  22.614  0.00  0.00     0.109 A 
ATOM      5  C   UNL d   1     -47.079  12.850  22.072  0.00  0.00     0.108 A 
ENDROOT
BRANCH   4   6
ATOM      6  C   UNL d   1     -48.377  14.454  22.747  0.00  0.00     0.020 A 
ATOM      7  C   UNL d   1     -48.912  14.229  23.336  0.00  0.00     0.004 A 
ATOM      8  C   UNL d   1     -49.595  14.683  23.470  0.00  0.00     0.024 A 
ATOM      9  C   UNL d   1     -49.736  15.355  23.017  0.00  0.00     0.094 A 
ATOM     10  C   UNL d   1     -49.201  15.581  22.428  0.00  0.00     0.024 A 
ATOM     11  C   UNL d   1     -48.518  15.126  22.294  0.00  0.00     0.004 A 
BRANCH   9  12
ATOM     12  O   UNL d   1     -50.438  15.824  23.153  0.00  0.00    -0.328 OA
ATOM     13  C   UNL d   1     -51.060  15.517  23.639  0.00  0.00     0.181 C 
ENDBRANCH   9  12
ENDBRANCH   4   6
BRANCH   1  14
ATOM     14  C   UNL d   1     -48.490  13.032  21.926  0.00  0.00     0.214 C 
ATOM     15  O   UNL d   1     -48.972  12.557  22.398  0.00  0.00    -0.644 OA
ATOM     16  O   UNL d   1     -48.757  13.251  21.139  0.00  0.00    -0.644 OA
ENDBRANCH   1  14
BRANCH   3  17
ATOM     17  C   UNL d   1     -45.580  12.824  22.321  0.00  0.00     0.083 A 
ATOM     18  C   UNL d   1     -45.011  13.207  21.866  0.00  0.00     0.019 A 
ATOM     19  C   UNL d   1     -44.238  12.919  21.840  0.00  0.00     0.002 A 
ATOM     20  C   UNL d   1     -44.035  12.247  22.270  0.00  0.00     0.000 A 
ATOM     21  C   UNL d   1     -44.603  11.863  22.725  0.00  0.00     0.002 A 
ATOM     22  C   UNL d   1     -45.375  12.151  22.751  0.00  0.00     0.019 A 
ENDBRANCH   3  17
TORSDOF 4
ENDMDL
MODEL 2
REMARK VINA RESULT:      -6.5      1.845      4.772
REMARK  4 active torsions:
REMARK  status: ('A' for Active; 'I' for Inactive)
REMARK    1  A    between atoms: C_6  and  C_1 
REMARK    2  A    between atoms: C_8  and  N_3 
REMARK    3  A    between atoms: C_7  and  C_4 
REMARK    4  A    between atoms: O_16  and  C_13 
ROOT
ATOM      1  C   UNL d   1     -47.316  13.716  22.760  0.00  0.00     0.103 A 
ATOM      2  N   UNL d   1     -48.079  12.515  22.630  0.00  0.00    -0.165 NA
ATOM      3  N   UNL d   1     -48.718  13.776  22.488  0.00  0.00    -0.228 N 
ATOM      4  C   UNL d   1     -47.364  12.893  22.763  0.00  0.00     0.109 A 
ATOM      5  C   UNL d   1     -48.003  14.154  22.621  0.00  0.00     0.108 A 
ENDROOT
BRANCH   4   6
ATOM      6  C   UNL d   1     -46.686  12.450  22.901  0.00  0.00     0.020 A 
ATOM      7  C   UNL d   1     -46.044  12.506  22.383  0.00  0.00     0.004 A 
ATOM      8  C   UNL d   1     -45.358  12.057  22.523  0.00  0.00     0.024 A 
ATOM      9  C   UNL d   1     -45.321  11.559  23.177  0.00  0.00     0.094 A 
ATOM     10  C   UNL d   1     -45.963  11.503  23.695  0.00  0.00     0.024 A 
ATOM     11  C   UNL d   1     -46.649  11.952  23.554  0.00  0.00     0.004 A 
BRANCH   9  12
ATOM     12  O   UNL d   1     -44.617  11.097  23.323  0.00  0.00    -0.328 OA
ATOM     13  C   UNL d   1     -44.682  10.337  23.688  0.00  0.00     0.181 C 
ENDBRANCH   9  12
ENDBRANCH   4   6
BRANCH   1  14
ATOM     14  C   UNL d   1     -46.600  14.094  22.894  0.00  0.00     0.214 C 
ATOM     15  O   UNL d   1     -46.146  14.369  22.262  0.00  0.00    -0.644 OA
ATOM     16  O   UNL d   1     -46.315  14.208  23.696  0.00  0.00    -0.644 OA
ENDBRANCH   1  14
BRANCH   3  17
ATOM     17  C   UNL d   1     -49.490  14.025  22.335  0.00  0.00     0.083 A 
ATOM     18  C   UNL d   1     -49.854  14.572  22.831  0.00  0.00     0.019 A 
ATOM     19  C   UNL d   1     -50.626  14.820  22.677  0.00  0.00     0.002 A 
ATOM     20  C   UNL d   1     -51.033  14.521  22.027  0.00  0.00     0.000 A 
ATOM     21  C   UNL d   1     -50.669  13.974  21.531  0.00  0.00     0.002 A 
ATOM     22  C   UNL d   1     -49.898  13.726  21.685  0.00  0.00     0.019 A 
ENDBRANCH   3  17
TORSDOF 4
ENDMDL
MODEL 3
REMARK VINA RESULT:      -6.3      8.514      9.022
REMARK  4 active torsions:
REMARK  status: ('A' for Active; 'I' for Inactive)
REMARK    1  A    between atoms: C_6  and  C_1 
REMARK    2  A    between atoms: C_8  and  N_3 
REMARK    3  A    between atoms: C_7  and  C_4 
REMARK    4  A    between atoms: O_16  and  C_13 
ROOT
ATOM      1  C   UNL d   1     -38.998  14.819  19.689  0.00  0.00     0.103 A 
ATOM      2  N   UNL d   1     -40.258  14.439  20.244  0.00  0.00    -0.165 NA
ATOM      3  N   UNL d   1     -39.096  14.436  21.062  0.00  0.00    -0.228 N 
ATOM      4  C   UNL d   1     -39.808  14.691  19.607  0.00  0.00     0.109 A 
ATOM      5  C   UNL d   1     -38.647  14.688  20.425  0.00  0.00     0.108 A 
ENDROOT
BRANCH   4   6
ATOM      6  C   UNL d   1     -40.165  14.819  18.879  0.00  0.00     0.020 A 
ATOM      7  C   UNL d   1     -40.475  15.564  18.695  0.00  0.00     0.004 A 
ATOM      8  C   UNL d   1     -40.836  15.692  17.958  0.00  0.00     0.024 A 
ATOM      9  C   UNL d   1     -40.884  15.078  17.412  0.00  0.00     0.094 A 
ATOM     10  C   UNL d   1     -40.573  14.333  17.595  0.00  0.00     0.024 A 
ATOM     11  C   UNL d   1     -40.212  14.205  18.333  0.00  0.00     0.004 A 
BRANCH   9  12
ATOM     12  O   UNL d   1     -41.254  15.208  16.653  0.00  0.00    -0.328 OA
ATOM     13  C   UNL d   1     -41.685  15.922  16.513  0.00  0.00     0.181 C 
ENDBRANCH   9  12
ENDBRANCH   4   6
BRANCH   1  14
ATOM     14  C   UNL d   1     -38.548  15.072  19.051  0.00  0.00     0.214 C 
ATOM     15  O   UNL d   1     -38.187  14.526  18.548  0.00  0.00    -0.644 OA
ATOM     16  O   UNL d   1     -38.448  15.912  18.900  0.00  0.00    -0.644 OA
ENDBRANCH   1  14
BRANCH   3  17
ATOM     17  C   UNL d   1     -38.940  14.255  21.852  0.00  0.00     0.083 A 
ATOM     18  C   UNL d   1     -38.964  14.846  22.424  0.00  0.00     0.019 A 
ATOM     19  C   UNL d   1     -38.807  14.664  23.214  0.00  0.00     0.002 A 
ATOM     20  C   UNL d   1     -38.627  13.890  23.430  0.00  0.00     0.000 A 
ATOM     21  C   UNL d   1     -38.602  13.299  22.858  0.00  0.00     0.002 A 
ATOM     22  C   UNL d   1     -38.759  13.481  22.070  0.00  0.00     0.019 A 
ENDBRANCH   3  17
TORSDOF 4
ENDMDL
MODEL 4
REMARK VINA RESULT:      -6.3      8.424      9.869
REMARK  4 active torsions:
REMARK  status: ('A' for Active; 'I' for Inactive)
REMARK    1  A    between atoms: C_6  and  C_1 
REMARK    2  A    between atoms: C_8  and  N_3 
REMARK    3  A    between atoms: C_7  and  C_4 
REMARK    4  A    between atoms: O_16  and  C_13 
ROOT
ATOM      1  C   UNL d   1     -39.956  14.608  18.711  0.00  0.00     0.103 A 
ATOM      2  N   UNL d   1     -38.566  14.764  18.999  0.00  0.00    -0.165 NA
ATOM      3  N   UNL d   1     -39.519  14.852  20.050  0.00  0.00    -0.228 N 
ATOM      4  C   UNL d   1     -39.170  14.632  18.462  0.00  0.00     0.109 A 
ATOM      5  C   UNL d   1     -40.123  14.719  19.512  0.00  0.00     0.108 A 
ENDROOT
BRANCH   4   6
ATOM      6  C   UNL d   1     -38.996  14.522  17.667  0.00  0.00     0.020 A 
ATOM      7  C   UNL d   1     -38.808  13.767  17.386  0.00  0.00     0.004 A 
ATOM      8  C   UNL d   1     -38.632  13.657  16.581  0.00  0.00     0.024 A 
ATOM      9  C   UNL d   1     -38.645  14.299  16.067  0.00  0.00     0.094 A 
ATOM     10  C   UNL d   1     -38.832  15.054  16.348  0.00  0.00     0.024 A 
ATOM     11  C   UNL d   1     -39.009  15.164  17.153  0.00  0.00     0.004 A 
BRANCH   9  12
ATOM     12  O   UNL d   1     -38.463  14.188  15.239  0.00  0.00    -0.328 OA
ATOM     13  C   UNL d   1     -37.945  13.563  15.003  0.00  0.00     0.181 C 
ENDBRANCH   9  12
ENDBRANCH   4   6
BRANCH   1  14
ATOM     14  C   UNL d   1     -40.562  14.475  18.173  0.00  0.00     0.214 C 
ATOM     15  O   UNL d   1     -40.940  15.107  17.801  0.00  0.00    -0.644 OA
ATOM     16  O   UNL d   1     -40.809  13.672  17.991  0.00  0.00    -0.644 OA
ENDBRANCH   1  14
BRANCH   3  17
ATOM     17  C   UNL d   1     -39.479  14.982  20.864  0.00  0.00     0.083 A 
ATOM     18  C   UNL d   1     -39.516  15.748  21.162  0.00  0.00     0.019 A 
ATOM     19  C   UNL d   1     -39.476  15.878  21.976  0.00  0.00     0.002 A 
ATOM     20  C   UNL d   1     -39.399  15.240  22.491  0.00  0.00     0.000 A 
ATOM     21  C   UNL d   1     -39.362  14.474  22.193  0.00  0.00     0.002 A 
ATOM     22  C   UNL d   1     -39.401  14.345  21.380  0.00  0.00     0.019 A 
ENDBRANCH   3  17
TORSDOF 4
ENDMDL
MODEL 5
REMARK VINA RESULT:      -5.8      7.273      8.834
REMARK  4 active torsions:
REMARK  status: ('A' for Active; 'I' for Inactive)
REMARK    1  A    between atoms: C_6  and  C_1 
REMARK    2  A    between atoms: C_8  and  N_3 
REMARK    3  A    between atoms: C_7  and  C_4 
REMARK    4  A    between atoms: O_16  and  C_13 
ROOT
ATOM      1  C   UNL d   1     -40.557  14.946  20.229  0.00  0.00     0.103 A 
ATOM      2  N   UNL d   1     -39.207  14.996  19.763  0.00  0.00    -0.165 NA
ATOM      3  N   UNL d   1     -40.279  15.131  18.839  0.00  0.00    -0.228 N 
ATOM      4  C   UNL d   1     -39.746  14.918  20.376  0.00  0.00     0.109 A 
ATOM      5  C   UNL d   1     -40.817  15.053  19.453  0.00  0.00     0.108 A 
ENDROOT
BRANCH   4   6
ATOM      6  C   UNL d   1     -39.478  14.812  21.145  0.00  0.00     0.020 A 
ATOM      7  C   UNL d   1     -39.340  14.049  21.433  0.00  0.00     0.004 A 
ATOM      8  C   UNL d   1     -39.070  13.943  22.211  0.00  0.00     0.024 A 
ATOM      9  C   UNL d   1     -38.940  14.597  22.694  0.00  0.00     0.094 A 
ATOM     10  C   UNL d   1     -39.079  15.360  22.406  0.00  0.00     0.024 A 
ATOM     11  C   UNL d   1     -39.349  15.466  21.627  0.00  0.00     0.004 A 
BRANCH   9  12
ATOM     12  O   UNL d   1     -38.662  14.489  23.495  0.00  0.00    -0.328 OA
ATOM     13  C   UNL d   1     -38.226  13.794  23.698  0.00  0.00     0.181 C 
ENDBRANCH   9  12
ENDBRANCH   4   6
BRANCH   1  14
ATOM     14  C   UNL d   1     -41.096  14.869  20.844  0.00  0.00     0.214 C 
ATOM     15  O   UNL d   1     -41.366  15.533  21.251  0.00  0.00    -0.644 OA
ATOM     16  O   UNL d   1     -41.385  14.091  21.068  0.00  0.00    -0.644 OA
ENDBRANCH   1  14
BRANCH   3  17
ATOM     17  C   UNL d   1     -40.335  15.241  18.024  0.00  0.00     0.083 A 
ATOM     18  C   UNL d   1     -39.878  14.786  17.513  0.00  0.00     0.019 A 
ATOM     19  C   UNL d   1     -39.935  14.898  16.696  0.00  0.00     0.002 A 
ATOM     20  C   UNL d   1     -40.449  15.464  16.393  0.00  0.00     0.000 A 
ATOM     21  C   UNL d   1     -40.907  15.919  16.904  0.00  0.00     0.002 A 
ATOM     22  C   UNL d   1     -40.850  15.808  17.719  0.00  0.00     0.019 A 
ENDBRANCH   3  17
TORSDOF 4
ENDMDL
MODEL 6
REMARK VINA RESULT:      -5.8      1.501      2.131
REMARK  4 active torsions:
REMARK  status: ('A' for Active; 'I' for Inactive)
REMARK    1  A    between atoms: C_6  and  C_1 
REMARK    2  A    between atoms: C_8  and  N_3 
REMARK    3  A    between atoms: C_7  and  C_4 
REMARK    4  A    between atoms: O_16  and  C_13 
ROOT
ATOM      1  C   UNL d   1     -46.640  12.872  22.820  0.00  0.00     0.103 A 
ATOM      2  N   UNL d   1     -47.233  11.589  23.036  0.00  0.00    -0.165 NA
ATOM      3  N   UNL d   1     -45.819  11.731  23.084  0.00  0.00    -0.228 N 
ATOM      4  C   UNL d   1     -47.308  12.390  22.877  0.00  0.00     0.109 A 
ATOM      5  C   UNL d   1     -45.895  12.533  22.926  0.00  0.00     0.108 A 
ENDROOT
BRANCH   4   6
ATOM      6  C   UNL d   1     -48.052  12.720  22.774  0.00  0.00     0.020 A 
ATOM      7  C   UNL d   1     -48.452  12.620  22.057  0.00  0.00     0.004 A 
ATOM      8  C   UNL d   1     -49.206  12.954  21.954  0.00  0.00     0.024 A 
ATOM      9  C   UNL d   1     -49.553  13.383  22.565  0.00  0.00     0.094 A 
ATOM     10  C   UNL d   1     -49.153  13.482  23.282  0.00  0.00     0.024 A 
ATOM     11  C   UNL d   1     -48.399  13.148  23.385  0.00  0.00     0.004 A 
BRANCH   9  12
ATOM     12  O   UNL d   1     -50.328  13.727  22.460  0.00  0.00    -0.328 OA
ATOM     13  C   UNL d   1     -50.606  14.308  23.008  0.00  0.00     0.181 C 
ENDBRANCH   9  12
ENDBRANCH   4   6
BRANCH   1  14
ATOM     14  C   UNL d   1     -46.716  13.674  22.662  0.00  0.00     0.214 C 
ATOM     15  O   UNL d   1     -46.698  13.952  21.885  0.00  0.00    -0.644 OA
ATOM     16  O   UNL d   1     -46.814  14.233  23.306  0.00  0.00    -0.644 OA
ENDBRANCH   1  14
BRANCH   3  17
ATOM     17  C   UNL d   1     -45.186  11.219  23.217  0.00  0.00     0.083 A 
ATOM     18  C   UNL d   1     -44.424  11.441  23.001  0.00  0.00     0.019 A 
ATOM     19  C   UNL d   1     -43.790  10.928  23.134  0.00  0.00     0.002 A 
ATOM     20  C   UNL d   1     -43.921  10.194  23.483  0.00  0.00     0.000 A 
ATOM     21  C   UNL d   1     -44.684   9.972  23.698  0.00  0.00     0.002 A 
ATOM     22  C   UNL d   1     -45.316  10.484  23.565  0.00  0.00     0.019 A 
ENDBRANCH   3  17
TORSDOF 4
ENDMDL
MODEL 7
REMARK VINA RESULT:      -5.6      8.432      9.615
REMARK  4 active torsions:
REMARK  status: ('A' for Active; 'I' for Inactive)
REMARK    1  A    between atoms: C_6  and  C_1 
REMARK    2  A    between atoms: C_8  and  N_3 
REMARK    3  A    between atoms: C_7  and  C_4 
REMARK    4  A    between atoms: O_16  and  C_13 
ROOT
ATOM      1  C   UNL d   1     -39.746  14.723  18.648  0.00  0.00     0.103 A 
ATOM      2  N   UNL d   1     -38.328  14.768  18.817  0.00  0.00    -0.165 NA
ATOM      3  N   UNL d   1     -38.878  14.507  17.533  0.00  0.00    -0.228 N 
ATOM      4  C   UNL d   1     -39.084  14.824  19.129  0.00  0.00     0.109 A 
ATOM      5  C   UNL d   1     -39.634  14.563  17.845  0.00  0.00     0.108 A 
ENDROOT
BRANCH   4   6
ATOM      6  C   UNL d   1     -39.187  14.983  19.928  0.00  0.00     0.020 A 
ATOM      7  C   UNL d   1     -39.284  15.763  20.185  0.00  0.00     0.004 A 
ATOM      8  C   UNL d   1     -39.388  15.922  20.995  0.00  0.00     0.024 A 
ATOM      9  C   UNL d   1     -39.395  15.303  21.537  0.00  0.00     0.094 A 
ATOM     10  C   UNL d   1     -39.298  14.523  21.280  0.00  0.00     0.024 A 
ATOM     11  C   UNL d   1     -39.194  14.364  20.470  0.00  0.00     0.004 A 
BRANCH   9  12
ATOM     12  O   UNL d   1     -39.502  15.465  22.369  0.00  0.00    -0.328 OA
ATOM     13  C   UNL d   1     -38.895  15.868  22.800  0.00  0.00     0.181 C 
ENDBRANCH   9  12
ENDBRANCH   4   6
BRANCH   1  14
ATOM     14  C   UNL d   1     -40.503  14.779  18.960  0.00  0.00     0.214 C 
ATOM     15  O   UNL d   1     -40.893  15.505  18.990  0.00  0.00    -0.644 OA
ATOM     16  O   UNL d   1     -40.898  14.078  19.261  0.00  0.00    -0.644 OA
ENDBRANCH   1  14
BRANCH   3  17
ATOM     17  C   UNL d   1     -38.565  14.360  16.784  0.00  0.00     0.083 A 
ATOM     18  C   UNL d   1     -38.481  14.975  16.243  0.00  0.00     0.019 A 
ATOM     19  C   UNL d   1     -38.168  14.827  15.494  0.00  0.00     0.002 A 
ATOM     20  C   UNL d   1     -37.940  14.064  15.286  0.00  0.00     0.000 A 
ATOM     21  C   UNL d   1     -38.024  13.449  15.826  0.00  0.00     0.002 A 
ATOM     22  C   UNL d   1     -38.336  13.597  16.575  0.00  0.00     0.019 A 
ENDBRANCH   3  17
TORSDOF 4
ENDMDL
