MODEL 1
REMARK VINA RESULT:      -9.1      0.000      0.000
REMARK  3 active torsions:
REMARK  status: ('A' for Active; 'I' for Inactive)
REMARK    1  A    between atoms: C_7  and  C_1 
REMARK    2  A    between atoms: O_14  and  C_7 
REMARK    3  A    between atoms: C_17  and  O_14 
ROOT
ATOM      1  C   UNL d   1     -49.377  12.343  23.244  0.00  0.00     0.127 A 
ATOM      2  C   UNL d   1     -49.298  11.585  23.545  0.00  0.00     0.305 A 
ATOM      3  C   UNL d   1     -48.704  12.795  23.095  0.00  0.00     0.013 A 
ATOM      4  C   UNL d   1     -47.952  12.491  23.246  0.00  0.00     0.023 A 
ATOM      5  O   UNL d   1     -48.547  11.280  23.696  0.00  0.00    -0.273 OA
ATOM      6  C   UNL d   1     -47.874  11.733  23.547  0.00  0.00     0.103 A 
ATOM      7  C   UNL d   1     -47.295  12.941  23.097  0.00  0.00     0.002 A 
ATOM      8  O   UNL d   1     -49.989  11.131  23.694  0.00  0.00    -0.259 OA
ATOM      9  C   UNL d   1     -47.139  11.427  23.698  0.00  0.00     0.025 A 
ATOM     10  C   UNL d   1     -46.544  12.637  23.248  0.00  0.00     0.000 A 
ATOM     11  C   UNL d   1     -46.466  11.879  23.549  0.00  0.00     0.002 A 
ATOM     12  C   UNL d   1     -47.374  13.708  22.793  0.00  0.00     0.000 A 
ATOM     13  C   UNL d   1     -45.871  13.089  23.099  0.00  0.00     0.000 A 
ATOM     14  C   UNL d   1     -46.716  14.171  22.639  0.00  0.00     0.000 A 
ATOM     15  C   UNL d   1     -45.951  13.859  22.794  0.00  0.00     0.000 A 
ENDROOT
BRANCH   1  16
ATOM     16  C   UNL d   1     -50.148  12.666  23.085  0.00  0.00     0.305 C 
ATOM     17  O   UNL d   1     -50.672  12.808  23.697  0.00  0.00    -0.259 OA
BRANCH  16  18
ATOM     18  O   UNL d   1     -50.357  12.831  22.320  0.00  0.00    -0.271 OA
BRANCH  18  19
ATOM     19  C   UNL d   1     -50.975  13.356  22.167  0.00  0.00     0.126 C 
ATOM     20  C   UNL d   1     -51.063  13.773  21.395  0.00  0.00     0.029 C 
ENDBRANCH  18  19
ENDBRANCH  16  18
ENDBRANCH   1  16
TORSDOF 3
ENDMDL
MODEL 2
REMARK VINA RESULT:      -8.7      1.958      4.034
REMARK  3 active torsions:
REMARK  status: ('A' for Active; 'I' for Inactive)
REMARK    1  A    between atoms: C_7  and  C_1 
REMARK    2  A    between atoms: O_14  and  C_7 
REMARK    3  A    between atoms: C_17  and  O_14 
ROOT
ATOM      1  C   UNL d   1     -46.669  13.337  22.741  0.00  0.00     0.127 A 
ATOM      2  C   UNL d   1     -46.565  14.109  22.993  0.00  0.00     0.305 A 
ATOM      3  C   UNL d   1     -47.398  13.102  22.435  0.00  0.00     0.013 A 
ATOM      4  C   UNL d   1     -48.023  13.637  22.382  0.00  0.00     0.023 A 
ATOM      5  O   UNL d   1     -47.190  14.645  22.940  0.00  0.00    -0.273 OA
ATOM      6  C   UNL d   1     -47.919  14.409  22.634  0.00  0.00     0.103 A 
ATOM      7  C   UNL d   1     -48.736  13.398  22.080  0.00  0.00     0.002 A 
ATOM      8  O   UNL d   1     -45.819  14.341  23.303  0.00  0.00    -0.259 OA
ATOM      9  C   UNL d   1     -48.528  14.941  22.585  0.00  0.00     0.025 A 
ATOM     10  C   UNL d   1     -49.361  13.934  22.027  0.00  0.00     0.000 A 
ATOM     11  C   UNL d   1     -49.257  14.706  22.280  0.00  0.00     0.002 A 
ATOM     12  C   UNL d   1     -48.841  12.617  21.825  0.00  0.00     0.000 A 
ATOM     13  C   UNL d   1     -50.090  13.698  21.722  0.00  0.00     0.000 A 
ATOM     14  C   UNL d   1     -49.560  12.367  21.519  0.00  0.00     0.000 A 
ATOM     15  C   UNL d   1     -50.196  12.913  21.465  0.00  0.00     0.000 A 
ENDROOT
BRANCH   1  16
ATOM     16  C   UNL d   1     -46.030  12.777  22.792  0.00  0.00     0.305 C 
ATOM     17  O   UNL d   1     -45.360  12.871  22.333  0.00  0.00    -0.259 OA
BRANCH  16  18
ATOM     18  O   UNL d   1     -46.094  12.150  23.300  0.00  0.00    -0.271 OA
BRANCH  18  19
ATOM     19  C   UNL d   1     -45.573  11.514  23.235  0.00  0.00     0.126 C 
ATOM     20  C   UNL d   1     -45.672  10.770  23.698  0.00  0.00     0.029 C 
ENDBRANCH  18  19
ENDBRANCH  16  18
ENDBRANCH   1  16
TORSDOF 3
ENDMDL
MODEL 3
REMARK VINA RESULT:      -8.6      1.477      3.538
REMARK  3 active torsions:
REMARK  status: ('A' for Active; 'I' for Inactive)
REMARK    1  A    between atoms: C_7  and  C_1 
REMARK    2  A    between atoms: O_14  and  C_7 
REMARK    3  A    between atoms: C_17  and  O_14 
ROOT
ATOM      1  C   UNL d   1     -46.951  12.549  23.035  0.00  0.00     0.127 A 
ATOM      2  C   UNL d   1     -47.024  11.812  23.385  0.00  0.00     0.305 A 
ATOM      3  C   UNL d   1     -47.618  12.922  22.725  0.00  0.00     0.013 A 
ATOM      4  C   UNL d   1     -48.358  12.559  22.764  0.00  0.00     0.023 A 
ATOM      5  O   UNL d   1     -47.763  11.449  23.423  0.00  0.00    -0.273 OA
ATOM      6  C   UNL d   1     -48.430  11.822  23.113  0.00  0.00     0.103 A 
ATOM      7  C   UNL d   1     -49.009  12.932  22.457  0.00  0.00     0.002 A 
ATOM      8  O   UNL d   1     -46.339  11.439  23.698  0.00  0.00    -0.259 OA
ATOM      9  C   UNL d   1     -49.153  11.458  23.155  0.00  0.00     0.025 A 
ATOM     10  C   UNL d   1     -49.748  12.569  22.496  0.00  0.00     0.000 A 
ATOM     11  C   UNL d   1     -49.820  11.831  22.845  0.00  0.00     0.002 A 
ATOM     12  C   UNL d   1     -48.936  13.677  22.104  0.00  0.00     0.000 A 
ATOM     13  C   UNL d   1     -50.415  12.942  22.186  0.00  0.00     0.000 A 
ATOM     14  C   UNL d   1     -49.588  14.062  21.791  0.00  0.00     0.000 A 
ATOM     15  C   UNL d   1     -50.341  13.691  21.832  0.00  0.00     0.000 A 
ENDROOT
BRANCH   1  16
ATOM     16  C   UNL d   1     -46.193  12.932  22.991  0.00  0.00     0.305 C 
ATOM     17  O   UNL d   1     -45.939  13.421  23.596  0.00  0.00    -0.259 OA
BRANCH  16  18
ATOM     18  O   UNL d   1     -45.725  12.808  22.341  0.00  0.00    -0.271 OA
BRANCH  18  19
ATOM     19  C   UNL d   1     -45.065  13.286  22.213  0.00  0.00     0.126 C 
ATOM     20  C   UNL d   1     -44.467  13.111  21.589  0.00  0.00     0.029 C 
ENDBRANCH  18  19
ENDBRANCH  16  18
ENDBRANCH   1  16
TORSDOF 3
ENDMDL
MODEL 4
REMARK VINA RESULT:      -8.6      1.939      4.057
REMARK  3 active torsions:
REMARK  status: ('A' for Active; 'I' for Inactive)
REMARK    1  A    between atoms: C_7  and  C_1 
REMARK    2  A    between atoms: O_14  and  C_7 
REMARK    3  A    between atoms: C_17  and  O_14 
ROOT
ATOM      1  C   UNL d   1     -47.277  14.085  22.802  0.00  0.00     0.127 A 
ATOM      2  C   UNL d   1     -47.477  14.860  22.629  0.00  0.00     0.305 A 
ATOM      3  C   UNL d   1     -47.871  13.519  22.888  0.00  0.00     0.013 A 
ATOM      4  C   UNL d   1     -48.664  13.727  22.800  0.00  0.00     0.023 A 
ATOM      5  O   UNL d   1     -48.270  15.068  22.542  0.00  0.00    -0.273 OA
ATOM      6  C   UNL d   1     -48.864  14.502  22.628  0.00  0.00     0.103 A 
ATOM      7  C   UNL d   1     -49.242  13.165  22.886  0.00  0.00     0.002 A 
ATOM      8  O   UNL d   1     -46.867  15.431  22.544  0.00  0.00    -0.259 OA
ATOM      9  C   UNL d   1     -49.642  14.714  22.541  0.00  0.00     0.025 A 
ATOM     10  C   UNL d   1     -50.035  13.373  22.799  0.00  0.00     0.000 A 
ATOM     11  C   UNL d   1     -50.235  14.148  22.626  0.00  0.00     0.002 A 
ATOM     12  C   UNL d   1     -49.040  12.381  23.060  0.00  0.00     0.000 A 
ATOM     13  C   UNL d   1     -50.628  12.807  22.884  0.00  0.00     0.000 A 
ATOM     14  C   UNL d   1     -49.617  11.806  23.149  0.00  0.00     0.000 A 
ATOM     15  C   UNL d   1     -50.425  12.019  23.060  0.00  0.00     0.000 A 
ENDROOT
BRANCH   1  16
ATOM     16  C   UNL d   1     -46.462  13.860  22.894  0.00  0.00     0.305 C 
ATOM     17  O   UNL d   1     -46.083  13.959  23.612  0.00  0.00    -0.259 OA
BRANCH  16  18
ATOM     18  O   UNL d   1     -46.064  13.547  22.261  0.00  0.00    -0.271 OA
BRANCH  18  19
ATOM     19  C   UNL d   1     -45.344  13.161  22.378  0.00  0.00     0.126 C 
ATOM     20  C   UNL d   1     -44.833  12.898  21.710  0.00  0.00     0.029 C 
ENDBRANCH  18  19
ENDBRANCH  16  18
ENDBRANCH   1  16
TORSDOF 3
ENDMDL
MODEL 5
REMARK VINA RESULT:      -6.6      8.504      9.972
REMARK  3 active torsions:
REMARK  status: ('A' for Active; 'I' for Inactive)
REMARK    1  A    between atoms: C_7  and  C_1 
REMARK    2  A    between atoms: O_14  and  C_7 
REMARK    3  A    between atoms: C_17  and  O_14 
ROOT
ATOM      1  C   UNL d   1     -40.482  14.830  19.979  0.00  0.00     0.127 A 
ATOM      2  C   UNL d   1     -40.855  15.550  19.863  0.00  0.00     0.305 A 
ATOM      3  C   UNL d   1     -40.095  14.464  19.350  0.00  0.00     0.013 A 
ATOM      4  C   UNL d   1     -40.080  14.816  18.605  0.00  0.00     0.023 A 
ATOM      5  O   UNL d   1     -40.840  15.903  19.118  0.00  0.00    -0.273 OA
ATOM      6  C   UNL d   1     -40.452  15.536  18.489  0.00  0.00     0.103 A 
ATOM      7  C   UNL d   1     -39.697  14.450  17.991  0.00  0.00     0.002 A 
ATOM      8  O   UNL d   1     -41.247  15.916  20.509  0.00  0.00    -0.259 OA
ATOM      9  C   UNL d   1     -40.441  15.889  17.759  0.00  0.00     0.025 A 
ATOM     10  C   UNL d   1     -39.681  14.803  17.246  0.00  0.00     0.000 A 
ATOM     11  C   UNL d   1     -40.054  15.523  17.130  0.00  0.00     0.002 A 
ATOM     12  C   UNL d   1     -39.320  13.722  18.109  0.00  0.00     0.000 A 
ATOM     13  C   UNL d   1     -39.294  14.437  16.617  0.00  0.00     0.000 A 
ATOM     14  C   UNL d   1     -38.931  13.345  17.494  0.00  0.00     0.000 A 
ATOM     15  C   UNL d   1     -38.916  13.705  16.735  0.00  0.00     0.000 A 
ENDROOT
BRANCH   1  16
ATOM     16  C   UNL d   1     -40.493  14.458  20.745  0.00  0.00     0.305 C 
ATOM     17  O   UNL d   1     -41.171  14.090  21.017  0.00  0.00    -0.259 OA
BRANCH  16  18
ATOM     18  O   UNL d   1     -39.823  14.472  21.200  0.00  0.00    -0.271 OA
BRANCH  18  19
ATOM     19  C   UNL d   1     -39.748  13.953  21.837  0.00  0.00     0.126 C 
ATOM     20  C   UNL d   1     -39.008  13.890  22.313  0.00  0.00     0.029 C 
ENDBRANCH  18  19
ENDBRANCH  16  18
ENDBRANCH   1  16
TORSDOF 3
ENDMDL
MODEL 6
REMARK VINA RESULT:      -6.6      8.904      9.839
REMARK  3 active torsions:
REMARK  status: ('A' for Active; 'I' for Inactive)
REMARK    1  A    between atoms: C_7  and  C_1 
REMARK    2  A    between atoms: O_14  and  C_7 
REMARK    3  A    between atoms: C_17  and  O_14 
ROOT
ATOM      1  C   UNL d   1     -40.139  15.026  17.646  0.00  0.00     0.127 A 
ATOM      2  C   UNL d   1     -39.612  14.407  17.544  0.00  0.00     0.305 A 
ATOM      3  C   UNL d   1     -40.371  15.245  18.406  0.00  0.00     0.013 A 
ATOM      4  C   UNL d   1     -40.077  14.845  19.065  0.00  0.00     0.023 A 
ATOM      5  O   UNL d   1     -39.318  14.008  18.203  0.00  0.00    -0.273 OA
ATOM      6  C   UNL d   1     -39.551  14.227  18.963  0.00  0.00     0.103 A 
ATOM      7  C   UNL d   1     -40.310  15.066  19.810  0.00  0.00     0.002 A 
ATOM      8  O   UNL d   1     -39.381  14.191  16.766  0.00  0.00    -0.259 OA
ATOM      9  C   UNL d   1     -39.257  13.829  19.606  0.00  0.00     0.025 A 
ATOM     10  C   UNL d   1     -40.016  14.667  20.468  0.00  0.00     0.000 A 
ATOM     11  C   UNL d   1     -39.490  14.048  20.367  0.00  0.00     0.002 A 
ATOM     12  C   UNL d   1     -40.843  15.692  19.912  0.00  0.00     0.000 A 
ATOM     13  C   UNL d   1     -40.249  14.885  21.229  0.00  0.00     0.000 A 
ATOM     14  C   UNL d   1     -41.084  15.922  20.662  0.00  0.00     0.000 A 
ATOM     15  C   UNL d   1     -40.784  15.514  21.332  0.00  0.00     0.000 A 
ENDROOT
BRANCH   1  16
ATOM     16  C   UNL d   1     -40.448  15.445  16.972  0.00  0.00     0.305 C 
ATOM     17  O   UNL d   1     -39.956  15.907  16.511  0.00  0.00    -0.259 OA
BRANCH  16  18
ATOM     18  O   UNL d   1     -41.235  15.379  16.793  0.00  0.00    -0.271 OA
BRANCH  18  19
ATOM     19  C   UNL d   1     -41.573  15.884  16.235  0.00  0.00     0.126 C 
ATOM     20  C   UNL d   1     -42.443  15.922  16.094  0.00  0.00     0.029 C 
ENDBRANCH  18  19
ENDBRANCH  16  18
ENDBRANCH   1  16
TORSDOF 3
ENDMDL
