MODEL 1
REMARK VINA RESULT:      -5.5      0.000      0.000
REMARK  1 active torsions:
REMARK  status: ('A' for Active; 'I' for Inactive)
REMARK    1  A    between atoms: C_10  and  N_2 
ROOT
ATOM      1  C   UNL d   1     -41.534-122.927 -52.545  0.00  0.00     0.174 A 
ATOM      2  N   UNL d   1     -41.856-122.613 -51.192  0.00  0.00    -0.224 N 
ATOM      3  C   UNL d   1     -41.511-123.113 -51.745  0.00  0.00     0.292 A 
ATOM      4  C   UNL d   1     -41.902-122.243 -52.796  0.00  0.00     0.115 A 
ATOM      5  C   UNL d   1     -42.225-121.927 -51.437  0.00  0.00     0.356 A 
ATOM      6  N   UNL d   1     -42.247-121.742 -52.242  0.00  0.00    -0.190 NA
ATOM      7  O   UNL d   1     -41.238-123.321 -53.213  0.00  0.00    -0.301 OA
ATOM      8  C   UNL d   1     -41.839-122.203 -53.621  0.00  0.00     0.043 A 
ATOM      9  C   UNL d   1     -41.428-122.870 -53.880  0.00  0.00     0.102 A 
ATOM     10  O   UNL d   1     -41.133-123.817 -51.484  0.00  0.00    -0.264 OA
ATOM     11  O   UNL d   1     -42.577-121.416 -50.880  0.00  0.00    -0.244 OA
ATOM     12  C   UNL d   1     -42.102-121.647 -54.158  0.00  0.00     0.004 A 
ATOM     13  C   UNL d   1     -41.281-122.982 -54.674  0.00  0.00     0.025 A 
ATOM     14  C   UNL d   1     -41.956-121.754 -54.969  0.00  0.00     0.000 A 
ATOM     15  C   UNL d   1     -41.546-122.421 -55.227  0.00  0.00     0.002 A 
ENDROOT
BRANCH   2  16
ATOM     16  C   UNL d   1     -41.831-122.803 -50.384  0.00  0.00     0.071 A 
ATOM     17  C   UNL d   1     -41.156-122.644 -49.942  0.00  0.00     0.018 A 
ATOM     18  C   UNL d   1     -41.135-122.833 -49.140  0.00  0.00     0.002 A 
ATOM     19  C   UNL d   1     -41.791-123.182 -48.783  0.00  0.00     0.000 A 
ATOM     20  C   UNL d   1     -42.466-123.343 -49.218  0.00  0.00     0.002 A 
ATOM     21  C   UNL d   1     -41.770-123.373 -47.977  0.00  0.00     0.000 C 
ATOM     22  C   UNL d   1     -42.485-123.151 -50.024  0.00  0.00     0.018 A 
ENDBRANCH   2  16
TORSDOF 1
ENDMDL
MODEL 2
REMARK VINA RESULT:      -5.0      0.832      4.230
REMARK  1 active torsions:
REMARK  status: ('A' for Active; 'I' for Inactive)
REMARK    1  A    between atoms: C_10  and  N_2 
ROOT
ATOM      1  C   UNL d   1     -41.666-123.078 -51.333  0.00  0.00     0.174 A 
ATOM      2  N   UNL d   1     -41.576-122.315 -52.534  0.00  0.00    -0.224 N 
ATOM      3  C   UNL d   1     -41.755-123.018 -52.148  0.00  0.00     0.292 A 
ATOM      4  C   UNL d   1     -41.399-122.439 -50.902  0.00  0.00     0.115 A 
ATOM      5  C   UNL d   1     -41.308-121.672 -52.107  0.00  0.00     0.356 A 
ATOM      6  N   UNL d   1     -41.220-121.736 -51.288  0.00  0.00    -0.190 NA
ATOM      7  O   UNL d   1     -41.802-123.706 -50.807  0.00  0.00    -0.301 OA
ATOM      8  C   UNL d   1     -41.366-122.661 -50.103  0.00  0.00     0.043 A 
ATOM      9  C   UNL d   1     -41.615-123.445 -50.045  0.00  0.00     0.102 A 
ATOM     10  O   UNL d   1     -42.030-123.675 -52.594  0.00  0.00    -0.264 OA
ATOM     11  O   UNL d   1     -41.125-120.957 -52.495  0.00  0.00    -0.244 OA
ATOM     12  C   UNL d   1     -41.142-122.248 -49.436  0.00  0.00     0.004 A 
ATOM     13  C   UNL d   1     -41.640-123.817 -49.319  0.00  0.00     0.025 A 
ATOM     14  C   UNL d   1     -41.165-122.620 -48.693  0.00  0.00     0.000 A 
ATOM     15  C   UNL d   1     -41.414-123.404 -48.635  0.00  0.00     0.002 A 
ENDROOT
BRANCH   2  16
ATOM     16  C   UNL d   1     -41.666-122.256 -53.357  0.00  0.00     0.071 A 
ATOM     17  C   UNL d   1     -41.128-122.622 -53.860  0.00  0.00     0.018 A 
ATOM     18  C   UNL d   1     -41.221-122.562 -54.677  0.00  0.00     0.002 A 
ATOM     19  C   UNL d   1     -41.853-122.134 -54.988  0.00  0.00     0.000 A 
ATOM     20  C   UNL d   1     -42.393-121.768 -54.492  0.00  0.00     0.002 A 
ATOM     21  C   UNL d   1     -41.947-122.074 -55.809  0.00  0.00     0.000 C 
ATOM     22  C   UNL d   1     -42.297-121.830 -53.671  0.00  0.00     0.018 A 
ENDBRANCH   2  16
TORSDOF 1
ENDMDL
