MODEL 1
REMARK VINA RESULT:      -8.4      0.000      0.000
REMARK  3 active torsions:
REMARK  status: ('A' for Active; 'I' for Inactive)
REMARK    1  A    between atoms: N_7  and  C_4 
REMARK    2  A    between atoms: N_9  and  N_7 
REMARK       I    between atoms: C_8  and  N_9 
REMARK    3  A    between atoms: C_10  and  C_8 
ROOT
ATOM      1  N   UNL d   1      52.786  32.986  53.050  0.00  0.00    -0.127 NA
ENDROOT
BRANCH   1   2
ATOM      2  C   UNL d   1      52.844  33.688  53.486  0.00  0.00     0.178 A 
ATOM      3  N   UNL d   1      52.312  34.302  53.354  0.00  0.00    -0.240 N 
ATOM      4  C   UNL d   1      52.369  34.997  53.785  0.00  0.00     0.343 A 
ATOM      5  C   UNL d   1      51.719  34.217  52.785  0.00  0.00     0.105 C 
ATOM      6  N   UNL d   1      52.963  35.082  54.354  0.00  0.00    -0.224 N 
ATOM      7  O   UNL d   1      51.833  35.614  53.651  0.00  0.00    -0.245 OA
ATOM      8  C   UNL d   1      53.505  34.473  54.498  0.00  0.00     0.271 A 
ATOM      9  C   UNL d   1      53.020  35.785  54.790  0.00  0.00     0.107 C 
ATOM     10  C   UNL d   1      53.438  33.773  54.055  0.00  0.00     0.101 A 
ATOM     11  O   UNL d   1      54.093  34.558  55.062  0.00  0.00    -0.266 OA
ENDBRANCH   1   2
BRANCH   1  12
ATOM     12  N   UNL d   1      52.933  32.261  53.416  0.00  0.00    -0.104 NA
ATOM     13  C   UNL d   1      52.934  31.568  52.967  0.00  0.00     0.297 C 
ATOM     14  O   UNL d   1      52.788  31.600  52.155  0.00  0.00    -0.264 OA
BRANCH  13  15
ATOM     15  C   UNL d   1      53.081  30.843  53.333  0.00  0.00     0.059 A 
ATOM     16  C   UNL d   1      52.533  30.234  53.265  0.00  0.00     0.005 A 
ATOM     17  C   UNL d   1      52.673  29.510  53.626  0.00  0.00     0.000 A 
ATOM     18  C   UNL d   1      52.121  28.899  53.557  0.00  0.00     0.000 C 
ATOM     19  C   UNL d   1      53.374  29.393  54.065  0.00  0.00     0.000 A 
ATOM     20  C   UNL d   1      53.923  30.005  54.132  0.00  0.00     0.000 A 
ATOM     21  C   UNL d   1      53.509  28.670  54.423  0.00  0.00     0.000 C 
ATOM     22  C   UNL d   1      53.769  30.732  53.762  0.00  0.00     0.005 A 
ENDBRANCH  13  15
ENDBRANCH   1  12
TORSDOF 3
ENDMDL
MODEL 2
REMARK VINA RESULT:      -8.4      3.006      4.709
REMARK  3 active torsions:
REMARK  status: ('A' for Active; 'I' for Inactive)
REMARK    1  A    between atoms: N_7  and  C_4 
REMARK    2  A    between atoms: N_9  and  N_7 
REMARK       I    between atoms: C_8  and  N_9 
REMARK    3  A    between atoms: C_10  and  C_8 
ROOT
ATOM      1  N   UNL d   1      49.792  34.567  51.912  0.00  0.00    -0.127 NA
ENDROOT
BRANCH   1   2
ATOM      2  C   UNL d   1      49.078  34.950  52.088  0.00  0.00     0.178 A 
ATOM      3  N   UNL d   1      48.462  34.949  51.543  0.00  0.00    -0.240 N 
ATOM      4  C   UNL d   1      47.756  35.328  51.716  0.00  0.00     0.343 A 
ATOM      5  C   UNL d   1      48.556  34.564  50.817  0.00  0.00     0.105 C 
ATOM      6  N   UNL d   1      47.663  35.714  52.442  0.00  0.00    -0.224 N 
ATOM      7  O   UNL d   1      47.137  35.326  51.166  0.00  0.00    -0.245 OA
ATOM      8  C   UNL d   1      48.273  35.724  53.001  0.00  0.00     0.271 A 
ATOM      9  C   UNL d   1      46.949  36.097  52.617  0.00  0.00     0.107 C 
ATOM     10  C   UNL d   1      48.984  35.336  52.814  0.00  0.00     0.101 A 
ATOM     11  O   UNL d   1      48.180  36.105  53.719  0.00  0.00    -0.266 OA
ENDBRANCH   1   2
BRANCH   1  12
ATOM     12  N   UNL d   1      50.355  34.453  52.505  0.00  0.00    -0.104 NA
ATOM     13  C   UNL d   1      51.116  34.203  52.305  0.00  0.00     0.297 C 
ATOM     14  O   UNL d   1      51.313  34.068  51.514  0.00  0.00    -0.264 OA
BRANCH  13  15
ATOM     15  C   UNL d   1      51.679  34.089  52.897  0.00  0.00     0.059 A 
ATOM     16  C   UNL d   1      52.117  34.729  53.170  0.00  0.00     0.005 A 
ATOM     17  C   UNL d   1      52.679  34.622  53.759  0.00  0.00     0.000 A 
ATOM     18  C   UNL d   1      53.120  35.267  54.033  0.00  0.00     0.000 C 
ATOM     19  C   UNL d   1      52.805  33.862  54.082  0.00  0.00     0.000 A 
ATOM     20  C   UNL d   1      52.363  33.222  53.807  0.00  0.00     0.000 A 
ATOM     21  C   UNL d   1      53.366  33.761  54.669  0.00  0.00     0.000 C 
ATOM     22  C   UNL d   1      51.799  33.343  53.211  0.00  0.00     0.005 A 
ENDBRANCH  13  15
ENDBRANCH   1  12
TORSDOF 3
ENDMDL
MODEL 3
REMARK VINA RESULT:      -8.1      1.692      4.669
REMARK  3 active torsions:
REMARK  status: ('A' for Active; 'I' for Inactive)
REMARK    1  A    between atoms: N_7  and  C_4 
REMARK    2  A    between atoms: N_9  and  N_7 
REMARK       I    between atoms: C_8  and  N_9 
REMARK    3  A    between atoms: C_10  and  C_8 
ROOT
ATOM      1  N   UNL d   1      52.623  33.315  53.064  0.00  0.00    -0.127 NA
ENDROOT
BRANCH   1   2
ATOM      2  C   UNL d   1      52.866  32.543  53.243  0.00  0.00     0.178 A 
ATOM      3  N   UNL d   1      53.332  32.399  53.905  0.00  0.00    -0.240 N 
ATOM      4  C   UNL d   1      53.573  31.636  54.081  0.00  0.00     0.343 A 
ATOM      5  C   UNL d   1      53.558  33.026  54.394  0.00  0.00     0.105 C 
ATOM      6  N   UNL d   1      53.348  31.008  53.592  0.00  0.00    -0.224 N 
ATOM      7  O   UNL d   1      54.043  31.492  54.749  0.00  0.00    -0.245 OA
ATOM      8  C   UNL d   1      52.879  31.137  52.922  0.00  0.00     0.271 A 
ATOM      9  C   UNL d   1      53.592  30.237  53.771  0.00  0.00     0.107 C 
ATOM     10  C   UNL d   1      52.641  31.916  52.753  0.00  0.00     0.101 A 
ATOM     11  O   UNL d   1      52.656  30.517  52.438  0.00  0.00    -0.266 OA
ENDBRANCH   1   2
BRANCH   1  12
ATOM     12  N   UNL d   1      51.831  33.467  52.887  0.00  0.00    -0.104 NA
ATOM     13  C   UNL d   1      51.605  34.216  52.626  0.00  0.00     0.297 C 
ATOM     14  O   UNL d   1      52.170  34.813  52.541  0.00  0.00    -0.264 OA
BRANCH  13  15
ATOM     15  C   UNL d   1      50.814  34.368  52.448  0.00  0.00     0.059 A 
ATOM     16  C   UNL d   1      50.542  34.263  51.680  0.00  0.00     0.005 A 
ATOM     17  C   UNL d   1      49.755  34.412  51.497  0.00  0.00     0.000 A 
ATOM     18  C   UNL d   1      49.483  34.306  50.722  0.00  0.00     0.000 C 
ATOM     19  C   UNL d   1      49.231  34.670  52.093  0.00  0.00     0.000 A 
ATOM     20  C   UNL d   1      49.506  34.774  52.864  0.00  0.00     0.000 A 
ATOM     21  C   UNL d   1      48.448  34.817  51.906  0.00  0.00     0.000 C 
ATOM     22  C   UNL d   1      50.303  34.620  53.035  0.00  0.00     0.005 A 
ENDBRANCH  13  15
ENDBRANCH   1  12
TORSDOF 3
ENDMDL
MODEL 4
REMARK VINA RESULT:      -7.7      1.989      4.447
REMARK  3 active torsions:
REMARK  status: ('A' for Active; 'I' for Inactive)
REMARK    1  A    between atoms: N_7  and  C_4 
REMARK    2  A    between atoms: N_9  and  N_7 
REMARK       I    between atoms: C_8  and  N_9 
REMARK    3  A    between atoms: C_10  and  C_8 
ROOT
ATOM      1  N   UNL d   1      52.221  33.458  52.767  0.00  0.00    -0.127 NA
ENDROOT
BRANCH   1   2
ATOM      2  C   UNL d   1      52.736  33.363  53.409  0.00  0.00     0.178 A 
ATOM      3  N   UNL d   1      53.092  32.635  53.551  0.00  0.00    -0.240 N 
ATOM      4  C   UNL d   1      53.601  32.541  54.186  0.00  0.00     0.343 A 
ATOM      5  C   UNL d   1      52.933  31.996  53.051  0.00  0.00     0.105 C 
ATOM      6  N   UNL d   1      53.759  33.180  54.687  0.00  0.00    -0.224 N 
ATOM      7  O   UNL d   1      53.958  31.806  54.328  0.00  0.00    -0.245 OA
ATOM      8  C   UNL d   1      53.410  33.919  54.557  0.00  0.00     0.271 A 
ATOM      9  C   UNL d   1      54.274  33.084  55.329  0.00  0.00     0.107 C 
ATOM     10  C   UNL d   1      52.895  34.002  53.910  0.00  0.00     0.101 A 
ATOM     11  O   UNL d   1      53.566  34.551  55.052  0.00  0.00    -0.266 OA
ENDBRANCH   1   2
BRANCH   1  12
ATOM     12  N   UNL d   1      51.482  33.808  52.880  0.00  0.00    -0.104 NA
ATOM     13  C   UNL d   1      51.057  34.086  52.230  0.00  0.00     0.297 C 
ATOM     14  O   UNL d   1      51.369  34.014  51.468  0.00  0.00    -0.264 OA
BRANCH  13  15
ATOM     15  C   UNL d   1      50.318  34.436  52.343  0.00  0.00     0.059 A 
ATOM     16  C   UNL d   1      49.772  34.442  51.728  0.00  0.00     0.005 A 
ATOM     17  C   UNL d   1      49.035  34.788  51.834  0.00  0.00     0.000 A 
ATOM     18  C   UNL d   1      48.487  34.793  51.214  0.00  0.00     0.000 C 
ATOM     19  C   UNL d   1      48.841  35.136  52.567  0.00  0.00     0.000 A 
ATOM     20  C   UNL d   1      49.390  35.129  53.183  0.00  0.00     0.000 A 
ATOM     21  C   UNL d   1      48.105  35.480  52.668  0.00  0.00     0.000 C 
ATOM     22  C   UNL d   1      50.130  34.775  53.063  0.00  0.00     0.005 A 
ENDBRANCH  13  15
ENDBRANCH   1  12
TORSDOF 3
ENDMDL
MODEL 5
REMARK VINA RESULT:      -6.7      1.499      4.811
REMARK  3 active torsions:
REMARK  status: ('A' for Active; 'I' for Inactive)
REMARK    1  A    between atoms: N_7  and  C_4 
REMARK    2  A    between atoms: N_9  and  N_7 
REMARK       I    between atoms: C_8  and  N_9 
REMARK    3  A    between atoms: C_10  and  C_8 
ROOT
ATOM      1  N   UNL d   1      53.931  31.545  54.354  0.00  0.00    -0.127 NA
ENDROOT
BRANCH   1   2
ATOM      2  C   UNL d   1      53.564  30.911  53.966  0.00  0.00     0.178 A 
ATOM      3  N   UNL d   1      53.398  30.216  54.373  0.00  0.00    -0.240 N 
ATOM      4  C   UNL d   1      53.035  29.589  53.990  0.00  0.00     0.343 A 
ATOM      5  C   UNL d   1      53.599  30.150  55.173  0.00  0.00     0.105 C 
ATOM      6  N   UNL d   1      52.834  29.655  53.190  0.00  0.00    -0.224 N 
ATOM      7  O   UNL d   1      52.868  28.890  54.402  0.00  0.00    -0.245 OA
ATOM      8  C   UNL d   1      52.994  30.348  52.766  0.00  0.00     0.271 A 
ATOM      9  C   UNL d   1      52.467  29.022  52.803  0.00  0.00     0.107 C 
ATOM     10  C   UNL d   1      53.363  30.977  53.166  0.00  0.00     0.101 A 
ATOM     11  O   UNL d   1      52.796  30.413  51.976  0.00  0.00    -0.266 OA
ENDBRANCH   1   2
BRANCH   1  12
ATOM     12  N   UNL d   1      53.588  32.295  54.332  0.00  0.00    -0.104 NA
ATOM     13  C   UNL d   1      54.039  32.958  54.531  0.00  0.00     0.297 C 
ATOM     14  O   UNL d   1      54.830  32.870  54.751  0.00  0.00    -0.264 OA
BRANCH  13  15
ATOM     15  C   UNL d   1      53.696  33.708  54.510  0.00  0.00     0.059 A 
ATOM     16  C   UNL d   1      53.323  33.965  53.824  0.00  0.00     0.005 A 
ATOM     17  C   UNL d   1      52.980  34.711  53.796  0.00  0.00     0.000 A 
ATOM     18  C   UNL d   1      52.605  34.969  53.105  0.00  0.00     0.000 C 
ATOM     19  C   UNL d   1      53.011  35.209  54.466  0.00  0.00     0.000 A 
ATOM     20  C   UNL d   1      53.385  34.948  55.153  0.00  0.00     0.000 A 
ATOM     21  C   UNL d   1      52.667  35.951  54.433  0.00  0.00     0.000 C 
ATOM     22  C   UNL d   1      53.728  34.193  55.168  0.00  0.00     0.005 A 
ENDBRANCH  13  15
ENDBRANCH   1  12
TORSDOF 3
ENDMDL
MODEL 6
REMARK VINA RESULT:      -6.7      1.602      4.660
REMARK  3 active torsions:
REMARK  status: ('A' for Active; 'I' for Inactive)
REMARK    1  A    between atoms: N_7  and  C_4 
REMARK    2  A    between atoms: N_9  and  N_7 
REMARK       I    between atoms: C_8  and  N_9 
REMARK    3  A    between atoms: C_10  and  C_8 
ROOT
ATOM      1  N   UNL d   1      53.893  31.369  53.425  0.00  0.00    -0.127 NA
ENDROOT
BRANCH   1   2
ATOM      2  C   UNL d   1      53.581  30.650  53.693  0.00  0.00     0.178 A 
ATOM      3  N   UNL d   1      53.148  30.170  53.183  0.00  0.00    -0.240 N 
ATOM      4  C   UNL d   1      52.839  29.459  53.448  0.00  0.00     0.343 A 
ATOM      5  C   UNL d   1      53.026  30.408  52.401  0.00  0.00     0.105 C 
ATOM      6  N   UNL d   1      52.962  29.222  54.231  0.00  0.00    -0.224 N 
ATOM      7  O   UNL d   1      52.404  28.977  52.933  0.00  0.00    -0.245 OA
ATOM      8  C   UNL d   1      53.395  29.693  54.756  0.00  0.00     0.271 A 
ATOM      9  C   UNL d   1      52.650  28.502  54.498  0.00  0.00     0.107 C 
ATOM     10  C   UNL d   1      53.703  30.412  54.476  0.00  0.00     0.101 A 
ATOM     11  O   UNL d   1      53.516  29.458  55.530  0.00  0.00    -0.266 OA
ENDBRANCH   1   2
BRANCH   1  12
ATOM     12  N   UNL d   1      53.590  32.082  53.711  0.00  0.00    -0.104 NA
ATOM     13  C   UNL d   1      54.016  32.781  53.604  0.00  0.00     0.297 C 
ATOM     14  O   UNL d   1      54.743  32.767  53.212  0.00  0.00    -0.264 OA
BRANCH  13  15
ATOM     15  C   UNL d   1      53.714  33.493  53.890  0.00  0.00     0.059 A 
ATOM     16  C   UNL d   1      53.124  33.883  53.470  0.00  0.00     0.005 A 
ATOM     17  C   UNL d   1      52.819  34.592  53.750  0.00  0.00     0.000 A 
ATOM     18  C   UNL d   1      52.226  34.983  53.326  0.00  0.00     0.000 C 
ATOM     19  C   UNL d   1      53.108  34.918  54.462  0.00  0.00     0.000 A 
ATOM     20  C   UNL d   1      53.699  34.525  54.882  0.00  0.00     0.000 A 
ATOM     21  C   UNL d   1      52.800  35.625  54.737  0.00  0.00     0.000 C 
ATOM     22  C   UNL d   1      53.999  33.809  54.589  0.00  0.00     0.005 A 
ENDBRANCH  13  15
ENDBRANCH   1  12
TORSDOF 3
ENDMDL
MODEL 7
REMARK VINA RESULT:      -6.7      1.729      2.751
REMARK  3 active torsions:
REMARK  status: ('A' for Active; 'I' for Inactive)
REMARK    1  A    between atoms: N_7  and  C_4 
REMARK    2  A    between atoms: N_9  and  N_7 
REMARK       I    between atoms: C_8  and  N_9 
REMARK    3  A    between atoms: C_10  and  C_8 
ROOT
ATOM      1  N   UNL d   1      51.887  34.068  52.852  0.00  0.00    -0.127 NA
ENDROOT
BRANCH   1   2
ATOM      2  C   UNL d   1      51.131  34.249  52.566  0.00  0.00     0.178 A 
ATOM      3  N   UNL d   1      50.570  34.591  53.062  0.00  0.00    -0.240 N 
ATOM      4  C   UNL d   1      49.823  34.770  52.779  0.00  0.00     0.343 A 
ATOM      5  C   UNL d   1      50.764  34.754  53.850  0.00  0.00     0.105 C 
ATOM      6  N   UNL d   1      49.629  34.608  51.992  0.00  0.00    -0.224 N 
ATOM      7  O   UNL d   1      49.260  35.115  53.281  0.00  0.00    -0.245 OA
ATOM      8  C   UNL d   1      50.182  34.264  51.480  0.00  0.00     0.271 A 
ATOM      9  C   UNL d   1      48.873  34.789  51.706  0.00  0.00     0.107 C 
ATOM     10  C   UNL d   1      50.937  34.087  51.778  0.00  0.00     0.101 A 
ATOM     11  O   UNL d   1      49.991  34.103  50.701  0.00  0.00    -0.266 OA
ENDBRANCH   1   2
BRANCH   1  12
ATOM     12  N   UNL d   1      52.088  33.284  53.016  0.00  0.00    -0.104 NA
ATOM     13  C   UNL d   1      52.874  33.087  53.172  0.00  0.00     0.297 C 
ATOM     14  O   UNL d   1      53.458  33.672  53.164  0.00  0.00    -0.264 OA
BRANCH  13  15
ATOM     15  C   UNL d   1      53.076  32.304  53.336  0.00  0.00     0.059 A 
ATOM     16  C   UNL d   1      52.749  31.698  52.887  0.00  0.00     0.005 A 
ATOM     17  C   UNL d   1      52.945  30.916  53.045  0.00  0.00     0.000 A 
ATOM     18  C   UNL d   1      52.616  30.307  52.592  0.00  0.00     0.000 C 
ATOM     19  C   UNL d   1      53.478  30.737  53.663  0.00  0.00     0.000 A 
ATOM     20  C   UNL d   1      53.804  31.347  54.112  0.00  0.00     0.000 A 
ATOM     21  C   UNL d   1      53.670  29.956  53.816  0.00  0.00     0.000 C 
ATOM     22  C   UNL d   1      53.597  32.132  53.942  0.00  0.00     0.005 A 
ENDBRANCH  13  15
ENDBRANCH   1  12
TORSDOF 3
ENDMDL
