MODEL 1
REMARK VINA RESULT:      59.5      0.000      0.000
REMARK  4 active torsions:
REMARK  status: ('A' for Active; 'I' for Inactive)
REMARK    1  A    between atoms: N_3  and  S_1 
REMARK    2  A    between atoms: N_5  and  S_1 
REMARK    3  A    between atoms: S_2  and  N_4 
REMARK    4  A    between atoms: C_14  and  S_2 
ROOT
ATOM      1  N   UNL d   1     -51.488  25.139  33.648  0.00  0.00    -0.213 N 
ATOM      2  N   UNL d   1     -50.465  26.381  33.945  0.00  0.00    -0.226 N 
ATOM      3  C   UNL d   1     -51.286  26.478  34.100  0.00  0.00     0.111 A 
ATOM      4  C   UNL d   1     -50.181  25.676  33.650  0.00  0.00     0.111 A 
ATOM      5  C   UNL d   1     -50.697  25.049  33.500  0.00  0.00     0.113 A 
ATOM      6  C   UNL d   1     -51.801  25.851  33.950  0.00  0.00     0.113 A 
ENDROOT
BRANCH   2   7
ATOM      7  S   UNL d   1     -49.949  27.008  34.095  0.00  0.00     0.271 S 
ATOM      8  O   UNL d   1     -49.630  27.441  33.461  0.00  0.00    -0.200 OA
ATOM      9  O   UNL d   1     -49.751  27.204  34.869  0.00  0.00    -0.200 OA
BRANCH   7  10
ATOM     10  C   UNL d   1     -49.433  27.634  34.245  0.00  0.00     0.104 A 
ATOM     11  C   UNL d   1     -49.477  28.317  33.784  0.00  0.00     0.013 A 
ATOM     12  C   UNL d   1     -48.961  28.944  33.934  0.00  0.00     0.001 A 
ATOM     13  C   UNL d   1     -48.405  28.884  34.543  0.00  0.00     0.000 A 
ATOM     14  C   UNL d   1     -48.368  28.189  35.005  0.00  0.00     0.001 A 
ATOM     15  C   UNL d   1     -48.882  27.573  34.850  0.00  0.00     0.013 A 
ENDBRANCH   7  10
ENDBRANCH   2   7
BRANCH   1  16
ATOM     16  S   UNL d   1     -52.012  24.502  33.496  0.00  0.00     0.337 S 
ATOM     17  O   UNL d   1     -52.825  24.620  33.534  0.00  0.00    -0.181 OA
ATOM     18  O   UNL d   1     -51.706  23.754  33.307  0.00  0.00    -0.181 OA
BRANCH  16  19
ATOM     19  N   UNL d   1     -52.677  24.023  33.384  0.00  0.00    -0.213 N 
ATOM     20  C   UNL d   1     -53.433  24.363  33.337  0.00  0.00     0.113 C 
ATOM     21  C   UNL d   1     -52.588  23.210  33.321  0.00  0.00     0.113 C 
ENDBRANCH  16  19
ENDBRANCH   1  16
TORSDOF 4
ENDMDL
MODEL 2
REMARK VINA RESULT:      59.6      1.093      4.575
REMARK  4 active torsions:
REMARK  status: ('A' for Active; 'I' for Inactive)
REMARK    1  A    between atoms: N_3  and  S_1 
REMARK    2  A    between atoms: N_5  and  S_1 
REMARK    3  A    between atoms: S_2  and  N_4 
REMARK    4  A    between atoms: C_14  and  S_2 
ROOT
ATOM      1  N   UNL d   1     -49.814  27.211  34.118  0.00  0.00    -0.213 N 
ATOM      2  N   UNL d   1     -50.815  25.941  33.867  0.00  0.00    -0.226 N 
ATOM      3  C   UNL d   1     -50.968  26.669  33.476  0.00  0.00     0.111 A 
ATOM      4  C   UNL d   1     -50.175  25.868  34.367  0.00  0.00     0.111 A 
ATOM      5  C   UNL d   1     -49.670  26.509  34.493  0.00  0.00     0.113 A 
ATOM      6  C   UNL d   1     -50.464  27.309  33.602  0.00  0.00     0.113 A 
ENDROOT
BRANCH   2   7
ATOM      7  S   UNL d   1     -51.319  25.300  33.740  0.00  0.00     0.271 S 
ATOM      8  O   UNL d   1     -51.048  24.527  33.880  0.00  0.00    -0.200 OA
ATOM      9  O   UNL d   1     -52.089  25.426  33.477  0.00  0.00    -0.200 OA
BRANCH   7  10
ATOM     10  C   UNL d   1     -51.824  24.660  33.614  0.00  0.00     0.104 A 
ATOM     11  C   UNL d   1     -52.629  24.792  33.490  0.00  0.00     0.013 A 
ATOM     12  C   UNL d   1     -53.133  24.152  33.364  0.00  0.00     0.001 A 
ATOM     13  C   UNL d   1     -52.830  23.382  33.361  0.00  0.00     0.000 A 
ATOM     14  C   UNL d   1     -52.014  23.257  33.487  0.00  0.00     0.001 A 
ATOM     15  C   UNL d   1     -51.522  23.897  33.612  0.00  0.00     0.013 A 
ENDBRANCH   7  10
ENDBRANCH   2   7
BRANCH   1  16
ATOM     16  S   UNL d   1     -49.302  27.862  34.247  0.00  0.00     0.337 S 
ATOM     17  O   UNL d   1     -48.904  27.938  34.963  0.00  0.00    -0.181 OA
ATOM     18  O   UNL d   1     -49.198  28.429  33.649  0.00  0.00    -0.181 OA
BRANCH  16  19
ATOM     19  N   UNL d   1     -48.770  28.411  34.564  0.00  0.00    -0.213 N 
ATOM     20  C   UNL d   1     -48.628  29.129  34.172  0.00  0.00     0.113 C 
ATOM     21  C   UNL d   1     -48.381  28.243  35.266  0.00  0.00     0.113 C 
ENDBRANCH  16  19
ENDBRANCH   1  16
TORSDOF 4
ENDMDL
