MODEL 1
REMARK VINA RESULT:      -2.8      0.000      0.000
REMARK  5 active torsions:
REMARK  status: ('A' for Active; 'I' for Inactive)
REMARK    1  A    between atoms: O_8  and  C_2 
REMARK    2  A    between atoms: C_9  and  C_5 
REMARK    3  A    between atoms: C_14  and  O_8 
REMARK    4  A    between atoms: N_11  and  C_9 
REMARK    5  A    between atoms: O_21  and  C_18 
ROOT
ATOM      1  C   UNL d   1      31.219  17.088 -24.241  0.00  0.00     0.108 A 
ATOM      2  C   UNL d   1      32.572  18.008 -23.935  0.00  0.00     0.161 A 
ATOM      3  C   UNL d   1      31.793  16.819 -23.698  0.00  0.00     0.064 A 
ATOM      4  C   UNL d   1      32.459  17.275 -23.549  0.00  0.00     0.222 A 
ATOM      5  C   UNL d   1      30.542  16.628 -24.395  0.00  0.00     0.079 A 
ATOM      6  O   UNL d   1      31.316  17.814 -24.634  0.00  0.00    -0.305 OA
ATOM      7  C   UNL d   1      31.994  18.278 -24.482  0.00  0.00     0.126 A 
ATOM      8  C   UNL d   1      31.675  16.090 -23.317  0.00  0.00     0.009 A 
ATOM      9  C   UNL d   1      30.437  15.906 -24.010  0.00  0.00     0.199 A 
ATOM     10  O   UNL d   1      33.030  17.014 -23.012  0.00  0.00    -0.284 OA
ATOM     11  C   UNL d   1      31.004  15.637 -23.471  0.00  0.00     0.042 A 
ATOM     12  O   UNL d   1      29.765  15.453 -24.164  0.00  0.00    -0.286 OA
ATOM     13  C   UNL d   1      32.100  19.000 -24.866  0.00  0.00     0.029 C 
ENDROOT
BRANCH   2  14
ATOM     14  O   UNL d   1      33.241  18.463 -23.784  0.00  0.00    -0.302 OA
BRANCH  14  15
ATOM     15  C   UNL d   1      33.241  19.005 -23.161  0.00  0.00     0.102 A 
ATOM     16  C   UNL d   1      33.241  19.814 -23.322  0.00  0.00     0.049 A 
ATOM     17  C   UNL d   1      33.241  20.356 -22.699  0.00  0.00     0.096 A 
ATOM     18  C   UNL d   1      33.240  20.089 -21.918  0.00  0.00     0.024 A 
ATOM     19  C   UNL d   1      33.240  19.267 -21.761  0.00  0.00     0.004 A 
ATOM     20  C   UNL d   1      33.240  18.735 -22.385  0.00  0.00     0.025 A 
BRANCH  17  21
ATOM     21  O   UNL d   1      33.241  21.165 -22.860  0.00  0.00    -0.328 OA
ATOM     22  C   UNL d   1      33.178  21.707 -22.240  0.00  0.00     0.181 C 
ENDBRANCH  17  21
ENDBRANCH  14  15
ENDBRANCH   2  14
BRANCH   5  23
ATOM     23  C   UNL d   1      29.982  16.894 -24.928  0.00  0.00     0.086 C 
BRANCH  23  24
ATOM     24  N   UNL d   1      29.294  17.266 -24.653  0.00  0.00    -0.299 N 
ATOM     25  C   UNL d   1      29.062  17.989 -24.981  0.00  0.00     0.107 A 
ATOM     26  C   UNL d   1      28.377  18.360 -24.709  0.00  0.00     0.142 A 
ATOM     27  O   UNL d   1      27.925  18.010 -24.110  0.00  0.00    -0.300 OA
ATOM     28  C   UNL d   1      28.161  17.286 -23.785  0.00  0.00     0.142 A 
ATOM     29  C   UNL d   1      28.850  16.911 -24.058  0.00  0.00     0.107 A 
ENDBRANCH  23  24
ENDBRANCH   5  23
TORSDOF 5
ENDMDL
MODEL 2
REMARK VINA RESULT:      -1.0      1.682      4.784
REMARK  5 active torsions:
REMARK  status: ('A' for Active; 'I' for Inactive)
REMARK    1  A    between atoms: O_8  and  C_2 
REMARK    2  A    between atoms: C_9  and  C_5 
REMARK    3  A    between atoms: C_14  and  O_8 
REMARK    4  A    between atoms: N_11  and  C_9 
REMARK    5  A    between atoms: O_21  and  C_18 
ROOT
ATOM      1  C   UNL d   1      33.065  19.724 -23.054  0.00  0.00     0.108 A 
ATOM      2  C   UNL d   1      32.888  18.195 -23.688  0.00  0.00     0.161 A 
ATOM      3  C   UNL d   1      32.975  19.621 -23.877  0.00  0.00     0.064 A 
ATOM      4  C   UNL d   1      32.888  18.865 -24.187  0.00  0.00     0.222 A 
ATOM      5  C   UNL d   1      33.153  20.488 -22.736  0.00  0.00     0.079 A 
ATOM      6  O   UNL d   1      33.067  19.068 -22.543  0.00  0.00    -0.305 OA
ATOM      7  C   UNL d   1      32.978  18.299 -22.859  0.00  0.00     0.126 A 
ATOM      8  C   UNL d   1      32.977  20.291 -24.369  0.00  0.00     0.009 A 
ATOM      9  C   UNL d   1      33.153  21.146 -23.235  0.00  0.00     0.199 A 
ATOM     10  O   UNL d   1      32.799  18.758 -25.001  0.00  0.00    -0.284 OA
ATOM     11  C   UNL d   1      33.064  21.047 -24.051  0.00  0.00     0.042 A 
ATOM     12  O   UNL d   1      33.241  21.902 -22.916  0.00  0.00    -0.286 OA
ATOM     13  C   UNL d   1      32.979  17.641 -22.362  0.00  0.00     0.029 C 
ENDROOT
BRANCH   2  14
ATOM     14  O   UNL d   1      32.801  17.439 -24.002  0.00  0.00    -0.302 OA
BRANCH  14  15
ATOM     15  C   UNL d   1      32.047  17.142 -24.161  0.00  0.00     0.102 A 
ATOM     16  C   UNL d   1      31.587  16.841 -23.545  0.00  0.00     0.049 A 
ATOM     17  C   UNL d   1      30.834  16.543 -23.704  0.00  0.00     0.096 A 
ATOM     18  C   UNL d   1      30.541  16.547 -24.477  0.00  0.00     0.024 A 
ATOM     19  C   UNL d   1      31.013  16.853 -25.096  0.00  0.00     0.004 A 
ATOM     20  C   UNL d   1      31.760  17.147 -24.931  0.00  0.00     0.025 A 
BRANCH  17  21
ATOM     21  O   UNL d   1      30.374  16.242 -23.089  0.00  0.00    -0.328 OA
ATOM     22  C   UNL d   1      29.555  16.190 -23.177  0.00  0.00     0.181 C 
ENDBRANCH  17  21
ENDBRANCH  14  15
ENDBRANCH   2  14
BRANCH   5  23
ATOM     23  C   UNL d   1      33.241  20.585 -21.928  0.00  0.00     0.086 C 
BRANCH  23  24
ATOM     24  N   UNL d   1      32.668  21.001 -21.498  0.00  0.00    -0.299 N 
ATOM     25  C   UNL d   1      31.986  20.609 -21.241  0.00  0.00     0.107 A 
ATOM     26  C   UNL d   1      31.415  21.021 -20.812  0.00  0.00     0.142 A 
ATOM     27  O   UNL d   1      31.524  21.824 -20.640  0.00  0.00    -0.300 OA
ATOM     28  C   UNL d   1      32.206  22.212 -20.899  0.00  0.00     0.142 A 
ATOM     29  C   UNL d   1      32.783  21.799 -21.331  0.00  0.00     0.107 A 
ENDBRANCH  23  24
ENDBRANCH   5  23
TORSDOF 5
ENDMDL
MODEL 3
REMARK VINA RESULT:      -0.7      1.463      4.600
REMARK  5 active torsions:
REMARK  status: ('A' for Active; 'I' for Inactive)
REMARK    1  A    between atoms: O_8  and  C_2 
REMARK    2  A    between atoms: C_9  and  C_5 
REMARK    3  A    between atoms: C_14  and  O_8 
REMARK    4  A    between atoms: N_11  and  C_9 
REMARK    5  A    between atoms: O_21  and  C_18 
ROOT
ATOM      1  C   UNL d   1      32.315  18.369 -24.081  0.00  0.00     0.108 A 
ATOM      2  C   UNL d   1      31.702  16.821 -24.079  0.00  0.00     0.161 A 
ATOM      3  C   UNL d   1      31.685  18.168 -24.591  0.00  0.00     0.064 A 
ATOM      4  C   UNL d   1      31.385  17.404 -24.588  0.00  0.00     0.222 A 
ATOM      5  C   UNL d   1      32.622  19.142 -24.082  0.00  0.00     0.079 A 
ATOM      6  O   UNL d   1      32.642  17.801 -23.569  0.00  0.00    -0.305 OA
ATOM      7  C   UNL d   1      32.335  17.023 -23.566  0.00  0.00     0.126 A 
ATOM      8  C   UNL d   1      31.374  18.752 -25.095  0.00  0.00     0.009 A 
ATOM      9  C   UNL d   1      32.305  19.713 -24.587  0.00  0.00     0.199 A 
ATOM     10  O   UNL d   1      30.762  17.201 -25.091  0.00  0.00    -0.284 OA
ATOM     11  C   UNL d   1      31.681  19.518 -25.093  0.00  0.00     0.042 A 
ATOM     12  O   UNL d   1      32.612  20.479 -24.585  0.00  0.00    -0.286 OA
ATOM     13  C   UNL d   1      32.652  16.452 -23.062  0.00  0.00     0.029 C 
ENDROOT
BRANCH   2  14
ATOM     14  O   UNL d   1      31.398  16.056 -24.079  0.00  0.00    -0.302 OA
BRANCH  14  15
ATOM     15  C   UNL d   1      30.705  15.886 -23.664  0.00  0.00     0.102 A 
ATOM     16  C   UNL d   1      29.973  15.980 -24.033  0.00  0.00     0.049 A 
ATOM     17  C   UNL d   1      29.280  15.810 -23.617  0.00  0.00     0.096 A 
ATOM     18  C   UNL d   1      29.320  15.547 -22.835  0.00  0.00     0.024 A 
ATOM     19  C   UNL d   1      30.065  15.455 -22.467  0.00  0.00     0.004 A 
ATOM     20  C   UNL d   1      30.749  15.625 -22.885  0.00  0.00     0.025 A 
BRANCH  17  21
ATOM     21  O   UNL d   1      28.548  15.903 -23.986  0.00  0.00    -0.328 OA
ATOM     22  C   UNL d   1      27.866  15.610 -23.625  0.00  0.00     0.181 C 
ENDBRANCH  17  21
ENDBRANCH  14  15
ENDBRANCH   2  14
BRANCH   5  23
ATOM     23  C   UNL d   1      33.239  19.335 -23.581  0.00  0.00     0.086 C 
BRANCH  23  24
ATOM     24  N   UNL d   1      33.099  19.811 -22.918  0.00  0.00    -0.299 N 
ATOM     25  C   UNL d   1      33.241  20.625 -22.960  0.00  0.00     0.107 A 
ATOM     26  C   UNL d   1      33.102  21.100 -22.300  0.00  0.00     0.142 A 
ATOM     27  O   UNL d   1      32.822  20.762 -21.598  0.00  0.00    -0.300 OA
ATOM     28  C   UNL d   1      32.682  19.948 -21.559  0.00  0.00     0.142 A 
ATOM     29  C   UNL d   1      32.821  19.468 -22.222  0.00  0.00     0.107 A 
ENDBRANCH  23  24
ENDBRANCH   5  23
TORSDOF 5
ENDMDL
MODEL 4
REMARK VINA RESULT:      -0.1      1.123      1.812
REMARK  5 active torsions:
REMARK  status: ('A' for Active; 'I' for Inactive)
REMARK    1  A    between atoms: O_8  and  C_2 
REMARK    2  A    between atoms: C_9  and  C_5 
REMARK    3  A    between atoms: C_14  and  O_8 
REMARK    4  A    between atoms: N_11  and  C_9 
REMARK    5  A    between atoms: O_21  and  C_18 
ROOT
ATOM      1  C   UNL d   1      32.159  18.218 -23.750  0.00  0.00     0.108 A 
ATOM      2  C   UNL d   1      32.883  19.576 -23.114  0.00  0.00     0.161 A 
ATOM      3  C   UNL d   1      32.523  18.185 -22.999  0.00  0.00     0.064 A 
ATOM      4  C   UNL d   1      32.879  18.856 -22.688  0.00  0.00     0.222 A 
ATOM      5  C   UNL d   1      31.798  17.539 -24.068  0.00  0.00     0.079 A 
ATOM      6  O   UNL d   1      32.154  18.925 -24.186  0.00  0.00    -0.305 OA
ATOM      7  C   UNL d   1      32.517  19.608 -23.869  0.00  0.00     0.126 A 
ATOM      8  C   UNL d   1      32.516  17.467 -22.580  0.00  0.00     0.009 A 
ATOM      9  C   UNL d   1      31.797  16.832 -23.642  0.00  0.00     0.199 A 
ATOM     10  O   UNL d   1      33.241  18.829 -21.945  0.00  0.00    -0.284 OA
ATOM     11  C   UNL d   1      32.157  16.796 -22.898  0.00  0.00     0.042 A 
ATOM     12  O   UNL d   1      31.438  16.161 -23.961  0.00  0.00    -0.286 OA
ATOM     13  C   UNL d   1      32.518  20.315 -24.294  0.00  0.00     0.029 C 
ENDROOT
BRANCH   2  14
ATOM     14  O   UNL d   1      33.241  20.246 -22.799  0.00  0.00    -0.302 OA
BRANCH  14  15
ATOM     15  C   UNL d   1      32.836  20.713 -22.252  0.00  0.00     0.102 A 
ATOM     16  C   UNL d   1      32.810  21.532 -22.351  0.00  0.00     0.049 A 
ATOM     17  C   UNL d   1      32.405  21.999 -21.804  0.00  0.00     0.096 A 
ATOM     18  C   UNL d   1      32.028  21.647 -21.159  0.00  0.00     0.024 A 
ATOM     19  C   UNL d   1      32.057  20.817 -21.064  0.00  0.00     0.004 A 
ATOM     20  C   UNL d   1      32.461  20.360 -21.611  0.00  0.00     0.025 A 
BRANCH  17  21
ATOM     21  O   UNL d   1      32.379  22.818 -21.903  0.00  0.00    -0.328 OA
ATOM     22  C   UNL d   1      33.082  23.244 -21.980  0.00  0.00     0.181 C 
ENDBRANCH  17  21
ENDBRANCH  14  15
ENDBRANCH   2  14
BRANCH   5  23
ATOM     23  C   UNL d   1      31.442  17.575 -24.804  0.00  0.00     0.086 C 
BRANCH  23  24
ATOM     24  N   UNL d   1      30.622  17.478 -24.872  0.00  0.00    -0.299 N 
ATOM     25  C   UNL d   1      30.306  16.718 -24.952  0.00  0.00     0.107 A 
ATOM     26  C   UNL d   1      29.490  16.619 -25.020  0.00  0.00     0.142 A 
ATOM     27  O   UNL d   1      28.990  17.279 -25.007  0.00  0.00    -0.300 OA
ATOM     28  C   UNL d   1      29.310  18.037 -24.926  0.00  0.00     0.142 A 
ATOM     29  C   UNL d   1      30.131  18.138 -24.858  0.00  0.00     0.107 A 
ENDBRANCH  23  24
ENDBRANCH   5  23
TORSDOF 5
ENDMDL
