MODEL 1
REMARK VINA RESULT:      -8.7      0.000      0.000
REMARK  5 active torsions:
REMARK  status: ('A' for Active; 'I' for Inactive)
REMARK    1  A    between atoms: C_2  and  C_1 
REMARK    2  A    between atoms: C_7  and  C_2 
REMARK    3  A    between atoms: O_17  and  C_6 
REMARK    4  A    between atoms: C_10  and  C_7 
REMARK    5  A    between atoms: O_18  and  C_8 
ROOT
ATOM      1  C   UNL d   1      53.645  32.254  53.392  0.00  0.00     0.042 C 
ENDROOT
BRANCH   1   2
ATOM      2  C   UNL d   1      52.994  31.756  53.387  0.00  0.00     0.199 C 
ATOM      3  O   UNL d   1      52.243  32.062  53.179  0.00  0.00    -0.286 OA
BRANCH   2   4
ATOM      4  C   UNL d   1      53.062  30.954  53.583  0.00  0.00     0.078 A 
ATOM      5  C   UNL d   1      52.978  30.379  52.981  0.00  0.00     0.202 A 
ATOM      6  C   UNL d   1      53.043  29.578  53.164  0.00  0.00     0.084 A 
ATOM      7  O   UNL d   1      52.829  30.619  52.195  0.00  0.00    -0.286 OA
ATOM      8  C   UNL d   1      53.190  29.349  53.934  0.00  0.00     0.199 A 
ATOM      9  C   UNL d   1      53.273  29.924  54.536  0.00  0.00     0.042 A 
ATOM     10  O   UNL d   1      53.256  28.542  54.122  0.00  0.00    -0.286 OA
ATOM     11  C   UNL d   1      53.208  30.713  54.353  0.00  0.00     0.010 A 
ENDBRANCH   2   4
ENDBRANCH   1   2
BRANCH   1  12
ATOM     12  C   UNL d   1      53.602  33.012  53.713  0.00  0.00     0.005 A 
ATOM     13  C   UNL d   1      54.104  33.227  54.317  0.00  0.00     0.026 A 
ATOM     14  C   UNL d   1      54.053  33.995  54.634  0.00  0.00     0.116 A 
ATOM     15  C   UNL d   1      53.508  34.532  54.349  0.00  0.00     0.116 A 
ATOM     16  C   UNL d   1      52.994  34.306  53.728  0.00  0.00     0.026 A 
ATOM     17  C   UNL d   1      53.039  33.538  53.404  0.00  0.00     0.002 A 
BRANCH  14  18
ATOM     18  O   UNL d   1      54.563  34.219  55.251  0.00  0.00    -0.326 OA
ATOM     19  C   UNL d   1      55.255  33.788  55.392  0.00  0.00     0.181 C 
ENDBRANCH  14  18
BRANCH  15  20
ATOM     20  O   UNL d   1      53.446  35.296  54.654  0.00  0.00    -0.326 OA
ATOM     21  C   UNL d   1      52.818  35.780  54.453  0.00  0.00     0.181 C 
ENDBRANCH  15  20
ENDBRANCH   1  12
TORSDOF 5
ENDMDL
MODEL 2
REMARK VINA RESULT:      -8.5      2.225      3.893
REMARK  5 active torsions:
REMARK  status: ('A' for Active; 'I' for Inactive)
REMARK    1  A    between atoms: C_2  and  C_1 
REMARK    2  A    between atoms: C_7  and  C_2 
REMARK    3  A    between atoms: O_17  and  C_6 
REMARK    4  A    between atoms: C_10  and  C_7 
REMARK    5  A    between atoms: O_18  and  C_8 
ROOT
ATOM      1  C   UNL d   1      51.885  33.683  53.633  0.00  0.00     0.042 C 
ENDROOT
BRANCH   1   2
ATOM      2  C   UNL d   1      51.773  34.224  53.027  0.00  0.00     0.199 C 
ATOM      3  O   UNL d   1      52.420  34.684  52.762  0.00  0.00    -0.286 OA
BRANCH   2   4
ATOM      4  C   UNL d   1      51.033  34.326  52.670  0.00  0.00     0.078 A 
ATOM      5  C   UNL d   1      50.967  34.246  51.839  0.00  0.00     0.202 A 
ATOM      6  C   UNL d   1      50.235  34.346  51.473  0.00  0.00     0.084 A 
ATOM      7  O   UNL d   1      51.643  34.065  51.384  0.00  0.00    -0.286 OA
ATOM      8  C   UNL d   1      49.578  34.523  51.923  0.00  0.00     0.199 A 
ATOM      9  C   UNL d   1      49.643  34.603  52.753  0.00  0.00     0.042 A 
ATOM     10  O   UNL d   1      48.838  34.624  51.556  0.00  0.00    -0.286 OA
ATOM     11  C   UNL d   1      50.365  34.504  53.112  0.00  0.00     0.010 A 
ENDBRANCH   2   4
ENDBRANCH   1   2
BRANCH   1  12
ATOM     12  C   UNL d   1      52.632  33.548  53.954  0.00  0.00     0.005 A 
ATOM     13  C   UNL d   1      53.023  32.852  53.792  0.00  0.00     0.026 A 
ATOM     14  C   UNL d   1      53.778  32.724  54.122  0.00  0.00     0.116 A 
ATOM     15  C   UNL d   1      54.127  33.284  54.602  0.00  0.00     0.116 A 
ATOM     16  C   UNL d   1      53.720  33.998  54.764  0.00  0.00     0.026 A 
ATOM     17  C   UNL d   1      52.963  34.134  54.438  0.00  0.00     0.002 A 
BRANCH  14  18
ATOM     18  O   UNL d   1      54.181  32.016  53.959  0.00  0.00    -0.326 OA
ATOM     19  C   UNL d   1      53.778  31.379  53.618  0.00  0.00     0.181 C 
ENDBRANCH  14  18
BRANCH  15  20
ATOM     20  O   UNL d   1      54.873  33.171  54.934  0.00  0.00    -0.326 OA
ATOM     21  C   UNL d   1      55.261  33.782  55.317  0.00  0.00     0.181 C 
ENDBRANCH  15  20
ENDBRANCH   1  12
TORSDOF 5
ENDMDL
MODEL 3
REMARK VINA RESULT:      -8.5      1.003      1.692
REMARK  5 active torsions:
REMARK  status: ('A' for Active; 'I' for Inactive)
REMARK    1  A    between atoms: C_2  and  C_1 
REMARK    2  A    between atoms: C_7  and  C_2 
REMARK    3  A    between atoms: O_17  and  C_6 
REMARK    4  A    between atoms: C_10  and  C_7 
REMARK    5  A    between atoms: O_18  and  C_8 
ROOT
ATOM      1  C   UNL d   1      52.540  32.200  53.649  0.00  0.00     0.042 C 
ENDROOT
BRANCH   1   2
ATOM      2  C   UNL d   1      53.188  31.734  53.460  0.00  0.00     0.199 C 
ATOM      3  O   UNL d   1      53.839  32.077  53.061  0.00  0.00    -0.286 OA
BRANCH   2   4
ATOM      4  C   UNL d   1      53.213  30.929  53.655  0.00  0.00     0.078 A 
ATOM      5  C   UNL d   1      53.034  30.362  53.066  0.00  0.00     0.202 A 
ATOM      6  C   UNL d   1      53.056  29.559  53.247  0.00  0.00     0.084 A 
ATOM      7  O   UNL d   1      52.834  30.612  52.294  0.00  0.00    -0.286 OA
ATOM      8  C   UNL d   1      53.252  29.320  54.003  0.00  0.00     0.199 A 
ATOM      9  C   UNL d   1      53.431  29.887  54.592  0.00  0.00     0.042 A 
ATOM     10  O   UNL d   1      53.275  28.510  54.190  0.00  0.00    -0.286 OA
ATOM     11  C   UNL d   1      53.408  30.678  54.410  0.00  0.00     0.010 A 
ENDBRANCH   2   4
ENDBRANCH   1   2
BRANCH   1  12
ATOM     12  C   UNL d   1      52.599  33.022  53.681  0.00  0.00     0.005 A 
ATOM     13  C   UNL d   1      52.211  33.478  53.129  0.00  0.00     0.026 A 
ATOM     14  C   UNL d   1      52.276  34.307  53.169  0.00  0.00     0.116 A 
ATOM     15  C   UNL d   1      52.721  34.667  53.751  0.00  0.00     0.116 A 
ATOM     16  C   UNL d   1      53.117  34.193  54.316  0.00  0.00     0.026 A 
ATOM     17  C   UNL d   1      53.058  33.360  54.283  0.00  0.00     0.002 A 
BRANCH  14  18
ATOM     18  O   UNL d   1      51.882  34.777  52.607  0.00  0.00    -0.326 OA
ATOM     19  C   UNL d   1      51.347  34.430  52.080  0.00  0.00     0.181 C 
ENDBRANCH  14  18
BRANCH  15  20
ATOM     20  O   UNL d   1      52.794  35.486  53.802  0.00  0.00    -0.326 OA
ATOM     21  C   UNL d   1      53.116  35.840  54.466  0.00  0.00     0.181 C 
ENDBRANCH  15  20
ENDBRANCH   1  12
TORSDOF 5
ENDMDL
MODEL 4
REMARK VINA RESULT:      -8.0      2.426      3.952
REMARK  5 active torsions:
REMARK  status: ('A' for Active; 'I' for Inactive)
REMARK    1  A    between atoms: C_2  and  C_1 
REMARK    2  A    between atoms: C_7  and  C_2 
REMARK    3  A    between atoms: O_17  and  C_6 
REMARK    4  A    between atoms: C_10  and  C_7 
REMARK    5  A    between atoms: O_18  and  C_8 
ROOT
ATOM      1  C   UNL d   1      52.118  34.231  53.034  0.00  0.00     0.042 C 
ENDROOT
BRANCH   1   2
ATOM      2  C   UNL d   1      52.366  33.537  53.393  0.00  0.00     0.199 C 
ATOM      3  O   UNL d   1      51.932  32.832  53.269  0.00  0.00    -0.286 OA
BRANCH   2   4
ATOM      4  C   UNL d   1      53.038  33.517  53.877  0.00  0.00     0.078 A 
ATOM      5  C   UNL d   1      53.631  32.944  53.727  0.00  0.00     0.202 A 
ATOM      6  C   UNL d   1      54.304  32.914  54.202  0.00  0.00     0.084 A 
ATOM      7  O   UNL d   1      53.538  32.404  53.097  0.00  0.00    -0.286 OA
ATOM      8  C   UNL d   1      54.390  33.445  54.817  0.00  0.00     0.199 A 
ATOM      9  C   UNL d   1      53.797  34.017  54.966  0.00  0.00     0.042 A 
ATOM     10  O   UNL d   1      55.067  33.418  55.297  0.00  0.00    -0.286 OA
ATOM     11  C   UNL d   1      53.135  34.044  54.497  0.00  0.00     0.010 A 
ENDBRANCH   2   4
ENDBRANCH   1   2
BRANCH   1  12
ATOM     12  C   UNL d   1      51.388  34.279  52.655  0.00  0.00     0.005 A 
ATOM     13  C   UNL d   1      50.729  34.513  53.073  0.00  0.00     0.026 A 
ATOM     14  C   UNL d   1      49.995  34.559  52.682  0.00  0.00     0.116 A 
ATOM     15  C   UNL d   1      49.928  34.374  51.890  0.00  0.00     0.116 A 
ATOM     16  C   UNL d   1      50.609  34.135  51.465  0.00  0.00     0.026 A 
ATOM     17  C   UNL d   1      51.349  34.086  51.850  0.00  0.00     0.002 A 
BRANCH  14  18
ATOM     18  O   UNL d   1      49.319  34.796  53.104  0.00  0.00    -0.326 OA
ATOM     19  C   UNL d   1      49.371  35.412  53.654  0.00  0.00     0.181 C 
ENDBRANCH  14  18
BRANCH  15  20
ATOM     20  O   UNL d   1      49.208  34.416  51.490  0.00  0.00    -0.326 OA
ATOM     21  C   UNL d   1      49.178  34.393  50.672  0.00  0.00     0.181 C 
ENDBRANCH  15  20
ENDBRANCH   1  12
TORSDOF 5
ENDMDL
MODEL 5
REMARK VINA RESULT:      -7.7      3.056      4.653
REMARK  5 active torsions:
REMARK  status: ('A' for Active; 'I' for Inactive)
REMARK    1  A    between atoms: C_2  and  C_1 
REMARK    2  A    between atoms: C_7  and  C_2 
REMARK    3  A    between atoms: O_17  and  C_6 
REMARK    4  A    between atoms: C_10  and  C_7 
REMARK    5  A    between atoms: O_18  and  C_8 
ROOT
ATOM      1  C   UNL d   1      51.214  34.366  52.429  0.00  0.00     0.042 C 
ENDROOT
BRANCH   1   2
ATOM      2  C   UNL d   1      50.450  34.185  52.663  0.00  0.00     0.199 C 
ATOM      3  O   UNL d   1      50.329  33.725  53.352  0.00  0.00    -0.286 OA
BRANCH   2   4
ATOM      4  C   UNL d   1      49.792  34.446  52.232  0.00  0.00     0.078 A 
ATOM      5  C   UNL d   1      49.236  34.950  52.603  0.00  0.00     0.202 A 
ATOM      6  C   UNL d   1      48.578  35.216  52.184  0.00  0.00     0.084 A 
ATOM      7  O   UNL d   1      49.350  35.182  53.397  0.00  0.00    -0.286 OA
ATOM      8  C   UNL d   1      48.472  34.986  51.408  0.00  0.00     0.199 A 
ATOM      9  C   UNL d   1      49.027  34.482  51.037  0.00  0.00     0.042 A 
ATOM     10  O   UNL d   1      47.809  35.253  50.983  0.00  0.00    -0.286 OA
ATOM     11  C   UNL d   1      49.675  34.221  51.452  0.00  0.00     0.010 A 
ENDBRANCH   2   4
ENDBRANCH   1   2
BRANCH   1  12
ATOM     12  C   UNL d   1      51.868  34.074  52.838  0.00  0.00     0.005 A 
ATOM     13  C   UNL d   1      52.281  34.562  53.343  0.00  0.00     0.026 A 
ATOM     14  C   UNL d   1      52.940  34.258  53.752  0.00  0.00     0.116 A 
ATOM     15  C   UNL d   1      53.176  33.483  53.653  0.00  0.00     0.116 A 
ATOM     16  C   UNL d   1      52.747  32.987  53.132  0.00  0.00     0.026 A 
ATOM     17  C   UNL d   1      52.085  33.283  52.718  0.00  0.00     0.002 A 
BRANCH  14  18
ATOM     18  O   UNL d   1      53.365  34.751  54.269  0.00  0.00    -0.326 OA
ATOM     19  C   UNL d   1      53.091  35.515  54.430  0.00  0.00     0.181 C 
ENDBRANCH  14  18
BRANCH  15  20
ATOM     20  O   UNL d   1      53.826  33.169  54.051  0.00  0.00    -0.326 OA
ATOM     21  C   UNL d   1      54.069  32.398  53.920  0.00  0.00     0.181 C 
ENDBRANCH  15  20
ENDBRANCH   1  12
TORSDOF 5
ENDMDL
MODEL 6
REMARK VINA RESULT:      -7.5      0.967      4.424
REMARK  5 active torsions:
REMARK  status: ('A' for Active; 'I' for Inactive)
REMARK    1  A    between atoms: C_2  and  C_1 
REMARK    2  A    between atoms: C_7  and  C_2 
REMARK    3  A    between atoms: O_17  and  C_6 
REMARK    4  A    between atoms: C_10  and  C_7 
REMARK    5  A    between atoms: O_18  and  C_8 
ROOT
ATOM      1  C   UNL d   1      53.381  32.453  53.548  0.00  0.00     0.042 C 
ENDROOT
BRANCH   1   2
ATOM      2  C   UNL d   1      52.743  32.942  53.709  0.00  0.00     0.199 C 
ATOM      3  O   UNL d   1      51.966  32.634  53.662  0.00  0.00    -0.286 OA
BRANCH   2   4
ATOM      4  C   UNL d   1      52.849  33.737  53.918  0.00  0.00     0.078 A 
ATOM      5  C   UNL d   1      52.570  34.334  53.402  0.00  0.00     0.202 A 
ATOM      6  C   UNL d   1      52.670  35.128  53.599  0.00  0.00     0.084 A 
ATOM      7  O   UNL d   1      52.190  34.123  52.689  0.00  0.00    -0.286 OA
ATOM      8  C   UNL d   1      53.042  35.328  54.297  0.00  0.00     0.199 A 
ATOM      9  C   UNL d   1      53.322  34.731  54.813  0.00  0.00     0.042 A 
ATOM     10  O   UNL d   1      53.145  36.128  54.499  0.00  0.00    -0.286 OA
ATOM     11  C   UNL d   1      53.222  33.949  54.617  0.00  0.00     0.010 A 
ENDBRANCH   2   4
ENDBRANCH   1   2
BRANCH   1  12
ATOM     12  C   UNL d   1      53.344  31.641  53.688  0.00  0.00     0.005 A 
ATOM     13  C   UNL d   1      53.091  31.139  53.099  0.00  0.00     0.026 A 
ATOM     14  C   UNL d   1      53.057  30.320  53.250  0.00  0.00     0.116 A 
ATOM     15  C   UNL d   1      53.272  30.017  53.976  0.00  0.00     0.116 A 
ATOM     16  C   UNL d   1      53.532  30.539  54.578  0.00  0.00     0.026 A 
ATOM     17  C   UNL d   1      53.569  31.360  54.435  0.00  0.00     0.002 A 
BRANCH  14  18
ATOM     18  O   UNL d   1      52.799  29.804  52.652  0.00  0.00    -0.326 OA
ATOM     19  C   UNL d   1      53.051  29.916  51.872  0.00  0.00     0.181 C 
ENDBRANCH  14  18
BRANCH  15  20
ATOM     20  O   UNL d   1      53.243  29.210  54.139  0.00  0.00    -0.326 OA
ATOM     21  C   UNL d   1      53.333  28.930  54.903  0.00  0.00     0.181 C 
ENDBRANCH  15  20
ENDBRANCH   1  12
TORSDOF 5
ENDMDL
