MODEL 1
REMARK VINA RESULT:     101.2      0.000      0.000
REMARK  6 active torsions:
REMARK  status: ('A' for Active; 'I' for Inactive)
REMARK    1  A    between atoms: C_9  and  N_1 
REMARK    2  A    between atoms: S_14  and  C_3 
REMARK    3  A    between atoms: N_8  and  C_10 
REMARK    4  A    between atoms: C_18  and  C_9 
REMARK    5  A    between atoms: C_19  and  S_14 
REMARK    6  A    between atoms: C_20  and  C_18 
ROOT
ATOM      1  N   UNL d   1      62.051  47.610  49.506  0.00  0.00    -0.195 NA
ATOM      2  C   UNL d   1      61.928  48.415  49.307  0.00  0.00     0.086 C 
ATOM      3  C   UNL d   1      61.799  49.197  49.117  0.00  0.00     0.170 C 
ENDROOT
BRANCH   3   4
ATOM      4  S   UNL d   1      61.076  49.555  49.294  0.00  0.00    -0.060 SA
BRANCH   4   5
ATOM      5  C   UNL d   1      60.787  49.554  50.073  0.00  0.00     0.178 A 
ATOM      6  N   UNL d   1      59.978  49.481  50.217  0.00  0.00    -0.253 N 
ATOM      7  C   UNL d   1      59.694  49.479  50.994  0.00  0.00     0.268 A 
ATOM      8  C   UNL d   1      60.229  49.551  51.617  0.00  0.00     0.076 A 
ATOM      9  O   UNL d   1      58.888  49.406  51.137  0.00  0.00    -0.267 OA
ATOM     10  C   UNL d   1      59.942  49.549  52.382  0.00  0.00     0.024 A 
ATOM     11  C   UNL d   1      61.030  49.624  51.474  0.00  0.00     0.088 A 
ATOM     12  C   UNL d   1      60.464  49.621  53.021  0.00  0.00     0.065 A 
ATOM     13  C   UNL d   1      61.276  49.694  52.864  0.00  0.00     0.019 A 
ATOM     14  C   UNL d   1      61.558  49.695  52.100  0.00  0.00     0.021 A 
ATOM     15  N   UNL d   1      61.317  49.626  50.705  0.00  0.00    -0.222 NA
BRANCH   6  16
ATOM     16  C   UNL d   1      59.457  49.409  49.582  0.00  0.00     0.085 C 
BRANCH  16  17
ATOM     17  C   UNL d   1      58.689  49.701  49.652  0.00  0.00     0.019 C 
BRANCH  17  18
ATOM     18  C   UNL d   1      58.052  49.178  49.740  0.00  0.00     0.002 A 
ATOM     19  C   UNL d   1      57.639  48.918  49.080  0.00  0.00     0.000 A 
ATOM     20  C   UNL d   1      57.006  48.398  49.166  0.00  0.00     0.000 A 
ATOM     21  C   UNL d   1      56.785  48.136  49.924  0.00  0.00     0.000 A 
ATOM     22  C   UNL d   1      57.205  48.401  50.587  0.00  0.00     0.000 A 
ATOM     23  C   UNL d   1      57.838  48.921  50.502  0.00  0.00     0.000 A 
ENDBRANCH  17  18
ENDBRANCH  16  17
ENDBRANCH   6  16
BRANCH  12  24
ATOM     24  N   UNL d   1      60.186  49.620  53.792  0.00  0.00    -0.300 N 
ATOM     25  C   UNL d   1      59.376  49.534  53.943  0.00  0.00     0.107 A 
ATOM     26  C   UNL d   1      59.107  49.535  54.718  0.00  0.00     0.142 A 
ATOM     27  O   UNL d   1      59.640  49.620  55.348  0.00  0.00    -0.300 OA
ATOM     28  C   UNL d   1      60.449  49.705  55.197  0.00  0.00     0.142 A 
ATOM     29  C   UNL d   1      60.726  49.705  54.416  0.00  0.00     0.107 A 
ENDBRANCH  12  24
ENDBRANCH   4   5
ENDBRANCH   3   4
TORSDOF 6
ENDMDL
