MODEL 1
REMARK VINA RESULT:      -7.2      0.000      0.000
REMARK  4 active torsions:
REMARK  status: ('A' for Active; 'I' for Inactive)
REMARK    1  A    between atoms: N_2  and  S_1 
REMARK    2  A    between atoms: C_3  and  S_1 
REMARK    3  A    between atoms: C_4  and  N_2 
REMARK    4  A    between atoms: O_14  and  C_7 
ROOT
ATOM      1  S   UNL d   1     -48.177  14.287  22.991  0.00  0.00     0.285 S 
ATOM      2  O   UNL d   1     -48.488  13.715  23.500  0.00  0.00    -0.198 OA
ATOM      3  O   UNL d   1     -47.862  14.873  22.472  0.00  0.00    -0.198 OA
ENDROOT
BRANCH   1   4
ATOM      4  N   UNL d   1     -48.873  14.724  23.055  0.00  0.00    -0.156 NA
BRANCH   4   5
ATOM      5  C   UNL d   1     -49.533  14.520  22.609  0.00  0.00     0.116 A 
ATOM      6  C   UNL d   1     -50.277  14.828  22.788  0.00  0.00     0.112 A 
ATOM      7  C   UNL d   1     -50.936  14.624  22.341  0.00  0.00     0.026 A 
ATOM      8  C   UNL d   1     -50.866  14.107  21.705  0.00  0.00     0.002 A 
ATOM      9  C   UNL d   1     -50.124  13.796  21.521  0.00  0.00     0.002 A 
ATOM     10  C   UNL d   1     -49.465  14.000  21.968  0.00  0.00     0.022 A 
BRANCH   6  11
ATOM     11  O   UNL d   1     -50.343  15.362  23.448  0.00  0.00    -0.327 OA
ATOM     12  C   UNL d   1     -51.064  15.706  23.642  0.00  0.00     0.181 C 
ENDBRANCH   6  11
ENDBRANCH   4   5
ENDBRANCH   1   4
BRANCH   1  13
ATOM     13  C   UNL d   1     -47.464  13.843  22.924  0.00  0.00     0.105 A 
ATOM     14  C   UNL d   1     -46.789  14.200  22.595  0.00  0.00     0.014 A 
ATOM     15  C   UNL d   1     -46.093  13.757  22.532  0.00  0.00     0.012 A 
ATOM     16  C   UNL d   1     -46.068  12.959  22.796  0.00  0.00     0.058 A 
ATOM     17  C   UNL d   1     -46.740  12.619  23.118  0.00  0.00     0.012 A 
ATOM     18 CL   UNL d   1     -45.446  12.516  22.756  0.00  0.00    -0.082 Cl
ATOM     19  C   UNL d   1     -47.439  13.045  23.188  0.00  0.00     0.014 A 
ENDBRANCH   1  13
TORSDOF 4
ENDMDL
MODEL 2
REMARK VINA RESULT:      -6.9      1.871      4.091
REMARK  4 active torsions:
REMARK  status: ('A' for Active; 'I' for Inactive)
REMARK    1  A    between atoms: N_2  and  S_1 
REMARK    2  A    between atoms: C_3  and  S_1 
REMARK    3  A    between atoms: C_4  and  N_2 
REMARK    4  A    between atoms: O_14  and  C_7 
ROOT
ATOM      1  S   UNL d   1     -48.399  12.837  22.908  0.00  0.00     0.285 S 
ATOM      2  O   UNL d   1     -48.421  13.479  23.428  0.00  0.00    -0.198 OA
ATOM      3  O   UNL d   1     -48.376  12.181  22.378  0.00  0.00    -0.198 OA
ENDROOT
BRANCH   1   4
ATOM      4  N   UNL d   1     -47.725  12.552  23.286  0.00  0.00    -0.156 NA
BRANCH   4   5
ATOM      5  C   UNL d   1     -46.978  12.783  23.032  0.00  0.00     0.116 A 
ATOM      6  C   UNL d   1     -46.318  12.310  23.174  0.00  0.00     0.112 A 
ATOM      7  C   UNL d   1     -45.571  12.541  22.920  0.00  0.00     0.026 A 
ATOM      8  C   UNL d   1     -45.468  13.250  22.516  0.00  0.00     0.002 A 
ATOM      9  C   UNL d   1     -46.126  13.727  22.371  0.00  0.00     0.002 A 
ATOM     10  C   UNL d   1     -46.872  13.496  22.625  0.00  0.00     0.022 A 
BRANCH   6  11
ATOM     11  O   UNL d   1     -46.430  11.576  23.593  0.00  0.00    -0.327 OA
ATOM     12  C   UNL d   1     -45.810  11.046  23.691  0.00  0.00     0.181 C 
ENDBRANCH   6  11
ENDBRANCH   4   5
ENDBRANCH   1   4
BRANCH   1  13
ATOM     13  C   UNL d   1     -49.089  13.127  22.519  0.00  0.00     0.105 A 
ATOM     14  C   UNL d   1     -49.476  13.798  22.820  0.00  0.00     0.014 A 
ATOM     15  C   UNL d   1     -50.153  14.076  22.432  0.00  0.00     0.012 A 
ATOM     16  C   UNL d   1     -50.444  13.687  21.746  0.00  0.00     0.058 A 
ATOM     17  C   UNL d   1     -50.053  13.027  21.460  0.00  0.00     0.012 A 
ATOM     18 CL   UNL d   1     -51.064  13.912  21.360  0.00  0.00    -0.082 Cl
ATOM     19  C   UNL d   1     -49.380  12.738  21.833  0.00  0.00     0.014 A 
ENDBRANCH   1  13
TORSDOF 4
ENDMDL
