MODEL 1
REMARK VINA RESULT:      77.6      0.000      0.000
REMARK  4 active torsions:
REMARK  status: ('A' for Active; 'I' for Inactive)
REMARK    1  A    between atoms: N_2  and  S_1 
REMARK    2  A    between atoms: C_8  and  S_1 
REMARK       I    between atoms: C_3  and  N_2 
REMARK    3  A    between atoms: C_11  and  N_2 
REMARK       I    between atoms: N_4  and  C_3 
REMARK       I    between atoms: C_5  and  N_4 
REMARK       I    between atoms: N_9  and  C_5 
REMARK    4  A    between atoms: C_13  and  N_9 
ROOT
ATOM      1  N   UNL d   1      43.307 -15.679  36.888  0.00  0.00    -0.182 N 
ATOM      2  C   UNL d   1      43.918 -16.188  36.701  0.00  0.00     0.367 C 
ATOM      3  N   UNL d   1      44.695 -15.939  36.839  0.00  0.00    -0.135 NA
ATOM      4  C   UNL d   1      45.335 -16.430  36.661  0.00  0.00     0.373 C 
ATOM      5  N   UNL d   1      46.108 -16.182  36.798  0.00  0.00    -0.191 NA
ATOM      6  O   UNL d   1      43.782 -16.928  36.386  0.00  0.00    -0.243 OA
ATOM      7  O   UNL d   1      45.165 -17.197  36.333  0.00  0.00    -0.242 OA
ENDROOT
BRANCH   1   8
ATOM      8  S   UNL d   1      42.510 -15.914  36.755  0.00  0.00     0.275 S 
ATOM      9  O   UNL d   1      42.382 -15.223  36.332  0.00  0.00    -0.199 OA
ATOM     10  O   UNL d   1      42.662 -16.597  37.182  0.00  0.00    -0.199 OA
BRANCH   8  11
ATOM     11  C   UNL d   1      41.736 -16.156  36.635  0.00  0.00     0.104 A 
ATOM     12  C   UNL d   1      41.565 -16.939  36.456  0.00  0.00     0.013 A 
ATOM     13  C   UNL d   1      40.780 -17.190  36.333  0.00  0.00     0.001 A 
ATOM     14  C   UNL d   1      40.166 -16.657  36.389  0.00  0.00     0.000 A 
ATOM     15  C   UNL d   1      40.333 -15.861  36.570  0.00  0.00     0.001 A 
ATOM     16  C   UNL d   1      41.118 -15.611  36.693  0.00  0.00     0.013 A 
ENDBRANCH   8  11
ENDBRANCH   1   8
BRANCH   1  17
ATOM     17  C   UNL d   1      43.486 -14.947  37.201  0.00  0.00     0.079 A 
ATOM     18  C   UNL d   1      43.787 -14.363  36.725  0.00  0.00     0.018 A 
ATOM     19  C   UNL d   1      43.970 -13.618  37.041  0.00  0.00     0.002 A 
ATOM     20  C   UNL d   1      43.846 -13.467  37.842  0.00  0.00     0.000 A 
ATOM     21  C   UNL d   1      43.540 -14.063  38.319  0.00  0.00     0.002 A 
ATOM     22  C   UNL d   1      43.362 -14.797  37.998  0.00  0.00     0.018 A 
ENDBRANCH   1  17
BRANCH   5  23
ATOM     23  C   UNL d   1      46.248 -15.432  37.117  0.00  0.00     0.086 A 
ATOM     24  C   UNL d   1      46.267 -14.753  36.628  0.00  0.00     0.019 A 
ATOM     25  C   UNL d   1      46.405 -14.016  36.949  0.00  0.00     0.002 A 
ATOM     26  C   UNL d   1      46.530 -13.932  37.768  0.00  0.00     0.000 A 
ATOM     27  C   UNL d   1      46.514 -14.607  38.269  0.00  0.00     0.002 A 
ATOM     28  C   UNL d   1      46.642 -13.331  38.024  0.00  0.00     0.000 C 
ATOM     29  C   UNL d   1      46.371 -15.350  37.923  0.00  0.00     0.019 A 
ENDBRANCH   5  23
TORSDOF 4
ENDMDL
