MODEL 1
REMARK VINA RESULT:      -9.4      0.000      0.000
REMARK  4 active torsions:
REMARK  status: ('A' for Active; 'I' for Inactive)
REMARK    1  A    between atoms: C_11  and  C_3 
REMARK    2  A    between atoms: C_10  and  N_5 
REMARK    3  A    between atoms: O_17  and  C_11 
REMARK    4  A    between atoms: C_22  and  O_17 
ROOT
ATOM      1  C   UNL d   1      53.493  33.623  54.418  0.00  0.00     0.086 A 
ATOM      2  C   UNL d   1      53.786  32.868  54.260  0.00  0.00     0.038 A 
ATOM      3  C   UNL d   1      53.405  32.364  53.726  0.00  0.00     0.165 A 
ATOM      4  C   UNL d   1      52.806  33.871  54.033  0.00  0.00     0.282 A 
ATOM      5  N   UNL d   1      52.425  33.384  53.508  0.00  0.00    -0.194 N 
ATOM      6  N   UNL d   1      52.724  32.631  53.354  0.00  0.00    -0.157 NA
ATOM      7  C   UNL d   1      53.994  33.983  54.969  0.00  0.00     0.137 A 
ATOM      8  C   UNL d   1      54.473  32.761  54.714  0.00  0.00     0.039 A 
ATOM      9  S   UNL d   1      54.597  33.450  55.150  0.00  0.00    -0.066 SA
ATOM     10  O   UNL d   1      52.507  34.624  54.187  0.00  0.00    -0.265 OA
ATOM     11  N   UNL d   1      53.902  34.737  55.276  0.00  0.00    -0.141 N 
ENDROOT
BRANCH   5  12
ATOM     12  C   UNL d   1      51.734  33.641  53.124  0.00  0.00     0.087 A 
ATOM     13  C   UNL d   1      51.777  33.931  52.363  0.00  0.00     0.031 A 
ATOM     14  C   UNL d   1      51.107  34.187  51.971  0.00  0.00     0.059 A 
ATOM     15 CL   UNL d   1      51.151  34.481  51.201  0.00  0.00    -0.082 Cl
ATOM     16  C   UNL d   1      50.369  34.150  52.358  0.00  0.00     0.011 A 
ATOM     17  C   UNL d   1      50.325  33.857  53.127  0.00  0.00     0.002 A 
ATOM     18  C   UNL d   1      51.007  33.602  53.511  0.00  0.00     0.019 A 
ENDBRANCH   5  12
BRANCH   3  19
ATOM     19  C   UNL d   1      53.704  31.611  53.572  0.00  0.00     0.320 C 
ATOM     20  O   UNL d   1      54.391  31.523  53.127  0.00  0.00    -0.257 OA
BRANCH  19  21
ATOM     21  O   UNL d   1      53.310  30.943  53.868  0.00  0.00    -0.270 OA
BRANCH  21  22
ATOM     22  C   UNL d   1      53.441  30.203  53.532  0.00  0.00     0.126 C 
ATOM     23  C   UNL d   1      53.141  29.523  53.896  0.00  0.00     0.029 C 
ENDBRANCH  21  22
ENDBRANCH  19  21
ENDBRANCH   3  19
TORSDOF 4
ENDMDL
MODEL 2
REMARK VINA RESULT:      -9.0      1.392      2.490
REMARK  4 active torsions:
REMARK  status: ('A' for Active; 'I' for Inactive)
REMARK    1  A    between atoms: C_11  and  C_3 
REMARK    2  A    between atoms: C_10  and  N_5 
REMARK    3  A    between atoms: O_17  and  C_11 
REMARK    4  A    between atoms: C_22  and  O_17 
ROOT
ATOM      1  C   UNL d   1      52.877  31.395  53.271  0.00  0.00     0.086 A 
ATOM      2  C   UNL d   1      53.601  31.692  53.530  0.00  0.00     0.038 A 
ATOM      3  C   UNL d   1      53.725  32.506  53.615  0.00  0.00     0.165 A 
ATOM      4  C   UNL d   1      52.269  31.926  53.096  0.00  0.00     0.282 A 
ATOM      5  N   UNL d   1      52.381  32.726  53.176  0.00  0.00    -0.194 N 
ATOM      6  N   UNL d   1      53.108  33.016  53.435  0.00  0.00    -0.157 NA
ATOM      7  C   UNL d   1      52.931  30.570  53.246  0.00  0.00     0.137 A 
ATOM      8  C   UNL d   1      54.107  31.047  53.666  0.00  0.00     0.039 A 
ATOM      9  S   UNL d   1      53.689  30.358  53.489  0.00  0.00    -0.066 SA
ATOM     10  O   UNL d   1      51.542  31.636  52.836  0.00  0.00    -0.265 OA
ATOM     11  N   UNL d   1      52.332  30.059  53.018  0.00  0.00    -0.141 N 
ENDROOT
BRANCH   5  12
ATOM     12  C   UNL d   1      51.765  33.255  52.997  0.00  0.00     0.087 A 
ATOM     13  C   UNL d   1      51.733  33.607  52.262  0.00  0.00     0.031 A 
ATOM     14  C   UNL d   1      51.135  34.129  52.070  0.00  0.00     0.059 A 
ATOM     15 CL   UNL d   1      51.103  34.485  51.327  0.00  0.00    -0.082 Cl
ATOM     16  C   UNL d   1      50.549  34.304  52.638  0.00  0.00     0.011 A 
ATOM     17  C   UNL d   1      50.581  33.949  53.380  0.00  0.00     0.002 A 
ATOM     18  C   UNL d   1      51.189  33.424  53.561  0.00  0.00     0.019 A 
ENDBRANCH   5  12
BRANCH   3  19
ATOM     19  C   UNL d   1      54.452  32.795  53.874  0.00  0.00     0.320 C 
ATOM     20  O   UNL d   1      55.090  32.832  53.355  0.00  0.00    -0.257 OA
BRANCH  19  21
ATOM     21  O   UNL d   1      54.538  33.049  54.659  0.00  0.00    -0.270 OA
BRANCH  21  22
ATOM     22  C   UNL d   1      55.131  33.585  54.859  0.00  0.00     0.126 C 
ATOM     23  C   UNL d   1      55.157  33.910  55.619  0.00  0.00     0.029 C 
ENDBRANCH  21  22
ENDBRANCH  19  21
ENDBRANCH   3  19
TORSDOF 4
ENDMDL
MODEL 3
REMARK VINA RESULT:      -8.5      1.496      3.377
REMARK  4 active torsions:
REMARK  status: ('A' for Active; 'I' for Inactive)
REMARK    1  A    between atoms: C_11  and  C_3 
REMARK    2  A    between atoms: C_10  and  N_5 
REMARK    3  A    between atoms: O_17  and  C_11 
REMARK    4  A    between atoms: C_22  and  O_17 
ROOT
ATOM      1  C   UNL d   1      53.304  33.611  54.253  0.00  0.00     0.086 A 
ATOM      2  C   UNL d   1      52.774  34.039  53.788  0.00  0.00     0.038 A 
ATOM      3  C   UNL d   1      52.350  33.675  53.178  0.00  0.00     0.165 A 
ATOM      4  C   UNL d   1      53.407  32.806  54.101  0.00  0.00     0.282 A 
ATOM      5  N   UNL d   1      52.995  32.440  53.505  0.00  0.00    -0.194 N 
ATOM      6  N   UNL d   1      52.467  32.874  53.044  0.00  0.00    -0.157 NA
ATOM      7  C   UNL d   1      53.636  34.128  54.807  0.00  0.00     0.137 A 
ATOM      8  C   UNL d   1      52.777  34.825  54.055  0.00  0.00     0.039 A 
ATOM      9  S   UNL d   1      53.310  34.875  54.684  0.00  0.00    -0.066 SA
ATOM     10  O   UNL d   1      53.936  32.372  54.562  0.00  0.00    -0.265 OA
ATOM     11  N   UNL d   1      54.190  33.927  55.376  0.00  0.00    -0.141 N 
ENDROOT
BRANCH   5  12
ATOM     12  C   UNL d   1      53.103  31.630  53.357  0.00  0.00     0.087 A 
ATOM     13  C   UNL d   1      52.488  31.109  53.483  0.00  0.00     0.031 A 
ATOM     14  C   UNL d   1      52.578  30.309  53.342  0.00  0.00     0.059 A 
ATOM     15 CL   UNL d   1      51.956  29.782  53.469  0.00  0.00    -0.082 Cl
ATOM     16  C   UNL d   1      53.311  30.023  53.065  0.00  0.00     0.011 A 
ATOM     17  C   UNL d   1      53.933  30.549  52.938  0.00  0.00     0.002 A 
ATOM     18  C   UNL d   1      53.830  31.352  53.083  0.00  0.00     0.019 A 
ENDBRANCH   5  12
BRANCH   3  19
ATOM     19  C   UNL d   1      51.821  34.109  52.717  0.00  0.00     0.320 C 
ATOM     20  O   UNL d   1      52.096  34.545  52.075  0.00  0.00    -0.257 OA
BRANCH  19  21
ATOM     21  O   UNL d   1      51.012  34.104  52.902  0.00  0.00    -0.270 OA
BRANCH  21  22
ATOM     22  C   UNL d   1      50.457  34.339  52.341  0.00  0.00     0.126 C 
ATOM     23  C   UNL d   1      49.669  34.455  52.561  0.00  0.00     0.029 C 
ENDBRANCH  21  22
ENDBRANCH  19  21
ENDBRANCH   3  19
TORSDOF 4
ENDMDL
MODEL 4
REMARK VINA RESULT:      -8.3      1.803      3.091
REMARK  4 active torsions:
REMARK  status: ('A' for Active; 'I' for Inactive)
REMARK    1  A    between atoms: C_11  and  C_3 
REMARK    2  A    between atoms: C_10  and  N_5 
REMARK    3  A    between atoms: O_17  and  C_11 
REMARK    4  A    between atoms: C_22  and  O_17 
ROOT
ATOM      1  C   UNL d   1      52.150  33.324  53.385  0.00  0.00     0.086 A 
ATOM      2  C   UNL d   1      52.149  32.563  53.067  0.00  0.00     0.038 A 
ATOM      3  C   UNL d   1      52.748  32.022  53.248  0.00  0.00     0.165 A 
ATOM      4  C   UNL d   1      52.765  33.542  53.891  0.00  0.00     0.282 A 
ATOM      5  N   UNL d   1      53.358  33.019  54.075  0.00  0.00    -0.194 N 
ATOM      6  N   UNL d   1      53.350  32.259  53.753  0.00  0.00    -0.157 NA
ATOM      7  C   UNL d   1      51.485  33.723  53.101  0.00  0.00     0.137 A 
ATOM      8  C   UNL d   1      51.478  32.491  52.583  0.00  0.00     0.039 A 
ATOM      9  S   UNL d   1      51.072  33.208  52.607  0.00  0.00    -0.066 SA
ATOM     10  O   UNL d   1      52.774  34.301  54.213  0.00  0.00    -0.265 OA
ATOM     11  N   UNL d   1      51.277  34.495  53.281  0.00  0.00    -0.141 N 
ENDROOT
BRANCH   5  12
ATOM     12  C   UNL d   1      53.974  33.244  54.585  0.00  0.00     0.087 A 
ATOM     13  C   UNL d   1      54.644  33.596  54.281  0.00  0.00     0.031 A 
ATOM     14  C   UNL d   1      55.258  33.824  54.769  0.00  0.00     0.059 A 
ATOM     15 CL   UNL d   1      55.936  34.179  54.462  0.00  0.00    -0.082 Cl
ATOM     16  C   UNL d   1      55.197  33.693  55.591  0.00  0.00     0.011 A 
ATOM     17  C   UNL d   1      54.520  33.338  55.898  0.00  0.00     0.002 A 
ATOM     18  C   UNL d   1      53.908  33.113  55.396  0.00  0.00     0.019 A 
ENDBRANCH   5  12
BRANCH   3  19
ATOM     19  C   UNL d   1      52.740  31.263  52.927  0.00  0.00     0.320 C 
ATOM     20  O   UNL d   1      52.883  31.154  52.123  0.00  0.00    -0.257 OA
BRANCH  19  21
ATOM     21  O   UNL d   1      52.587  30.610  53.415  0.00  0.00    -0.270 OA
BRANCH  21  22
ATOM     22  C   UNL d   1      52.939  29.883  53.257  0.00  0.00     0.126 C 
ATOM     23  C   UNL d   1      52.945  29.291  53.835  0.00  0.00     0.029 C 
ENDBRANCH  21  22
ENDBRANCH  19  21
ENDBRANCH   3  19
TORSDOF 4
ENDMDL
MODEL 5
REMARK VINA RESULT:      -8.0      2.070      3.628
REMARK  4 active torsions:
REMARK  status: ('A' for Active; 'I' for Inactive)
REMARK    1  A    between atoms: C_11  and  C_3 
REMARK    2  A    between atoms: C_10  and  N_5 
REMARK    3  A    between atoms: O_17  and  C_11 
REMARK    4  A    between atoms: C_22  and  O_17 
ROOT
ATOM      1  C   UNL d   1      52.359  32.904  53.228  0.00  0.00     0.086 A 
ATOM      2  C   UNL d   1      53.046  33.304  53.448  0.00  0.00     0.038 A 
ATOM      3  C   UNL d   1      53.734  32.893  53.650  0.00  0.00     0.165 A 
ATOM      4  C   UNL d   1      52.368  32.079  53.213  0.00  0.00     0.282 A 
ATOM      5  N   UNL d   1      53.038  31.666  53.410  0.00  0.00    -0.194 N 
ATOM      6  N   UNL d   1      53.722  32.073  53.628  0.00  0.00    -0.157 NA
ATOM      7  C   UNL d   1      51.776  33.466  53.061  0.00  0.00     0.137 A 
ATOM      8  C   UNL d   1      52.887  34.119  53.417  0.00  0.00     0.039 A 
ATOM      9  S   UNL d   1      52.103  34.214  53.178  0.00  0.00    -0.066 SA
ATOM     10  O   UNL d   1      51.684  31.672  52.994  0.00  0.00    -0.265 OA
ATOM     11  N   UNL d   1      51.009  33.303  52.823  0.00  0.00    -0.141 N 
ENDROOT
BRANCH   5  12
ATOM     12  C   UNL d   1      53.040  30.835  53.392  0.00  0.00     0.087 A 
ATOM     13  C   UNL d   1      53.142  30.415  54.084  0.00  0.00     0.031 A 
ATOM     14  C   UNL d   1      53.147  29.598  54.084  0.00  0.00     0.059 A 
ATOM     15 CL   UNL d   1      53.250  29.174  54.784  0.00  0.00    -0.082 Cl
ATOM     16  C   UNL d   1      53.045  29.190  53.364  0.00  0.00     0.011 A 
ATOM     17  C   UNL d   1      52.942  29.614  52.665  0.00  0.00     0.002 A 
ATOM     18  C   UNL d   1      52.939  30.437  52.678  0.00  0.00     0.019 A 
ENDBRANCH   5  12
BRANCH   3  19
ATOM     19  C   UNL d   1      54.418  33.300  53.869  0.00  0.00     0.320 C 
ATOM     20  O   UNL d   1      54.997  33.465  53.307  0.00  0.00    -0.257 OA
BRANCH  19  21
ATOM     21  O   UNL d   1      54.519  33.542  54.656  0.00  0.00    -0.270 OA
BRANCH  21  22
ATOM     22  C   UNL d   1      55.272  33.714  54.942  0.00  0.00     0.126 C 
ATOM     23  C   UNL d   1      55.374  33.934  55.733  0.00  0.00     0.029 C 
ENDBRANCH  21  22
ENDBRANCH  19  21
ENDBRANCH   3  19
TORSDOF 4
ENDMDL
MODEL 6
REMARK VINA RESULT:      -8.0      1.980      3.830
REMARK  4 active torsions:
REMARK  status: ('A' for Active; 'I' for Inactive)
REMARK    1  A    between atoms: C_11  and  C_3 
REMARK    2  A    between atoms: C_10  and  N_5 
REMARK    3  A    between atoms: O_17  and  C_11 
REMARK    4  A    between atoms: C_22  and  O_17 
ROOT
ATOM      1  C   UNL d   1      53.145  31.363  53.509  0.00  0.00     0.086 A 
ATOM      2  C   UNL d   1      52.593  31.797  53.077  0.00  0.00     0.038 A 
ATOM      3  C   UNL d   1      52.549  32.621  53.144  0.00  0.00     0.165 A 
ATOM      4  C   UNL d   1      53.659  31.765  54.014  0.00  0.00     0.282 A 
ATOM      5  N   UNL d   1      53.624  32.573  54.087  0.00  0.00    -0.194 N 
ATOM      6  N   UNL d   1      53.069  33.000  53.652  0.00  0.00    -0.157 NA
ATOM      7  C   UNL d   1      53.048  30.564  53.321  0.00  0.00     0.137 A 
ATOM      8  C   UNL d   1      52.151  31.264  52.619  0.00  0.00     0.039 A 
ATOM      9  S   UNL d   1      52.436  30.504  52.772  0.00  0.00    -0.066 SA
ATOM     10  O   UNL d   1      54.215  31.337  54.449  0.00  0.00    -0.265 OA
ATOM     11  N   UNL d   1      53.487  29.944  53.628  0.00  0.00    -0.141 N 
ENDROOT
BRANCH   5  12
ATOM     12  C   UNL d   1      54.145  32.971  54.597  0.00  0.00     0.087 A 
ATOM     13  C   UNL d   1      54.777  33.386  54.290  0.00  0.00     0.031 A 
ATOM     14  C   UNL d   1      55.297  33.783  54.778  0.00  0.00     0.059 A 
ATOM     15 CL   UNL d   1      55.936  34.202  54.467  0.00  0.00    -0.082 Cl
ATOM     16  C   UNL d   1      55.179  33.763  55.604  0.00  0.00     0.011 A 
ATOM     17  C   UNL d   1      54.541  33.344  55.914  0.00  0.00     0.002 A 
ATOM     18  C   UNL d   1      54.023  32.948  55.412  0.00  0.00     0.019 A 
ENDBRANCH   5  12
BRANCH   3  19
ATOM     19  C   UNL d   1      51.993  33.048  52.709  0.00  0.00     0.320 C 
ATOM     20  O   UNL d   1      52.092  33.146  51.897  0.00  0.00    -0.257 OA
BRANCH  19  21
ATOM     21  O   UNL d   1      51.336  33.379  53.092  0.00  0.00    -0.270 OA
BRANCH  21  22
ATOM     22  C   UNL d   1      50.929  34.007  52.748  0.00  0.00     0.126 C 
ATOM     23  C   UNL d   1      50.242  34.300  53.103  0.00  0.00     0.029 C 
ENDBRANCH  21  22
ENDBRANCH  19  21
ENDBRANCH   3  19
TORSDOF 4
ENDMDL
