MODEL 1
REMARK VINA RESULT:      30.3      0.000      0.000
REMARK  8 active torsions:
REMARK  status: ('A' for Active; 'I' for Inactive)
REMARK    1  A    between atoms: C_2  and  C_1 
REMARK    2  A    between atoms: C_5  and  C_1 
REMARK    3  A    between atoms: O_11  and  C_2 
REMARK    4  A    between atoms: C_13  and  C_3 
REMARK    5  A    between atoms: C_6  and  C_5 
REMARK    6  A    between atoms: C_23  and  O_11 
REMARK    7  A    between atoms: C_12  and  S_14 
REMARK    8  A    between atoms: S_14  and  C_18 
ROOT
ATOM      1  C   UNL d   1      14.359  12.124  -0.855  0.00  0.00     0.134 C 
ATOM      2  C   UNL d   1      13.665  11.953  -0.443  0.00  0.00     0.106 C 
ATOM      3  N   UNL d   1      12.970  11.781  -0.034  0.00  0.00    -0.191 NA
ENDROOT
BRANCH   1   4
ATOM      4  C   UNL d   1      14.973  12.523  -0.471  0.00  0.00     0.310 C 
ATOM      5  O   UNL d   1      15.746  12.240  -0.522  0.00  0.00    -0.258 OA
BRANCH   4   6
ATOM      6  O   UNL d   1      14.815  13.208  -0.035  0.00  0.00    -0.273 OA
BRANCH   6   7
ATOM      7  C   UNL d   1      15.273  13.877  -0.145  0.00  0.00     0.103 C 
ATOM      8  C   UNL d   1      14.917  14.617  -0.230  0.00  0.00     0.027 C 
ATOM      9  C   UNL d   1      16.097  13.813  -0.172  0.00  0.00     0.027 C 
ENDBRANCH   6   7
ENDBRANCH   4   6
ENDBRANCH   1   4
BRANCH   1  10
ATOM     10  C   UNL d   1      14.444  11.901  -1.640  0.00  0.00     0.040 C 
BRANCH  10  11
ATOM     11  C   UNL d   1      13.852  12.078  -2.176  0.00  0.00     0.101 A 
ATOM     12  O   UNL d   1      13.998  12.698  -2.694  0.00  0.00    -0.307 OA
ATOM     13  C   UNL d   1      13.343  12.785  -3.182  0.00  0.00     0.100 A 
ATOM     14  C   UNL d   1      12.787  12.215  -2.966  0.00  0.00     0.027 A 
ATOM     15  C   UNL d   1      13.091  11.780  -2.353  0.00  0.00     0.027 A 
BRANCH  13  16
ATOM     16  C   UNL d   1      13.252  13.338  -3.779  0.00  0.00     0.023 A 
ATOM     17  C   UNL d   1      13.697  14.011  -3.577  0.00  0.00     0.003 A 
ATOM     18  C   UNL d   1      13.707  14.666  -4.086  0.00  0.00     0.007 A 
ATOM     19  C   UNL d   1      13.280  14.650  -4.789  0.00  0.00     0.034 A 
ATOM     20  C   UNL d   1      12.839  13.983  -4.989  0.00  0.00     0.007 A 
ATOM     21  C   UNL d   1      12.822  13.325  -4.488  0.00  0.00     0.003 A 
BRANCH  19  22
ATOM     22  S   UNL d   1      13.293  15.301  -5.291  0.00  0.00    -0.028 SA
BRANCH  22  23
ATOM     23  C   UNL d   1      13.895  15.857  -5.224  0.00  0.00     0.309 C 
ATOM     24  F   UNL d   1      14.394  15.848  -4.567  0.00  0.00    -0.165 F 
ATOM     25  F   UNL d   1      14.002  16.422  -5.814  0.00  0.00    -0.165 F 
ENDBRANCH  22  23
ENDBRANCH  19  22
ENDBRANCH  13  16
ENDBRANCH  10  11
ENDBRANCH   1  10
TORSDOF 8
ENDMDL
