MODEL 1
REMARK VINA RESULT:      -5.8      0.000      0.000
REMARK  6 active torsions:
REMARK  status: ('A' for Active; 'I' for Inactive)
REMARK       I    between atoms: C_2  and  N_1 
REMARK    1  A    between atoms: C_8  and  C_2 
REMARK    2  A    between atoms: C_11  and  C_3 
REMARK       I    between atoms: C_4  and  N_6 
REMARK    3  A    between atoms: C_5  and  C_4 
REMARK       I    between atoms: N_7  and  C_5 
REMARK    4  A    between atoms: N_6  and  C_11 
REMARK    5  A    between atoms: C_17  and  N_7 
REMARK    6  A    between atoms: C_20  and  C_17 
ROOT
ATOM      1  C   UNL d   1     -45.150  12.979  22.049  0.00  0.00     0.146 C 
ENDROOT
BRANCH   1   2
ATOM      2  N   UNL d   1     -44.672  12.427  22.432  0.00  0.00    -0.199 NA
ATOM      3  C   UNL d   1     -43.913  12.283  22.155  0.00  0.00     0.337 C 
ATOM      4  O   UNL d   1     -43.435  11.731  22.539  0.00  0.00    -0.260 OA
BRANCH   3   5
ATOM      5  C   UNL d   1     -43.621  12.686  21.494  0.00  0.00     0.337 C 
ATOM      6  N   UNL d   1     -42.952  13.145  21.554  0.00  0.00    -0.202 NA
ATOM      7  O   UNL d   1     -44.013  12.619  20.772  0.00  0.00    -0.260 OA
BRANCH   6   8
ATOM      8  C   UNL d   1     -42.660  13.548  20.893  0.00  0.00     0.102 C 
BRANCH   8   9
ATOM      9  C   UNL d   1     -41.975  13.996  20.946  0.00  0.00     0.019 A 
ATOM     10  C   UNL d   1     -41.237  13.644  20.968  0.00  0.00     0.002 A 
ATOM     11  C   UNL d   1     -40.551  14.079  21.020  0.00  0.00     0.011 A 
ATOM     12  C   UNL d   1     -40.601  14.914  21.051  0.00  0.00     0.058 A 
ATOM     13  C   UNL d   1     -41.336  15.284  21.030  0.00  0.00     0.011 A 
ATOM     14 CL   UNL d   1     -39.903  15.367  21.104  0.00  0.00    -0.082 Cl
ATOM     15  C   UNL d   1     -42.025  14.831  20.977  0.00  0.00     0.002 A 
ENDBRANCH   8   9
ENDBRANCH   6   8
ENDBRANCH   3   5
ENDBRANCH   1   2
BRANCH   1  16
ATOM     16  C   UNL d   1     -45.721  13.393  22.471  0.00  0.00     0.190 A 
ATOM     17  N   UNL d   1     -46.536  13.319  22.376  0.00  0.00    -0.250 N 
ATOM     18  C   UNL d   1     -46.925  12.818  21.843  0.00  0.00     0.266 C 
ATOM     19  C   UNL d   1     -46.892  13.835  22.910  0.00  0.00     0.112 A 
ATOM     20  O   UNL d   1     -46.494  12.330  21.341  0.00  0.00    -0.267 OA
ATOM     21  C   UNL d   1     -46.303  14.232  23.338  0.00  0.00     0.144 A 
ATOM     22  O   UNL d   1     -45.577  13.958  23.066  0.00  0.00    -0.285 OA
BRANCH  18  23
ATOM     23  C   UNL d   1     -47.763  12.808  21.814  0.00  0.00     0.057 A 
ATOM     24  C   UNL d   1     -48.165  13.338  21.337  0.00  0.00     0.006 A 
ATOM     25  C   UNL d   1     -48.990  13.327  21.311  0.00  0.00     0.012 A 
ATOM     26  C   UNL d   1     -49.408  12.782  21.763  0.00  0.00     0.058 A 
ATOM     27  C   UNL d   1     -49.001  12.246  22.246  0.00  0.00     0.012 A 
ATOM     28 CL   UNL d   1     -50.243  12.773  21.735  0.00  0.00    -0.082 Cl
ATOM     29  C   UNL d   1     -48.186  12.262  22.268  0.00  0.00     0.006 A 
ENDBRANCH  18  23
ENDBRANCH   1  16
TORSDOF 6
ENDMDL
MODEL 2
REMARK VINA RESULT:      -5.6      1.080      1.379
REMARK  6 active torsions:
REMARK  status: ('A' for Active; 'I' for Inactive)
REMARK       I    between atoms: C_2  and  N_1 
REMARK    1  A    between atoms: C_8  and  C_2 
REMARK    2  A    between atoms: C_11  and  C_3 
REMARK       I    between atoms: C_4  and  N_6 
REMARK    3  A    between atoms: C_5  and  C_4 
REMARK       I    between atoms: N_7  and  C_5 
REMARK    4  A    between atoms: N_6  and  C_11 
REMARK    5  A    between atoms: C_17  and  N_7 
REMARK    6  A    between atoms: C_20  and  C_17 
ROOT
ATOM      1  C   UNL d   1     -44.799  12.296  22.557  0.00  0.00     0.146 C 
ENDROOT
BRANCH   1   2
ATOM      2  N   UNL d   1     -44.155  11.807  22.717  0.00  0.00    -0.199 NA
ATOM      3  C   UNL d   1     -43.462  11.890  22.285  0.00  0.00     0.337 C 
ATOM      4  O   UNL d   1     -42.818  11.401  22.445  0.00  0.00    -0.260 OA
BRANCH   3   5
ATOM      5  C   UNL d   1     -43.403  12.461  21.689  0.00  0.00     0.337 C 
ATOM      6  N   UNL d   1     -42.767  12.968  21.666  0.00  0.00    -0.202 NA
ATOM      7  O   UNL d   1     -43.993  12.512  21.116  0.00  0.00    -0.260 OA
BRANCH   6   8
ATOM      8  C   UNL d   1     -42.708  13.538  21.070  0.00  0.00     0.102 C 
BRANCH   8   9
ATOM      9  C   UNL d   1     -42.026  13.987  20.986  0.00  0.00     0.019 A 
ATOM     10  C   UNL d   1     -41.307  13.638  20.812  0.00  0.00     0.002 A 
ATOM     11  C   UNL d   1     -40.624  14.074  20.727  0.00  0.00     0.011 A 
ATOM     12  C   UNL d   1     -40.659  14.905  20.821  0.00  0.00     0.058 A 
ATOM     13  C   UNL d   1     -41.375  15.271  20.996  0.00  0.00     0.011 A 
ATOM     14 CL   UNL d   1     -39.964  15.359  20.735  0.00  0.00    -0.082 Cl
ATOM     15  C   UNL d   1     -42.060  14.818  21.079  0.00  0.00     0.002 A 
ENDBRANCH   8   9
ENDBRANCH   6   8
ENDBRANCH   3   5
ENDBRANCH   1   2
BRANCH   1  16
ATOM     16  C   UNL d   1     -45.518  12.167  22.936  0.00  0.00     0.190 A 
ATOM     17  N   UNL d   1     -46.184  12.647  22.874  0.00  0.00    -0.250 N 
ATOM     18  C   UNL d   1     -46.252  13.340  22.424  0.00  0.00     0.266 C 
ATOM     19  C   UNL d   1     -46.772  12.310  23.343  0.00  0.00     0.112 A 
ATOM     20  O   UNL d   1     -45.616  13.611  21.980  0.00  0.00    -0.267 OA
ATOM     21  C   UNL d   1     -46.475  11.622  23.698  0.00  0.00     0.144 A 
ATOM     22  O   UNL d   1     -45.698  11.533  23.445  0.00  0.00    -0.285 OA
BRANCH  18  23
ATOM     23  C   UNL d   1     -46.974  13.767  22.420  0.00  0.00     0.057 A 
ATOM     24  C   UNL d   1     -47.056  14.438  22.882  0.00  0.00     0.006 A 
ATOM     25  C   UNL d   1     -47.767  14.858  22.877  0.00  0.00     0.012 A 
ATOM     26  C   UNL d   1     -48.392  14.601  22.409  0.00  0.00     0.058 A 
ATOM     27  C   UNL d   1     -48.308  13.922  21.943  0.00  0.00     0.012 A 
ATOM     28 CL   UNL d   1     -49.111  15.028  22.406  0.00  0.00    -0.082 Cl
ATOM     29  C   UNL d   1     -47.604  13.512  21.952  0.00  0.00     0.006 A 
ENDBRANCH  18  23
ENDBRANCH   1  16
TORSDOF 6
ENDMDL
MODEL 3
REMARK VINA RESULT:      -5.2      2.245      6.466
REMARK  6 active torsions:
REMARK  status: ('A' for Active; 'I' for Inactive)
REMARK       I    between atoms: C_2  and  N_1 
REMARK    1  A    between atoms: C_8  and  C_2 
REMARK    2  A    between atoms: C_11  and  C_3 
REMARK       I    between atoms: C_4  and  N_6 
REMARK    3  A    between atoms: C_5  and  C_4 
REMARK       I    between atoms: N_7  and  C_5 
REMARK    4  A    between atoms: N_6  and  C_11 
REMARK    5  A    between atoms: C_17  and  N_7 
REMARK    6  A    between atoms: C_20  and  C_17 
ROOT
ATOM      1  C   UNL d   1     -41.906  13.919  20.698  0.00  0.00     0.146 C 
ENDROOT
BRANCH   1   2
ATOM      2  N   UNL d   1     -41.726  13.415  21.324  0.00  0.00    -0.199 NA
ATOM      3  C   UNL d   1     -42.305  12.922  21.631  0.00  0.00     0.337 C 
ATOM      4  O   UNL d   1     -42.124  12.417  22.258  0.00  0.00    -0.260 OA
BRANCH   3   5
ATOM      5  C   UNL d   1     -43.071  12.925  21.319  0.00  0.00     0.337 C 
ATOM      6  N   UNL d   1     -43.706  13.122  21.788  0.00  0.00    -0.202 NA
ATOM      7  O   UNL d   1     -43.188  12.729  20.527  0.00  0.00    -0.260 OA
BRANCH   6   8
ATOM      8  C   UNL d   1     -44.473  13.126  21.475  0.00  0.00     0.102 C 
BRANCH   8   9
ATOM      9  C   UNL d   1     -45.124  13.211  21.966  0.00  0.00     0.019 A 
ATOM     10  C   UNL d   1     -45.400  13.951  22.181  0.00  0.00     0.002 A 
ATOM     11  C   UNL d   1     -46.046  14.047  22.668  0.00  0.00     0.011 A 
ATOM     12  C   UNL d   1     -46.441  13.368  22.958  0.00  0.00     0.058 A 
ATOM     13  C   UNL d   1     -46.176  12.618  22.751  0.00  0.00     0.011 A 
ATOM     14 CL   UNL d   1     -47.103  13.458  23.457  0.00  0.00    -0.082 Cl
ATOM     15  C   UNL d   1     -45.519  12.533  22.256  0.00  0.00     0.002 A 
ENDBRANCH   8   9
ENDBRANCH   6   8
ENDBRANCH   3   5
ENDBRANCH   1   2
BRANCH   1  16
ATOM     16  C   UNL d   1     -41.488  14.621  20.600  0.00  0.00     0.190 A 
ATOM     17  N   UNL d   1     -41.077  14.843  19.922  0.00  0.00    -0.250 N 
ATOM     18  C   UNL d   1     -41.010  14.406  19.221  0.00  0.00     0.266 C 
ATOM     19  C   UNL d   1     -40.745  15.582  20.070  0.00  0.00     0.112 A 
ATOM     20  O   UNL d   1     -41.375  13.672  19.154  0.00  0.00    -0.267 OA
ATOM     21  C   UNL d   1     -40.946  15.822  20.837  0.00  0.00     0.144 A 
ATOM     22  O   UNL d   1     -41.407  15.226  21.166  0.00  0.00    -0.285 OA
BRANCH  18  23
ATOM     23  C   UNL d   1     -40.569  14.712  18.577  0.00  0.00     0.057 A 
ATOM     24  C   UNL d   1     -39.770  14.548  18.512  0.00  0.00     0.006 A 
ATOM     25  C   UNL d   1     -39.337  14.850  17.877  0.00  0.00     0.012 A 
ATOM     26  C   UNL d   1     -39.709  15.317  17.311  0.00  0.00     0.058 A 
ATOM     27  C   UNL d   1     -40.517  15.483  17.379  0.00  0.00     0.012 A 
ATOM     28 CL   UNL d   1     -39.269  15.622  16.670  0.00  0.00    -0.082 Cl
ATOM     29  C   UNL d   1     -40.940  15.181  18.008  0.00  0.00     0.006 A 
ENDBRANCH  18  23
ENDBRANCH   1  16
TORSDOF 6
ENDMDL
MODEL 4
REMARK VINA RESULT:      -4.1      5.562      7.899
REMARK  6 active torsions:
REMARK  status: ('A' for Active; 'I' for Inactive)
REMARK       I    between atoms: C_2  and  N_1 
REMARK    1  A    between atoms: C_8  and  C_2 
REMARK    2  A    between atoms: C_11  and  C_3 
REMARK       I    between atoms: C_4  and  N_6 
REMARK    3  A    between atoms: C_5  and  C_4 
REMARK       I    between atoms: N_7  and  C_5 
REMARK    4  A    between atoms: N_6  and  C_11 
REMARK    5  A    between atoms: C_17  and  N_7 
REMARK    6  A    between atoms: C_20  and  C_17 
ROOT
ATOM      1  C   UNL d   1     -40.050  14.230  18.842  0.00  0.00     0.146 C 
ENDROOT
BRANCH   1   2
ATOM      2  N   UNL d   1     -40.798  13.917  18.987  0.00  0.00    -0.199 NA
ATOM      3  C   UNL d   1     -41.170  14.062  19.704  0.00  0.00     0.337 C 
ATOM      4  O   UNL d   1     -41.919  13.748  19.848  0.00  0.00    -0.260 OA
BRANCH   3   5
ATOM      5  C   UNL d   1     -40.800  14.521  20.285  0.00  0.00     0.337 C 
ATOM      6  N   UNL d   1     -40.310  14.173  20.834  0.00  0.00    -0.202 NA
ATOM      7  O   UNL d   1     -40.933  15.334  20.306  0.00  0.00    -0.260 OA
BRANCH   6   8
ATOM      8  C   UNL d   1     -39.941  14.632  21.415  0.00  0.00     0.102 C 
BRANCH   8   9
ATOM      9  C   UNL d   1     -39.445  14.285  21.969  0.00  0.00     0.019 A 
ATOM     10  C   UNL d   1     -38.680  14.553  22.081  0.00  0.00     0.002 A 
ATOM     11  C   UNL d   1     -38.179  14.216  22.628  0.00  0.00     0.011 A 
ATOM     12  C   UNL d   1     -38.455  13.575  23.090  0.00  0.00     0.058 A 
ATOM     13  C   UNL d   1     -39.222  13.294  22.989  0.00  0.00     0.011 A 
ATOM     14 CL   UNL d   1     -37.949  13.225  23.652  0.00  0.00    -0.082 Cl
ATOM     15  C   UNL d   1     -39.720  13.644  22.432  0.00  0.00     0.002 A 
ENDBRANCH   8   9
ENDBRANCH   6   8
ENDBRANCH   3   5
ENDBRANCH   1   2
BRANCH   1  16
ATOM     16  C   UNL d   1     -39.536  13.850  18.325  0.00  0.00     0.190 A 
ATOM     17  N   UNL d   1     -39.225  14.173  17.634  0.00  0.00    -0.250 N 
ATOM     18  C   UNL d   1     -39.370  14.933  17.337  0.00  0.00     0.266 C 
ATOM     19  C   UNL d   1     -38.741  13.600  17.293  0.00  0.00     0.112 A 
ATOM     20  O   UNL d   1     -39.868  15.448  17.740  0.00  0.00    -0.267 OA
ATOM     21  C   UNL d   1     -38.750  12.920  17.767  0.00  0.00     0.144 A 
ATOM     22  O   UNL d   1     -39.242  13.074  18.407  0.00  0.00    -0.285 OA
BRANCH  18  23
ATOM     23  C   UNL d   1     -39.008  15.179  16.622  0.00  0.00     0.057 A 
ATOM     24  C   UNL d   1     -38.360  15.678  16.641  0.00  0.00     0.006 A 
ATOM     25  C   UNL d   1     -38.004  15.920  15.936  0.00  0.00     0.012 A 
ATOM     26  C   UNL d   1     -38.301  15.658  15.215  0.00  0.00     0.058 A 
ATOM     27  C   UNL d   1     -38.957  15.153  15.198  0.00  0.00     0.012 A 
ATOM     28 CL   UNL d   1     -37.940  15.904  14.503  0.00  0.00    -0.082 Cl
ATOM     29  C   UNL d   1     -39.304  14.918  15.897  0.00  0.00     0.006 A 
ENDBRANCH  18  23
ENDBRANCH   1  16
TORSDOF 6
ENDMDL
MODEL 5
REMARK VINA RESULT:      -4.0      1.801      2.625
REMARK  6 active torsions:
REMARK  status: ('A' for Active; 'I' for Inactive)
REMARK       I    between atoms: C_2  and  N_1 
REMARK    1  A    between atoms: C_8  and  C_2 
REMARK    2  A    between atoms: C_11  and  C_3 
REMARK       I    between atoms: C_4  and  N_6 
REMARK    3  A    between atoms: C_5  and  C_4 
REMARK       I    between atoms: N_7  and  C_5 
REMARK    4  A    between atoms: N_6  and  C_11 
REMARK    5  A    between atoms: C_17  and  N_7 
REMARK    6  A    between atoms: C_20  and  C_17 
ROOT
ATOM      1  C   UNL d   1     -47.149  12.400  23.172  0.00  0.00     0.146 C 
ENDROOT
BRANCH   1   2
ATOM      2  N   UNL d   1     -46.602  11.945  23.587  0.00  0.00    -0.199 NA
ATOM      3  C   UNL d   1     -45.850  11.831  23.279  0.00  0.00     0.337 C 
ATOM      4  O   UNL d   1     -45.301  11.375  23.695  0.00  0.00    -0.260 OA
BRANCH   3   5
ATOM      5  C   UNL d   1     -45.634  12.169  22.555  0.00  0.00     0.337 C 
ATOM      6  N   UNL d   1     -44.892  12.487  22.454  0.00  0.00    -0.202 NA
ATOM      7  O   UNL d   1     -46.177  12.181  21.935  0.00  0.00    -0.260 OA
BRANCH   6   8
ATOM      8  C   UNL d   1     -44.677  12.825  21.730  0.00  0.00     0.102 C 
BRANCH   8   9
ATOM      9  C   UNL d   1     -43.899  13.046  21.586  0.00  0.00     0.019 A 
ATOM     10  C   UNL d   1     -43.715  13.790  21.304  0.00  0.00     0.002 A 
ATOM     11  C   UNL d   1     -42.947  14.020  21.158  0.00  0.00     0.011 A 
ATOM     12  C   UNL d   1     -42.327  13.476  21.301  0.00  0.00     0.058 A 
ATOM     13  C   UNL d   1     -42.496  12.723  21.585  0.00  0.00     0.011 A 
ATOM     14 CL   UNL d   1     -41.538  13.703  21.154  0.00  0.00    -0.082 Cl
ATOM     15  C   UNL d   1     -43.279  12.502  21.729  0.00  0.00     0.002 A 
ENDBRANCH   8   9
ENDBRANCH   6   8
ENDBRANCH   3   5
ENDBRANCH   1   2
BRANCH   1  16
ATOM     16  C   UNL d   1     -47.955  12.281  23.287  0.00  0.00     0.190 A 
ATOM     17  N   UNL d   1     -48.538  12.860  23.230  0.00  0.00    -0.250 N 
ATOM     18  C   UNL d   1     -48.421  13.660  23.049  0.00  0.00     0.266 C 
ATOM     19  C   UNL d   1     -49.260  12.496  23.387  0.00  0.00     0.112 A 
ATOM     20  O   UNL d   1     -47.664  13.946  22.904  0.00  0.00    -0.267 OA
ATOM     21  C   UNL d   1     -49.131  11.691  23.541  0.00  0.00     0.144 A 
ATOM     22  O   UNL d   1     -48.322  11.558  23.479  0.00  0.00    -0.285 OA
BRANCH  18  23
ATOM     23  C   UNL d   1     -49.077  14.181  23.012  0.00  0.00     0.057 A 
ATOM     24  C   UNL d   1     -49.302  14.605  23.675  0.00  0.00     0.006 A 
ATOM     25  C   UNL d   1     -49.949  15.117  23.638  0.00  0.00     0.012 A 
ATOM     26  C   UNL d   1     -50.365  15.202  22.934  0.00  0.00     0.058 A 
ATOM     27  C   UNL d   1     -50.136  14.773  22.264  0.00  0.00     0.012 A 
ATOM     28 CL   UNL d   1     -51.019  15.721  22.899  0.00  0.00    -0.082 Cl
ATOM     29  C   UNL d   1     -49.497  14.269  22.307  0.00  0.00     0.006 A 
ENDBRANCH  18  23
ENDBRANCH   1  16
TORSDOF 6
ENDMDL
MODEL 6
REMARK VINA RESULT:      -3.0      3.731      7.685
REMARK  6 active torsions:
REMARK  status: ('A' for Active; 'I' for Inactive)
REMARK       I    between atoms: C_2  and  N_1 
REMARK    1  A    between atoms: C_8  and  C_2 
REMARK    2  A    between atoms: C_11  and  C_3 
REMARK       I    between atoms: C_4  and  N_6 
REMARK    3  A    between atoms: C_5  and  C_4 
REMARK       I    between atoms: N_7  and  C_5 
REMARK    4  A    between atoms: N_6  and  C_11 
REMARK    5  A    between atoms: C_17  and  N_7 
REMARK    6  A    between atoms: C_20  and  C_17 
ROOT
ATOM      1  C   UNL d   1     -39.927  14.973  19.660  0.00  0.00     0.146 C 
ENDROOT
BRANCH   1   2
ATOM      2  N   UNL d   1     -40.362  15.554  20.051  0.00  0.00    -0.199 NA
ATOM      3  C   UNL d   1     -40.881  15.341  20.649  0.00  0.00     0.337 C 
ATOM      4  O   UNL d   1     -41.317  15.922  21.040  0.00  0.00    -0.260 OA
BRANCH   3   5
ATOM      5  C   UNL d   1     -40.973  14.547  20.866  0.00  0.00     0.337 C 
ATOM      6  N   UNL d   1     -41.707  14.197  20.844  0.00  0.00    -0.202 NA
ATOM      7  O   UNL d   1     -40.314  14.113  21.105  0.00  0.00    -0.260 OA
BRANCH   6   8
ATOM      8  C   UNL d   1     -41.798  13.404  21.060  0.00  0.00     0.102 C 
BRANCH   8   9
ATOM      9  C   UNL d   1     -42.526  13.120  21.310  0.00  0.00     0.019 A 
ATOM     10  C   UNL d   1     -43.225  13.450  21.045  0.00  0.00     0.002 A 
ATOM     11  C   UNL d   1     -43.953  13.176  21.287  0.00  0.00     0.011 A 
ATOM     12  C   UNL d   1     -43.988  12.536  21.824  0.00  0.00     0.058 A 
ATOM     13  C   UNL d   1     -43.293  12.192  22.100  0.00  0.00     0.011 A 
ATOM     14 CL   UNL d   1     -44.729  12.249  22.076  0.00  0.00    -0.082 Cl
ATOM     15  C   UNL d   1     -42.561  12.479  21.848  0.00  0.00     0.002 A 
ENDBRANCH   8   9
ENDBRANCH   6   8
ENDBRANCH   3   5
ENDBRANCH   1   2
BRANCH   1  16
ATOM     16  C   UNL d   1     -39.205  15.163  19.313  0.00  0.00     0.190 A 
ATOM     17  N   UNL d   1     -38.937  14.887  18.585  0.00  0.00    -0.250 N 
ATOM     18  C   UNL d   1     -39.340  14.375  18.073  0.00  0.00     0.266 C 
ATOM     19  C   UNL d   1     -38.192  15.217  18.459  0.00  0.00     0.112 A 
ATOM     20  O   UNL d   1     -40.084  14.089  18.273  0.00  0.00    -0.267 OA
ATOM     21  C   UNL d   1     -37.994  15.696  19.106  0.00  0.00     0.144 A 
ATOM     22  O   UNL d   1     -38.622  15.663  19.636  0.00  0.00    -0.285 OA
BRANCH  18  23
ATOM     23  C   UNL d   1     -38.988  14.147  17.347  0.00  0.00     0.057 A 
ATOM     24  C   UNL d   1     -38.521  13.475  17.310  0.00  0.00     0.006 A 
ATOM     25  C   UNL d   1     -38.175  13.252  16.594  0.00  0.00     0.012 A 
ATOM     26  C   UNL d   1     -38.299  13.704  15.919  0.00  0.00     0.058 A 
ATOM     27  C   UNL d   1     -38.771  14.383  15.958  0.00  0.00     0.012 A 
ATOM     28 CL   UNL d   1     -37.948  13.476  15.196  0.00  0.00    -0.082 Cl
ATOM     29  C   UNL d   1     -39.110  14.599  16.667  0.00  0.00     0.006 A 
ENDBRANCH  18  23
ENDBRANCH   1  16
TORSDOF 6
ENDMDL
MODEL 7
REMARK VINA RESULT:      -2.9      1.398      5.842
REMARK  6 active torsions:
REMARK  status: ('A' for Active; 'I' for Inactive)
REMARK       I    between atoms: C_2  and  N_1 
REMARK    1  A    between atoms: C_8  and  C_2 
REMARK    2  A    between atoms: C_11  and  C_3 
REMARK       I    between atoms: C_4  and  N_6 
REMARK    3  A    between atoms: C_5  and  C_4 
REMARK       I    between atoms: N_7  and  C_5 
REMARK    4  A    between atoms: N_6  and  C_11 
REMARK    5  A    between atoms: C_17  and  N_7 
REMARK    6  A    between atoms: C_20  and  C_17 
ROOT
ATOM      1  C   UNL d   1     -45.272  11.917  22.912  0.00  0.00     0.146 C 
ENDROOT
BRANCH   1   2
ATOM      2  N   UNL d   1     -45.860  11.415  23.198  0.00  0.00    -0.199 NA
ATOM      3  C   UNL d   1     -46.590  11.721  23.411  0.00  0.00     0.337 C 
ATOM      4  O   UNL d   1     -47.179  11.219  23.698  0.00  0.00    -0.260 OA
BRANCH   3   5
ATOM      5  C   UNL d   1     -46.744  12.532  23.343  0.00  0.00     0.337 C 
ATOM      6  N   UNL d   1     -47.393  12.793  22.928  0.00  0.00    -0.202 NA
ATOM      7  O   UNL d   1     -46.235  13.073  23.698  0.00  0.00    -0.260 OA
BRANCH   6   8
ATOM      8  C   UNL d   1     -47.547  13.603  22.859  0.00  0.00     0.102 C 
BRANCH   8   9
ATOM      9  C   UNL d   1     -48.285  13.870  22.618  0.00  0.00     0.019 A 
ATOM     10  C   UNL d   1     -48.721  14.386  23.079  0.00  0.00     0.002 A 
ATOM     11  C   UNL d   1     -49.454  14.657  22.849  0.00  0.00     0.011 A 
ATOM     12  C   UNL d   1     -49.772  14.399  22.119  0.00  0.00     0.058 A 
ATOM     13  C   UNL d   1     -49.346  13.880  21.645  0.00  0.00     0.011 A 
ATOM     14 CL   UNL d   1     -50.522  14.672  21.877  0.00  0.00    -0.082 Cl
ATOM     15  C   UNL d   1     -48.603  13.612  21.888  0.00  0.00     0.002 A 
ENDBRANCH   8   9
ENDBRANCH   6   8
ENDBRANCH   3   5
ENDBRANCH   1   2
BRANCH   1  16
ATOM     16  C   UNL d   1     -44.492  11.658  22.874  0.00  0.00     0.190 A 
ATOM     17  N   UNL d   1     -43.894  12.006  22.428  0.00  0.00    -0.250 N 
ATOM     18  C   UNL d   1     -43.966  12.673  21.941  0.00  0.00     0.266 C 
ATOM     19  C   UNL d   1     -43.208  11.568  22.556  0.00  0.00     0.112 A 
ATOM     20  O   UNL d   1     -44.690  13.056  21.867  0.00  0.00    -0.267 OA
ATOM     21  C   UNL d   1     -43.376  10.948  23.080  0.00  0.00     0.144 A 
ATOM     22  O   UNL d   1     -44.172  11.004  23.278  0.00  0.00    -0.285 OA
BRANCH  18  23
ATOM     23  C   UNL d   1     -43.299  12.959  21.521  0.00  0.00     0.057 A 
ATOM     24  C   UNL d   1     -42.748  13.431  21.899  0.00  0.00     0.006 A 
ATOM     25  C   UNL d   1     -42.091  13.712  21.485  0.00  0.00     0.012 A 
ATOM     26  C   UNL d   1     -41.992  13.518  20.692  0.00  0.00     0.058 A 
ATOM     27  C   UNL d   1     -42.551  13.040  20.310  0.00  0.00     0.012 A 
ATOM     28 CL   UNL d   1     -41.327  13.803  20.274  0.00  0.00    -0.082 Cl
ATOM     29  C   UNL d   1     -43.197  12.766  20.725  0.00  0.00     0.006 A 
ENDBRANCH  18  23
ENDBRANCH   1  16
TORSDOF 6
ENDMDL
