MODEL 1
REMARK VINA RESULT:      -0.6      0.000      0.000
REMARK  5 active torsions:
REMARK  status: ('A' for Active; 'I' for Inactive)
REMARK    1  A    between atoms: N_2  and  S_1 
REMARK    2  A    between atoms: C_5  and  S_1 
REMARK    3  A    between atoms: S_8  and  C_3 
REMARK    4  A    between atoms: C_18  and  S_8 
REMARK    5  A    between atoms: C_17  and  C_18 
ROOT
ATOM      1  N   UNL d   1      32.880  19.086 -23.631  0.00  0.00    -0.208 N 
ATOM      2  C   UNL d   1      32.370  18.711 -24.172  0.00  0.00     0.189 A 
ATOM      3  N   UNL d   1      32.397  19.131 -24.888  0.00  0.00    -0.219 NA
ATOM      4  C   UNL d   1      33.223  19.742 -24.016  0.00  0.00     0.114 A 
ATOM      5  C   UNL d   1      32.924  19.765 -24.786  0.00  0.00     0.121 A 
ENDROOT
BRANCH   1   6
ATOM      6  S   UNL d   1      33.019  18.846 -22.848  0.00  0.00     0.273 S 
ATOM      7  O   UNL d   1      33.220  18.390 -22.184  0.00  0.00    -0.200 OA
ATOM      8  O   UNL d   1      33.238  18.114 -23.149  0.00  0.00    -0.200 OA
BRANCH   6   9
ATOM      9  C   UNL d   1      32.802  19.578 -22.526  0.00  0.00     0.104 A 
ATOM     10  C   UNL d   1      33.241  20.249 -22.720  0.00  0.00     0.014 A 
ATOM     11  C   UNL d   1      33.017  20.974 -22.395  0.00  0.00     0.012 A 
ATOM     12  C   UNL d   1      32.370  21.026 -21.886  0.00  0.00     0.058 A 
ATOM     13  C   UNL d   1      31.935  20.352 -21.695  0.00  0.00     0.012 A 
ATOM     14 CL   UNL d   1      32.153  21.757 -21.564  0.00  0.00    -0.082 Cl
ATOM     15  C   UNL d   1      32.162  19.623 -22.024  0.00  0.00     0.014 A 
ENDBRANCH   6   9
ENDBRANCH   1   6
BRANCH   2  16
ATOM     16  S   UNL d   1      31.911  18.031 -24.021  0.00  0.00    -0.049 SA
BRANCH  16  17
ATOM     17  C   UNL d   1      31.429  17.719 -24.615  0.00  0.00     0.038 C 
BRANCH  17  18
ATOM     18  C   UNL d   1      30.853  17.166 -24.426  0.00  0.00     0.007 A 
ATOM     19  C   UNL d   1      30.087  17.404 -24.223  0.00  0.00     0.013 A 
ATOM     20  C   UNL d   1      29.513  16.849 -24.034  0.00  0.00     0.068 A 
ATOM     21 CL   UNL d   1      28.759  17.106 -23.836  0.00  0.00    -0.082 Cl
ATOM     22  C   UNL d   1      29.704  16.047 -24.046  0.00  0.00     0.068 A 
ATOM     23  C   UNL d   1      30.454  15.795 -24.243  0.00  0.00     0.012 A 
ATOM     24 CL   UNL d   1      29.122  15.495 -23.854  0.00  0.00    -0.082 Cl
ATOM     25  C   UNL d   1      31.037  16.360 -24.436  0.00  0.00     0.001 A 
ENDBRANCH  17  18
ENDBRANCH  16  17
ENDBRANCH   2  16
TORSDOF 5
ENDMDL
MODEL 2
REMARK VINA RESULT:      -0.4      2.949      4.056
REMARK  5 active torsions:
REMARK  status: ('A' for Active; 'I' for Inactive)
REMARK    1  A    between atoms: N_2  and  S_1 
REMARK    2  A    between atoms: C_5  and  S_1 
REMARK    3  A    between atoms: S_8  and  C_3 
REMARK    4  A    between atoms: C_18  and  S_8 
REMARK    5  A    between atoms: C_17  and  C_18 
ROOT
ATOM      1  N   UNL d   1      32.151  22.086 -21.141  0.00  0.00    -0.208 N 
ATOM      2  C   UNL d   1      32.596  21.774 -21.774  0.00  0.00     0.189 A 
ATOM      3  N   UNL d   1      32.791  22.399 -22.285  0.00  0.00    -0.219 NA
ATOM      4  C   UNL d   1      32.072  22.907 -21.265  0.00  0.00     0.114 A 
ATOM      5  C   UNL d   1      32.466  23.094 -21.967  0.00  0.00     0.121 A 
ENDROOT
BRANCH   1   6
ATOM      6  S   UNL d   1      31.843  21.651 -20.504  0.00  0.00     0.273 S 
ATOM      7  O   UNL d   1      31.436  21.081 -20.058  0.00  0.00    -0.200 OA
ATOM      8  O   UNL d   1      31.487  21.160 -21.057  0.00  0.00    -0.200 OA
BRANCH   6   9
ATOM      9  C   UNL d   1      32.195  22.135 -19.931  0.00  0.00     0.104 A 
ATOM     10  C   UNL d   1      32.802  21.829 -19.464  0.00  0.00     0.014 A 
ATOM     11  C   UNL d   1      33.147  22.320 -18.895  0.00  0.00     0.012 A 
ATOM     12  C   UNL d   1      32.889  23.097 -18.798  0.00  0.00     0.058 A 
ATOM     13  C   UNL d   1      32.282  23.397 -19.267  0.00  0.00     0.012 A 
ATOM     14 CL   UNL d   1      33.240  23.581 -18.225  0.00  0.00    -0.082 Cl
ATOM     15  C   UNL d   1      31.936  22.902 -19.839  0.00  0.00     0.014 A 
ENDBRANCH   6   9
ENDBRANCH   1   6
BRANCH   2  16
ATOM     16  S   UNL d   1      32.808  20.974 -21.875  0.00  0.00    -0.049 SA
BRANCH  16  17
ATOM     17  C   UNL d   1      33.240  20.744 -22.541  0.00  0.00     0.038 C 
BRANCH  17  18
ATOM     18  C   UNL d   1      33.172  19.978 -22.827  0.00  0.00     0.007 A 
ATOM     19  C   UNL d   1      33.226  19.328 -22.317  0.00  0.00     0.013 A 
ATOM     20  C   UNL d   1      33.157  18.563 -22.606  0.00  0.00     0.068 A 
ATOM     21 CL   UNL d   1      33.214  17.933 -22.083  0.00  0.00    -0.082 Cl
ATOM     22  C   UNL d   1      33.033  18.443 -23.412  0.00  0.00     0.068 A 
ATOM     23  C   UNL d   1      32.977  19.071 -23.928  0.00  0.00     0.012 A 
ATOM     24 CL   UNL d   1      32.964  17.671 -23.695  0.00  0.00    -0.082 Cl
ATOM     25  C   UNL d   1      33.047  19.849 -23.634  0.00  0.00     0.001 A 
ENDBRANCH  17  18
ENDBRANCH  16  17
ENDBRANCH   2  16
TORSDOF 5
ENDMDL
