MODEL 1
REMARK VINA RESULT:      -8.5      0.000      0.000
REMARK  3 active torsions:
REMARK  status: ('A' for Active; 'I' for Inactive)
REMARK    1  A    between atoms: C_4  and  C_1 
REMARK       I    between atoms: N_6  and  C_4 
REMARK    2  A    between atoms: C_8  and  C_5 
REMARK    3  A    between atoms: C_7  and  N_6 
ROOT
ATOM      1  C   UNL d   1      52.148  34.288  52.820  0.00  0.00     0.192 A 
ATOM      2  C   UNL d   1      50.836  34.128  53.393  0.00  0.00     0.296 A 
ATOM      3  O   UNL d   1      51.661  34.167  53.487  0.00  0.00    -0.290 OA
ATOM      4  C   UNL d   1      50.493  34.210  52.643  0.00  0.00     0.063 A 
ATOM      5  C   UNL d   1      50.988  34.331  51.981  0.00  0.00     0.004 A 
ATOM      6  C   UNL d   1      51.809  34.370  52.067  0.00  0.00     0.010 A 
ATOM      7  O   UNL d   1      50.357  34.009  54.050  0.00  0.00    -0.259 OA
ATOM      8  C   UNL d   1      52.621  34.408  52.158  0.00  0.00     0.045 C 
ATOM      9  C   UNL d   1      50.645  34.413  51.232  0.00  0.00    -0.000 A 
ATOM     10  C   UNL d   1      49.682  34.172  52.552  0.00  0.00     0.005 A 
ATOM     11  C   UNL d   1      49.825  34.373  51.151  0.00  0.00    -0.000 A 
ATOM     12  C   UNL d   1      49.346  34.254  51.808  0.00  0.00     0.000 A 
ENDROOT
BRANCH   1  13
ATOM     13  C   UNL d   1      52.663  34.233  53.451  0.00  0.00     0.285 C 
ATOM     14  N   UNL d   1      53.132  33.561  53.543  0.00  0.00    -0.209 NA
ATOM     15  O   UNL d   1      52.712  34.853  53.995  0.00  0.00    -0.267 OA
BRANCH  14  16
ATOM     16  C   UNL d   1      53.650  33.511  54.181  0.00  0.00     0.090 A 
ATOM     17  C   UNL d   1      54.034  32.807  54.337  0.00  0.00     0.082 A 
ATOM     18  C   UNL d   1      54.553  32.754  54.976  0.00  0.00     0.008 A 
ATOM     19  C   UNL d   1      54.684  33.412  55.456  0.00  0.00     0.000 A 
ATOM     20  C   UNL d   1      54.293  34.123  55.294  0.00  0.00     0.002 A 
ATOM     21  C   UNL d   1      53.778  34.165  54.655  0.00  0.00     0.019 A 
BRANCH  17  22
ATOM     22  C   UNL d   1      53.900  32.148  53.854  0.00  0.00     0.212 C 
ATOM     23  O   UNL d   1      54.365  32.036  53.179  0.00  0.00    -0.644 OA
ATOM     24  O   UNL d   1      53.312  31.614  54.045  0.00  0.00    -0.644 OA
ENDBRANCH  17  22
ENDBRANCH  14  16
ENDBRANCH   1  13
TORSDOF 3
ENDMDL
MODEL 2
REMARK VINA RESULT:      -8.3      1.657      3.925
REMARK  3 active torsions:
REMARK  status: ('A' for Active; 'I' for Inactive)
REMARK    1  A    between atoms: C_4  and  C_1 
REMARK       I    between atoms: N_6  and  C_4 
REMARK    2  A    between atoms: C_8  and  C_5 
REMARK    3  A    between atoms: C_7  and  N_6 
ROOT
ATOM      1  C   UNL d   1      53.173  31.747  53.318  0.00  0.00     0.192 A 
ATOM      2  C   UNL d   1      53.417  31.085  54.574  0.00  0.00     0.296 A 
ATOM      3  O   UNL d   1      53.362  31.785  54.131  0.00  0.00    -0.290 OA
ATOM      4  C   UNL d   1      53.287  30.349  54.217  0.00  0.00     0.063 A 
ATOM      5  C   UNL d   1      53.099  30.319  53.404  0.00  0.00     0.004 A 
ATOM      6  C   UNL d   1      53.042  31.012  52.956  0.00  0.00     0.010 A 
ATOM      7  O   UNL d   1      53.602  31.123  55.374  0.00  0.00    -0.259 OA
ATOM      8  C   UNL d   1      52.987  31.701  52.519  0.00  0.00     0.045 C 
ATOM      9  C   UNL d   1      52.969  29.583  53.046  0.00  0.00    -0.000 A 
ATOM     10  C   UNL d   1      53.342  29.660  54.654  0.00  0.00     0.005 A 
ATOM     11  C   UNL d   1      53.026  28.895  53.496  0.00  0.00    -0.000 A 
ATOM     12  C   UNL d   1      53.212  28.933  54.296  0.00  0.00     0.000 A 
ENDROOT
BRANCH   1  13
ATOM     13  C   UNL d   1      53.262  32.543  53.478  0.00  0.00     0.285 C 
ATOM     14  N   UNL d   1      52.608  33.044  53.449  0.00  0.00    -0.209 NA
ATOM     15  O   UNL d   1      54.008  32.842  53.667  0.00  0.00    -0.267 OA
BRANCH  14  16
ATOM     16  C   UNL d   1      52.703  33.846  53.610  0.00  0.00     0.090 A 
ATOM     17  C   UNL d   1      52.101  34.369  53.433  0.00  0.00     0.082 A 
ATOM     18  C   UNL d   1      52.194  35.173  53.594  0.00  0.00     0.008 A 
ATOM     19  C   UNL d   1      52.894  35.447  53.933  0.00  0.00     0.000 A 
ATOM     20  C   UNL d   1      53.500  34.914  54.110  0.00  0.00     0.002 A 
ATOM     21  C   UNL d   1      53.398  34.115  53.946  0.00  0.00     0.019 A 
BRANCH  17  22
ATOM     22  C   UNL d   1      51.399  34.091  53.093  0.00  0.00     0.212 C 
ATOM     23  O   UNL d   1      51.292  34.149  52.275  0.00  0.00    -0.644 OA
ATOM     24  O   UNL d   1      50.819  33.762  53.565  0.00  0.00    -0.644 OA
ENDBRANCH  17  22
ENDBRANCH  14  16
ENDBRANCH   1  13
TORSDOF 3
ENDMDL
MODEL 3
REMARK VINA RESULT:      -8.3      1.894      3.710
REMARK  3 active torsions:
REMARK  status: ('A' for Active; 'I' for Inactive)
REMARK    1  A    between atoms: C_4  and  C_1 
REMARK       I    between atoms: N_6  and  C_4 
REMARK    2  A    between atoms: C_8  and  C_5 
REMARK    3  A    between atoms: C_7  and  N_6 
ROOT
ATOM      1  C   UNL d   1      53.481  31.926  53.391  0.00  0.00     0.192 A 
ATOM      2  C   UNL d   1      52.248  31.184  53.328  0.00  0.00     0.296 A 
ATOM      3  O   UNL d   1      52.651  31.910  53.298  0.00  0.00    -0.290 OA
ATOM      4  C   UNL d   1      52.662  30.477  53.449  0.00  0.00     0.063 A 
ATOM      5  C   UNL d   1      53.492  30.502  53.540  0.00  0.00     0.004 A 
ATOM      6  C   UNL d   1      53.900  31.221  53.512  0.00  0.00     0.010 A 
ATOM      7  O   UNL d   1      51.431  31.168  53.237  0.00  0.00    -0.259 OA
ATOM      8  C   UNL d   1      54.297  31.935  53.483  0.00  0.00     0.045 C 
ATOM      9  C   UNL d   1      53.906  29.795  53.661  0.00  0.00    -0.000 A 
ATOM     10  C   UNL d   1      52.264  29.763  53.478  0.00  0.00     0.005 A 
ATOM     11  C   UNL d   1      53.495  29.081  53.689  0.00  0.00    -0.000 A 
ATOM     12  C   UNL d   1      52.678  29.065  53.598  0.00  0.00     0.000 A 
ENDROOT
BRANCH   1  13
ATOM     13  C   UNL d   1      53.264  32.707  53.285  0.00  0.00     0.285 C 
ATOM     14  N   UNL d   1      53.355  33.247  53.901  0.00  0.00    -0.209 NA
ATOM     15  O   UNL d   1      52.954  32.951  52.559  0.00  0.00    -0.267 OA
BRANCH  14  16
ATOM     16  C   UNL d   1      53.135  34.033  53.789  0.00  0.00     0.090 A 
ATOM     17  C   UNL d   1      53.285  34.582  54.374  0.00  0.00     0.082 A 
ATOM     18  C   UNL d   1      53.065  35.370  54.264  0.00  0.00     0.008 A 
ATOM     19  C   UNL d   1      52.695  35.601  53.564  0.00  0.00     0.000 A 
ATOM     20  C   UNL d   1      52.546  35.041  52.975  0.00  0.00     0.002 A 
ATOM     21  C   UNL d   1      52.768  34.259  53.094  0.00  0.00     0.019 A 
BRANCH  17  22
ATOM     22  C   UNL d   1      53.656  34.348  55.076  0.00  0.00     0.212 C 
ATOM     23  O   UNL d   1      54.476  34.425  55.148  0.00  0.00    -0.644 OA
ATOM     24  O   UNL d   1      53.212  34.044  55.690  0.00  0.00    -0.644 OA
ENDBRANCH  17  22
ENDBRANCH  14  16
ENDBRANCH   1  13
TORSDOF 3
ENDMDL
MODEL 4
REMARK VINA RESULT:      -7.7      0.950      4.338
REMARK  3 active torsions:
REMARK  status: ('A' for Active; 'I' for Inactive)
REMARK    1  A    between atoms: C_4  and  C_1 
REMARK       I    between atoms: N_6  and  C_4 
REMARK    2  A    between atoms: C_8  and  C_5 
REMARK    3  A    between atoms: C_7  and  N_6 
ROOT
ATOM      1  C   UNL d   1      52.440  34.211  53.222  0.00  0.00     0.192 A 
ATOM      2  C   UNL d   1      52.744  32.821  53.443  0.00  0.00     0.296 A 
ATOM      3  O   UNL d   1      52.299  33.405  53.055  0.00  0.00    -0.290 OA
ATOM      4  C   UNL d   1      53.326  33.031  53.995  0.00  0.00     0.063 A 
ATOM      5  C   UNL d   1      53.460  33.839  54.156  0.00  0.00     0.004 A 
ATOM      6  C   UNL d   1      53.021  34.426  53.774  0.00  0.00     0.010 A 
ATOM      7  O   UNL d   1      52.606  32.027  53.279  0.00  0.00    -0.259 OA
ATOM      8  C   UNL d   1      52.584  35.002  53.392  0.00  0.00     0.045 C 
ATOM      9  C   UNL d   1      54.041  34.049  54.707  0.00  0.00    -0.000 A 
ATOM     10  C   UNL d   1      53.763  32.454  54.376  0.00  0.00     0.005 A 
ATOM     11  C   UNL d   1      54.476  33.460  55.087  0.00  0.00    -0.000 A 
ATOM     12  C   UNL d   1      54.338  32.667  54.922  0.00  0.00     0.000 A 
ENDROOT
BRANCH   1  13
ATOM     13  C   UNL d   1      51.842  34.211  52.665  0.00  0.00     0.285 C 
ATOM     14  N   UNL d   1      51.084  34.459  52.875  0.00  0.00    -0.209 NA
ATOM     15  O   UNL d   1      52.001  33.963  51.894  0.00  0.00    -0.267 OA
BRANCH  14  16
ATOM     16  C   UNL d   1      50.486  34.457  52.309  0.00  0.00     0.090 A 
ATOM     17  C   UNL d   1      49.727  34.675  52.522  0.00  0.00     0.082 A 
ATOM     18  C   UNL d   1      49.126  34.674  51.957  0.00  0.00     0.008 A 
ATOM     19  C   UNL d   1      49.291  34.454  51.180  0.00  0.00     0.000 A 
ATOM     20  C   UNL d   1      50.060  34.234  50.970  0.00  0.00     0.002 A 
ATOM     21  C   UNL d   1      50.652  34.239  51.539  0.00  0.00     0.019 A 
BRANCH  17  22
ATOM     22  C   UNL d   1      49.565  34.895  53.303  0.00  0.00     0.212 C 
ATOM     23  O   UNL d   1      49.504  35.697  53.496  0.00  0.00    -0.644 OA
ATOM     24  O   UNL d   1      49.465  34.322  53.876  0.00  0.00    -0.644 OA
ENDBRANCH  17  22
ENDBRANCH  14  16
ENDBRANCH   1  13
TORSDOF 3
ENDMDL
MODEL 5
REMARK VINA RESULT:      -6.6      1.705      4.523
REMARK  3 active torsions:
REMARK  status: ('A' for Active; 'I' for Inactive)
REMARK    1  A    between atoms: C_4  and  C_1 
REMARK       I    between atoms: N_6  and  C_4 
REMARK    2  A    between atoms: C_8  and  C_5 
REMARK    3  A    between atoms: C_7  and  N_6 
ROOT
ATOM      1  C   UNL d   1      50.945  33.738  53.208  0.00  0.00     0.192 A 
ATOM      2  C   UNL d   1      52.177  34.482  53.176  0.00  0.00     0.296 A 
ATOM      3  O   UNL d   1      51.347  34.469  53.166  0.00  0.00    -0.290 OA
ATOM      4  C   UNL d   1      52.609  33.777  53.227  0.00  0.00     0.063 A 
ATOM      5  C   UNL d   1      52.200  33.051  53.269  0.00  0.00     0.004 A 
ATOM      6  C   UNL d   1      51.374  33.030  53.260  0.00  0.00     0.010 A 
ATOM      7  O   UNL d   1      52.573  35.201  53.134  0.00  0.00    -0.259 OA
ATOM      8  C   UNL d   1      50.556  33.015  53.250  0.00  0.00     0.045 C 
ATOM      9  C   UNL d   1      52.632  32.347  53.321  0.00  0.00    -0.000 A 
ATOM     10  C   UNL d   1      53.427  33.792  53.237  0.00  0.00     0.005 A 
ATOM     11  C   UNL d   1      53.456  32.373  53.330  0.00  0.00    -0.000 A 
ATOM     12  C   UNL d   1      53.852  33.092  53.288  0.00  0.00     0.000 A 
ENDROOT
BRANCH   1  13
ATOM     13  C   UNL d   1      50.355  34.302  53.164  0.00  0.00     0.285 C 
ATOM     14  N   UNL d   1      49.816  34.285  52.540  0.00  0.00    -0.209 NA
ATOM     15  O   UNL d   1      50.303  34.887  53.744  0.00  0.00    -0.267 OA
BRANCH  14  16
ATOM     16  C   UNL d   1      49.223  34.856  52.500  0.00  0.00     0.090 A 
ATOM     17  C   UNL d   1      48.810  34.962  51.803  0.00  0.00     0.082 A 
ATOM     18  C   UNL d   1      48.216  35.534  51.761  0.00  0.00     0.008 A 
ATOM     19  C   UNL d   1      48.041  35.996  52.421  0.00  0.00     0.000 A 
ATOM     20  C   UNL d   1      48.462  35.885  53.123  0.00  0.00     0.002 A 
ATOM     21  C   UNL d   1      49.052  35.313  53.156  0.00  0.00     0.019 A 
BRANCH  17  22
ATOM     22  C   UNL d   1      48.988  34.497  51.143  0.00  0.00     0.212 C 
ATOM     23  O   UNL d   1      48.514  33.843  50.965  0.00  0.00    -0.644 OA
ATOM     24  O   UNL d   1      49.628  34.685  50.672  0.00  0.00    -0.644 OA
ENDBRANCH  17  22
ENDBRANCH  14  16
ENDBRANCH   1  13
TORSDOF 3
ENDMDL
MODEL 6
REMARK VINA RESULT:      -6.4      1.936      3.527
REMARK  3 active torsions:
REMARK  status: ('A' for Active; 'I' for Inactive)
REMARK    1  A    between atoms: C_4  and  C_1 
REMARK       I    between atoms: N_6  and  C_4 
REMARK    2  A    between atoms: C_8  and  C_5 
REMARK    3  A    between atoms: C_7  and  N_6 
ROOT
ATOM      1  C   UNL d   1      53.547  32.558  53.701  0.00  0.00     0.192 A 
ATOM      2  C   UNL d   1      52.364  33.378  53.662  0.00  0.00     0.296 A 
ATOM      3  O   UNL d   1      52.745  32.660  53.491  0.00  0.00    -0.290 OA
ATOM      4  C   UNL d   1      52.772  33.993  54.039  0.00  0.00     0.063 A 
ATOM      5  C   UNL d   1      53.574  33.882  54.245  0.00  0.00     0.004 A 
ATOM      6  C   UNL d   1      53.960  33.171  54.078  0.00  0.00     0.010 A 
ATOM      7  O   UNL d   1      51.575  33.479  53.456  0.00  0.00    -0.259 OA
ATOM      8  C   UNL d   1      54.337  32.465  53.910  0.00  0.00     0.045 C 
ATOM      9  C   UNL d   1      53.982  34.497  54.621  0.00  0.00    -0.000 A 
ATOM     10  C   UNL d   1      52.396  34.699  54.207  0.00  0.00     0.005 A 
ATOM     11  C   UNL d   1      53.593  35.205  54.786  0.00  0.00    -0.000 A 
ATOM     12  C   UNL d   1      52.803  35.305  54.580  0.00  0.00     0.000 A 
ENDROOT
BRANCH   1  13
ATOM     13  C   UNL d   1      53.329  31.854  53.348  0.00  0.00     0.285 C 
ATOM     14  N   UNL d   1      53.348  31.153  53.781  0.00  0.00    -0.209 NA
ATOM     15  O   UNL d   1      53.090  31.849  52.557  0.00  0.00    -0.267 OA
BRANCH  14  16
ATOM     16  C   UNL d   1      53.127  30.447  53.420  0.00  0.00     0.090 A 
ATOM     17  C   UNL d   1      53.074  29.764  53.866  0.00  0.00     0.082 A 
ATOM     18  C   UNL d   1      52.852  29.055  53.507  0.00  0.00     0.008 A 
ATOM     19  C   UNL d   1      52.685  29.036  52.699  0.00  0.00     0.000 A 
ATOM     20  C   UNL d   1      52.740  29.730  52.253  0.00  0.00     0.002 A 
ATOM     21  C   UNL d   1      52.961  30.431  52.620  0.00  0.00     0.019 A 
BRANCH  17  22
ATOM     22  C   UNL d   1      53.242  29.785  54.676  0.00  0.00     0.212 C 
ATOM     23  O   UNL d   1      54.001  29.589  54.940  0.00  0.00    -0.644 OA
ATOM     24  O   UNL d   1      52.660  29.999  55.208  0.00  0.00    -0.644 OA
ENDBRANCH  17  22
ENDBRANCH  14  16
ENDBRANCH   1  13
TORSDOF 3
ENDMDL
