MODEL 1
REMARK VINA RESULT:      -1.6      0.000      0.000
REMARK  6 active torsions:
REMARK  status: ('A' for Active; 'I' for Inactive)
REMARK    1  A    between atoms: C_13  and  N_1 
REMARK    2  A    between atoms: S_9  and  C_2 
REMARK    3  A    between atoms: C_10  and  C_7 
REMARK    4  A    between atoms: C_19  and  S_9 
REMARK    5  A    between atoms: O_23  and  C_10 
REMARK    6  A    between atoms: C_14  and  C_19 
ROOT
ATOM      1  N   UNL d   1      59.298  -1.463  29.300  0.00  0.00    -0.254 N 
ATOM      2  C   UNL d   1      58.896  -0.927  29.781  0.00  0.00     0.182 A 
ATOM      3  C   UNL d   1      60.038  -1.266  28.992  0.00  0.00     0.274 A 
ATOM      4  C   UNL d   1      60.372  -0.537  29.166  0.00  0.00     0.104 A 
ATOM      5  N   UNL d   1      59.234  -0.195  29.954  0.00  0.00    -0.222 NA
ATOM      6  C   UNL d   1      59.970  -0.001  29.647  0.00  0.00     0.095 A 
ATOM      7  S   UNL d   1      61.086  -0.192  28.945  0.00  0.00    -0.080 SA
ATOM      8  O   UNL d   1      60.440  -1.802  28.511  0.00  0.00    -0.266 OA
ATOM      9  C   UNL d   1      60.436   0.674  29.723  0.00  0.00     0.027 A 
ATOM     10  C   UNL d   1      61.120   0.559  29.293  0.00  0.00     0.037 A 
ENDROOT
BRANCH   2  11
ATOM     11  S   UNL d   1      58.148  -1.121  30.094  0.00  0.00    -0.047 SA
BRANCH  11  12
ATOM     12  C   UNL d   1      57.591  -0.527  30.218  0.00  0.00     0.063 C 
BRANCH  12  13
ATOM     13  C   UNL d   1      57.179  -0.488  30.932  0.00  0.00     0.107 A 
ATOM     14  O   UNL d   1      56.787  -1.067  31.379  0.00  0.00    -0.301 OA
ATOM     15  C   UNL d   1      56.476  -0.703  32.044  0.00  0.00     0.163 A 
ATOM     16  C   UNL d   1      56.670   0.101  32.016  0.00  0.00     0.032 A 
ATOM     17  C   UNL d   1      57.105   0.231  31.328  0.00  0.00     0.027 A 
BRANCH  15  18
ATOM     18  C   UNL d   1      56.041  -1.068  32.645  0.00  0.00     0.319 C 
ATOM     19  O   UNL d   1      55.326  -0.748  32.899  0.00  0.00    -0.257 OA
BRANCH  18  20
ATOM     20  O   UNL d   1      56.331  -1.758  32.990  0.00  0.00    -0.294 OA
ATOM     21  C   UNL d   1      55.927  -2.104  33.622  0.00  0.00     0.185 C 
ENDBRANCH  18  20
ENDBRANCH  15  18
ENDBRANCH  12  13
ENDBRANCH  11  12
ENDBRANCH   2  11
BRANCH   1  22
ATOM     22  C   UNL d   1      58.967  -2.189  29.126  0.00  0.00     0.069 A 
ATOM     23  C   UNL d   1      58.309  -2.239  28.630  0.00  0.00     0.018 A 
ATOM     24  C   UNL d   1      57.978  -2.975  28.457  0.00  0.00     0.002 A 
ATOM     25  C   UNL d   1      58.305  -3.660  28.779  0.00  0.00     0.000 A 
ATOM     26  C   UNL d   1      58.963  -3.611  29.274  0.00  0.00     0.002 A 
ATOM     27  C   UNL d   1      57.974  -4.409  28.607  0.00  0.00     0.000 C 
ATOM     28  C   UNL d   1      59.293  -2.876  29.447  0.00  0.00     0.018 A 
ENDBRANCH   1  22
TORSDOF 6
ENDMDL
