MODEL 1
REMARK VINA RESULT:      63.3      0.000      0.000
REMARK  12 active torsions:
REMARK  status: ('A' for Active; 'I' for Inactive)
REMARK    1  A    between atoms: C_18  and  N_1 
REMARK    2  A    between atoms: C_9  and  N_3 
REMARK    3  A    between atoms: C_12  and  C_9 
REMARK       I    between atoms: N_19  and  C_12 
REMARK    4  A    between atoms: C_14  and  C_22 
REMARK       I    between atoms: N_15  and  C_14 
REMARK    5  A    between atoms: C_20  and  N_15 
REMARK    6  A    between atoms: C_27  and  C_18 
REMARK    7  A    between atoms: C_23  and  N_19 
REMARK    8  A    between atoms: O_21  and  C_24 
REMARK    9  A    between atoms: C_22  and  C_29 
REMARK   10  A    between atoms: C_24  and  C_23 
REMARK   11  A    between atoms: C_30  and  C_27 
REMARK   12  A    between atoms: C_29  and  C_30 
ROOT
ATOM      1  N   UNL d   1     -55.605-101.314 -43.176  0.00  0.00    -0.225 N 
ATOM      2  C   UNL d   1     -55.984-100.597 -43.030  0.00  0.00     0.342 A 
ATOM      3  N   UNL d   1     -55.936 -99.971 -43.578  0.00  0.00    -0.253 N 
ATOM      4  C   UNL d   1     -55.119-100.804 -44.415  0.00  0.00     0.102 A 
ATOM      5  C   UNL d   1     -55.175-101.411 -43.868  0.00  0.00     0.276 A 
ATOM      6  C   UNL d   1     -55.501-100.072 -44.277  0.00  0.00     0.080 A 
ATOM      7  S   UNL d   1     -54.724-100.750 -45.158  0.00  0.00    -0.080 SA
ATOM      8  C   UNL d   1     -55.347 -99.561 -44.926  0.00  0.00     0.025 A 
ATOM      9  O   UNL d   1     -56.420-100.484 -42.339  0.00  0.00    -0.245 OA
ATOM     10  C   UNL d   1     -54.866 -99.980 -45.472  0.00  0.00     0.037 A 
ATOM     11  O   UNL d   1     -54.800-102.127 -44.005  0.00  0.00    -0.266 OA
ENDROOT
BRANCH   1  12
ATOM     12  C   UNL d   1     -55.662-101.915 -42.631  0.00  0.00     0.087 C 
BRANCH  12  13
ATOM     13  C   UNL d   1     -54.995-102.134 -42.190  0.00  0.00     0.019 C 
BRANCH  13  14
ATOM     14  C   UNL d   1     -55.019-102.809 -41.720  0.00  0.00     0.002 C 
BRANCH  14  15
ATOM     15  C   UNL d   1     -55.314-102.769 -40.955  0.00  0.00     0.005 C 
BRANCH  15  16
ATOM     16  C   UNL d   1     -54.892-102.380 -40.367  0.00  0.00     0.062 C 
BRANCH  16  17
ATOM     17  C   UNL d   1     -55.136-102.427 -39.578  0.00  0.00     0.279 C 
ATOM     18  N   UNL d   1     -54.711-102.028 -38.990  0.00  0.00    -0.208 NA
ATOM     19  O   UNL d   1     -55.803-102.873 -39.383  0.00  0.00    -0.265 OA
BRANCH  18  20
ATOM     20  C   UNL d   1     -54.956-102.077 -38.209  0.00  0.00     0.085 A 
ATOM     21  C   UNL d   1     -55.386-101.460 -37.882  0.00  0.00     0.019 A 
ATOM     22  C   UNL d   1     -55.634-101.506 -37.094  0.00  0.00     0.002 A 
ATOM     23  C   UNL d   1     -55.446-102.175 -36.642  0.00  0.00     0.000 A 
ATOM     24  C   UNL d   1     -55.015-102.789 -36.977  0.00  0.00     0.002 A 
ATOM     25  C   UNL d   1     -54.768-102.744 -37.760  0.00  0.00     0.019 A 
ENDBRANCH  18  20
ENDBRANCH  16  17
ENDBRANCH  15  16
ENDBRANCH  14  15
ENDBRANCH  13  14
ENDBRANCH  12  13
ENDBRANCH   1  12
BRANCH   3  26
ATOM     26  C   UNL d   1     -56.320 -99.258 -43.420  0.00  0.00     0.147 C 
BRANCH  26  27
ATOM     27  C   UNL d   1     -57.037 -99.082 -43.801  0.00  0.00     0.297 C 
ATOM     28  O   UNL d   1     -57.082 -99.049 -44.616  0.00  0.00    -0.264 OA
ATOM     29  N   UNL d   1     -57.723 -98.934 -43.344  0.00  0.00    -0.203 NA
BRANCH  29  30
ATOM     30  C   UNL d   1     -58.448 -98.755 -43.723  0.00  0.00     0.129 C 
BRANCH  30  31
ATOM     31  C   UNL d   1     -59.158 -99.032 -43.407  0.00  0.00     0.137 C 
BRANCH  31  32
ATOM     32  O   UNL d   1     -59.177 -99.727 -42.971  0.00  0.00    -0.325 OA
ATOM     33  C   UNL d   1     -59.813-100.245 -43.053  0.00  0.00     0.182 C 
ENDBRANCH  31  32
ENDBRANCH  30  31
ENDBRANCH  29  30
ENDBRANCH  26  27
ENDBRANCH   3  26
TORSDOF 12
ENDMDL
