MODEL 1
REMARK VINA RESULT:      -3.6      0.000      0.000
REMARK  0 active torsions:
REMARK  status: ('A' for Active; 'I' for Inactive)
ROOT
ATOM      1  C   UNL d   1      31.081  16.200 -23.628  0.00  0.00     0.166 A 
ATOM      2  C   UNL d   1      30.923  16.909 -24.014  0.00  0.00     0.117 A 
ATOM      3  N   UNL d   1      31.904  16.134 -23.588  0.00  0.00    -0.288 N 
ATOM      4  C   UNL d   1      31.621  17.267 -24.205  0.00  0.00     0.038 A 
ATOM      5  N   UNL d   1      30.469  15.708 -23.363  0.00  0.00    -0.225 NA
ATOM      6  C   UNL d   1      32.234  16.783 -23.939  0.00  0.00     0.067 A 
ATOM      7  N   UNL d   1      30.134  17.108 -24.126  0.00  0.00    -0.241 NA
ATOM      8  C   UNL d   1      29.694  15.928 -23.487  0.00  0.00     0.101 A 
ATOM      9  C   UNL d   1      29.540  16.634 -23.871  0.00  0.00     0.099 A 
ATOM     10  C   UNL d   1      33.018  17.008 -24.058  0.00  0.00     0.018 A 
ATOM     11  C   UNL d   1      31.792  17.977 -24.590  0.00  0.00     0.015 A 
ATOM     12  C   UNL d   1      32.577  18.201 -24.708  0.00  0.00     0.058 A 
ATOM     13  C   UNL d   1      32.309  15.517 -23.251  0.00  0.00     0.101 C 
ATOM     14  C   UNL d   1      33.190  17.717 -24.442  0.00  0.00     0.013 A 
ATOM     15 CL   UNL d   1      32.749  18.911 -25.093  0.00  0.00    -0.082 Cl
ATOM     16  C   UNL d   1      29.099  15.453 -23.231  0.00  0.00     0.021 A 
ATOM     17  C   UNL d   1      28.765  16.854 -23.994  0.00  0.00     0.021 A 
ATOM     18  C   UNL d   1      28.131  16.380 -23.739  0.00  0.00     0.002 A 
ATOM     19  C   UNL d   1      28.312  15.687 -23.362  0.00  0.00     0.002 A 
ENDROOT
TORSDOF 0
ENDMDL
MODEL 2
REMARK VINA RESULT:      -3.3      5.640      6.755
REMARK  0 active torsions:
REMARK  status: ('A' for Active; 'I' for Inactive)
ROOT
ATOM      1  C   UNL d   1      33.134  22.046 -21.640  0.00  0.00     0.166 A 
ATOM      2  C   UNL d   1      33.126  21.697 -20.895  0.00  0.00     0.117 A 
ATOM      3  N   UNL d   1      33.107  22.863 -21.516  0.00  0.00    -0.288 N 
ATOM      4  C   UNL d   1      33.095  22.276 -20.332  0.00  0.00     0.038 A 
ATOM      5  N   UNL d   1      33.165  21.587 -22.329  0.00  0.00    -0.225 NA
ATOM      6  C   UNL d   1      33.083  23.004 -20.720  0.00  0.00     0.067 A 
ATOM      7  N   UNL d   1      33.150  20.877 -20.864  0.00  0.00    -0.241 NA
ATOM      8  C   UNL d   1      33.188  20.775 -22.271  0.00  0.00     0.101 A 
ATOM      9  C   UNL d   1      33.180  20.431 -21.529  0.00  0.00     0.099 A 
ATOM     10  C   UNL d   1      33.051  23.702 -20.284  0.00  0.00     0.018 A 
ATOM     11  C   UNL d   1      33.075  22.247 -19.508  0.00  0.00     0.015 A 
ATOM     12  C   UNL d   1      33.043  22.946 -19.072  0.00  0.00     0.058 A 
ATOM     13  C   UNL d   1      33.105  23.425 -22.100  0.00  0.00     0.101 C 
ATOM     14  C   UNL d   1      33.031  23.674 -19.460  0.00  0.00     0.013 A 
ATOM     15 CL   UNL d   1      33.023  22.918 -18.247  0.00  0.00    -0.082 Cl
ATOM     16  C   UNL d   1      33.218  20.328 -22.939  0.00  0.00     0.021 A 
ATOM     17  C   UNL d   1      33.203  19.619 -21.471  0.00  0.00     0.021 A 
ATOM     18  C   UNL d   1      33.234  19.133 -22.147  0.00  0.00     0.002 A 
ATOM     19  C   UNL d   1      33.241  19.500 -22.868  0.00  0.00     0.002 A 
ENDROOT
TORSDOF 0
ENDMDL
MODEL 3
REMARK VINA RESULT:      -3.1      3.299      4.854
REMARK  0 active torsions:
REMARK  status: ('A' for Active; 'I' for Inactive)
ROOT
ATOM      1  C   UNL d   1      33.234  19.943 -23.285  0.00  0.00     0.166 A 
ATOM      2  C   UNL d   1      33.230  19.319 -22.749  0.00  0.00     0.117 A 
ATOM      3  N   UNL d   1      33.234  19.604 -24.039  0.00  0.00    -0.288 N 
ATOM      4  C   UNL d   1      33.227  18.621 -23.156  0.00  0.00     0.038 A 
ATOM      5  N   UNL d   1      33.238  20.731 -23.028  0.00  0.00    -0.225 NA
ATOM      6  C   UNL d   1      33.230  18.799 -23.961  0.00  0.00     0.067 A 
ATOM      7  N   UNL d   1      33.229  19.510 -21.950  0.00  0.00    -0.241 NA
ATOM      8  C   UNL d   1      33.237  20.894 -22.230  0.00  0.00     0.101 A 
ATOM      9  C   UNL d   1      33.233  20.272 -21.699  0.00  0.00     0.099 A 
ATOM     10  C   UNL d   1      33.228  18.191 -24.518  0.00  0.00     0.018 A 
ATOM     11  C   UNL d   1      33.223  17.835 -22.907  0.00  0.00     0.015 A 
ATOM     12  C   UNL d   1      33.221  17.227 -23.464  0.00  0.00     0.058 A 
ATOM     13  C   UNL d   1      33.237  20.016 -24.738  0.00  0.00     0.101 C 
ATOM     14  C   UNL d   1      33.223  17.405 -24.269  0.00  0.00     0.013 A 
ATOM     15 CL   UNL d   1      33.217  16.439 -23.215  0.00  0.00    -0.082 Cl
ATOM     16  C   UNL d   1      33.240  21.657 -21.978  0.00  0.00     0.021 A 
ATOM     17  C   UNL d   1      33.232  20.434 -20.901  0.00  0.00     0.021 A 
ATOM     18  C   UNL d   1      33.235  21.216 -20.615  0.00  0.00     0.002 A 
ATOM     19  C   UNL d   1      33.239  21.812 -21.162  0.00  0.00     0.002 A 
ENDROOT
TORSDOF 0
ENDMDL
MODEL 4
REMARK VINA RESULT:      -3.0      3.940      5.138
REMARK  0 active torsions:
REMARK  status: ('A' for Active; 'I' for Inactive)
ROOT
ATOM      1  C   UNL d   1      33.220  20.270 -21.910  0.00  0.00     0.166 A 
ATOM      2  C   UNL d   1      33.228  20.673 -22.627  0.00  0.00     0.117 A 
ATOM      3  N   UNL d   1      33.215  20.847 -21.317  0.00  0.00    -0.288 N 
ATOM      4  C   UNL d   1      33.229  21.468 -22.484  0.00  0.00     0.038 A 
ATOM      5  N   UNL d   1      33.217  19.441 -21.881  0.00  0.00    -0.225 NA
ATOM      6  C   UNL d   1      33.220  21.576 -21.667  0.00  0.00     0.067 A 
ATOM      7  N   UNL d   1      33.234  20.219 -23.312  0.00  0.00    -0.241 NA
ATOM      8  C   UNL d   1      33.224  19.015 -22.575  0.00  0.00     0.101 A 
ATOM      9  C   UNL d   1      33.232  19.418 -23.287  0.00  0.00     0.099 A 
ATOM     10  C   UNL d   1      33.219  22.338 -21.352  0.00  0.00     0.018 A 
ATOM     11  C   UNL d   1      33.236  22.121 -22.988  0.00  0.00     0.015 A 
ATOM     12  C   UNL d   1      33.234  22.883 -22.673  0.00  0.00     0.058 A 
ATOM     13  C   UNL d   1      33.206  20.700 -20.520  0.00  0.00     0.101 C 
ATOM     14  C   UNL d   1      33.226  22.992 -21.855  0.00  0.00     0.013 A 
ATOM     15 CL   UNL d   1      33.241  23.537 -23.176  0.00  0.00    -0.082 Cl
ATOM     16  C   UNL d   1      33.222  18.212 -22.550  0.00  0.00     0.021 A 
ATOM     17  C   UNL d   1      33.239  18.992 -23.981  0.00  0.00     0.021 A 
ATOM     18  C   UNL d   1      33.237  18.159 -23.982  0.00  0.00     0.002 A 
ATOM     19  C   UNL d   1      33.228  17.787 -23.264  0.00  0.00     0.002 A 
ENDROOT
TORSDOF 0
ENDMDL
MODEL 5
REMARK VINA RESULT:      -2.9      5.153      6.459
REMARK  0 active torsions:
REMARK  status: ('A' for Active; 'I' for Inactive)
ROOT
ATOM      1  C   UNL d   1      33.165  21.941 -22.024  0.00  0.00     0.166 A 
ATOM      2  C   UNL d   1      33.150  21.287 -21.525  0.00  0.00     0.117 A 
ATOM      3  N   UNL d   1      33.200  21.646 -22.795  0.00  0.00    -0.288 N 
ATOM      4  C   UNL d   1      33.174  20.614 -21.970  0.00  0.00     0.038 A 
ATOM      5  N   UNL d   1      33.147  22.713 -21.722  0.00  0.00    -0.225 NA
ATOM      6  C   UNL d   1      33.205  20.838 -22.764  0.00  0.00     0.067 A 
ATOM      7  N   UNL d   1      33.116  21.432 -20.717  0.00  0.00    -0.241 NA
ATOM      8  C   UNL d   1      33.113  22.830 -20.917  0.00  0.00     0.101 A 
ATOM      9  C   UNL d   1      33.097  22.178 -20.423  0.00  0.00     0.099 A 
ATOM     10  C   UNL d   1      33.234  20.263 -23.353  0.00  0.00     0.018 A 
ATOM     11  C   UNL d   1      33.172  19.815 -21.767  0.00  0.00     0.015 A 
ATOM     12  C   UNL d   1      33.201  19.240 -22.357  0.00  0.00     0.058 A 
ATOM     13  C   UNL d   1      33.224  22.097 -23.469  0.00  0.00     0.101 C 
ATOM     14  C   UNL d   1      33.232  19.464 -23.151  0.00  0.00     0.013 A 
ATOM     15 CL   UNL d   1      33.199  18.440 -22.154  0.00  0.00    -0.082 Cl
ATOM     16  C   UNL d   1      33.094  23.578 -20.622  0.00  0.00     0.021 A 
ATOM     17  C   UNL d   1      33.063  22.294 -19.617  0.00  0.00     0.021 A 
ATOM     18  C   UNL d   1      33.044  23.058 -19.287  0.00  0.00     0.002 A 
ATOM     19  C   UNL d   1      33.060  23.685 -19.799  0.00  0.00     0.002 A 
ENDROOT
TORSDOF 0
ENDMDL
MODEL 6
REMARK VINA RESULT:      -2.7      1.439      3.463
REMARK  0 active torsions:
REMARK  status: ('A' for Active; 'I' for Inactive)
ROOT
ATOM      1  C   UNL d   1      31.590  16.829 -23.667  0.00  0.00     0.166 A 
ATOM      2  C   UNL d   1      30.962  17.100 -24.125  0.00  0.00     0.117 A 
ATOM      3  N   UNL d   1      31.313  16.166 -23.259  0.00  0.00    -0.288 N 
ATOM      4  C   UNL d   1      30.322  16.623 -24.005  0.00  0.00     0.038 A 
ATOM      5  N   UNL d   1      32.325  17.212 -23.676  0.00  0.00    -0.225 NA
ATOM      6  C   UNL d   1      30.541  16.039 -23.465  0.00  0.00     0.067 A 
ATOM      7  N   UNL d   1      31.095  17.765 -24.589  0.00  0.00    -0.241 NA
ATOM      8  C   UNL d   1      32.431  17.869 -24.145  0.00  0.00     0.101 A 
ATOM      9  C   UNL d   1      31.806  18.137 -24.599  0.00  0.00     0.099 A 
ATOM     10  C   UNL d   1      29.995  15.466 -23.233  0.00  0.00     0.018 A 
ATOM     11  C   UNL d   1      29.557  16.634 -24.314  0.00  0.00     0.015 A 
ATOM     12  C   UNL d   1      29.012  16.060 -24.082  0.00  0.00     0.058 A 
ATOM     13  C   UNL d   1      31.748  15.719 -22.741  0.00  0.00     0.101 C 
ATOM     14  C   UNL d   1      29.231  15.476 -23.542  0.00  0.00     0.013 A 
ATOM     15 CL   UNL d   1      28.246  16.071 -24.391  0.00  0.00    -0.082 Cl
ATOM     16  C   UNL d   1      33.144  18.242 -24.155  0.00  0.00     0.021 A 
ATOM     17  C   UNL d   1      31.912  18.793 -25.069  0.00  0.00     0.021 A 
ATOM     18  C   UNL d   1      32.639  19.197 -25.097  0.00  0.00     0.002 A 
ATOM     19  C   UNL d   1      33.241  18.911 -24.637  0.00  0.00     0.002 A 
ENDROOT
TORSDOF 0
ENDMDL
MODEL 7
REMARK VINA RESULT:      -2.3      1.345      3.304
REMARK  0 active torsions:
REMARK  status: ('A' for Active; 'I' for Inactive)
ROOT
ATOM      1  C   UNL d   1      30.402  16.055 -23.438  0.00  0.00     0.166 A 
ATOM      2  C   UNL d   1      30.425  16.662 -23.993  0.00  0.00     0.117 A 
ATOM      3  N   UNL d   1      29.613  15.985 -23.201  0.00  0.00    -0.288 N 
ATOM      4  C   UNL d   1      29.680  16.955 -24.096  0.00  0.00     0.038 A 
ATOM      5  N   UNL d   1      31.089  15.647 -23.217  0.00  0.00    -0.225 NA
ATOM      6  C   UNL d   1      29.173  16.532 -23.601  0.00  0.00     0.067 A 
ATOM      7  N   UNL d   1      31.156  16.845 -24.319  0.00  0.00    -0.241 NA
ATOM      8  C   UNL d   1      31.802  15.848 -23.556  0.00  0.00     0.101 A 
ATOM      9  C   UNL d   1      31.823  16.451 -24.108  0.00  0.00     0.099 A 
ATOM     10  C   UNL d   1      28.368  16.710 -23.587  0.00  0.00     0.018 A 
ATOM     11  C   UNL d   1      29.382  17.556 -24.576  0.00  0.00     0.015 A 
ATOM     12  C   UNL d   1      28.576  17.733 -24.561  0.00  0.00     0.058 A 
ATOM     13  C   UNL d   1      29.333  15.453 -22.657  0.00  0.00     0.101 C 
ATOM     14  C   UNL d   1      28.069  17.310 -24.066  0.00  0.00     0.013 A 
ATOM     15 CL   UNL d   1      28.278  18.335 -25.042  0.00  0.00    -0.082 Cl
ATOM     16  C   UNL d   1      32.470  15.453 -23.344  0.00  0.00     0.021 A 
ATOM     17  C   UNL d   1      32.535  16.652 -24.446  0.00  0.00     0.021 A 
ATOM     18  C   UNL d   1      33.241  16.260 -24.244  0.00  0.00     0.002 A 
ATOM     19  C   UNL d   1      33.192  15.667 -23.695  0.00  0.00     0.002 A 
ENDROOT
TORSDOF 0
ENDMDL
MODEL 8
REMARK VINA RESULT:      -2.2      6.021      7.022
REMARK  0 active torsions:
REMARK  status: ('A' for Active; 'I' for Inactive)
ROOT
ATOM      1  C   UNL d   1      33.121  21.671 -20.680  0.00  0.00     0.166 A 
ATOM      2  C   UNL d   1      33.128  22.402 -21.058  0.00  0.00     0.117 A 
ATOM      3  N   UNL d   1      33.152  21.099 -21.275  0.00  0.00    -0.288 N 
ATOM      4  C   UNL d   1      33.163  22.286 -21.857  0.00  0.00     0.038 A 
ATOM      5  N   UNL d   1      33.087  21.615 -19.853  0.00  0.00    -0.225 NA
ATOM      6  C   UNL d   1      33.178  21.472 -21.992  0.00  0.00     0.067 A 
ATOM      7  N   UNL d   1      33.101  23.071 -20.583  0.00  0.00    -0.241 NA
ATOM      8  C   UNL d   1      33.060  22.294 -19.405  0.00  0.00     0.101 A 
ATOM      9  C   UNL d   1      33.068  23.020 -19.783  0.00  0.00     0.099 A 
ATOM     10  C   UNL d   1      33.214  21.184 -22.764  0.00  0.00     0.018 A 
ATOM     11  C   UNL d   1      33.184  22.811 -22.492  0.00  0.00     0.015 A 
ATOM     12  C   UNL d   1      33.220  22.522 -23.264  0.00  0.00     0.058 A 
ATOM     13  C   UNL d   1      33.157  20.297 -21.155  0.00  0.00     0.101 C 
ATOM     14  C   UNL d   1      33.235  21.708 -23.400  0.00  0.00     0.013 A 
ATOM     15 CL   UNL d   1      33.241  23.047 -23.901  0.00  0.00    -0.082 Cl
ATOM     16  C   UNL d   1      33.027  22.242 -18.603  0.00  0.00     0.021 A 
ATOM     17  C   UNL d   1      33.041  23.699 -19.335  0.00  0.00     0.021 A 
ATOM     18  C   UNL d   1      33.006  23.672 -18.504  0.00  0.00     0.002 A 
ATOM     19  C   UNL d   1      33.000  22.942 -18.155  0.00  0.00     0.002 A 
ENDROOT
TORSDOF 0
ENDMDL
MODEL 9
REMARK VINA RESULT:      -1.8      5.437      6.733
REMARK  0 active torsions:
REMARK  status: ('A' for Active; 'I' for Inactive)
ROOT
ATOM      1  C   UNL d   1      33.148  22.608 -22.126  0.00  0.00     0.166 A 
ATOM      2  C   UNL d   1      33.187  21.826 -22.378  0.00  0.00     0.117 A 
ATOM      3  N   UNL d   1      33.124  22.586 -21.300  0.00  0.00    -0.288 N 
ATOM      4  C   UNL d   1      33.188  21.339 -21.734  0.00  0.00     0.038 A 
ATOM      5  N   UNL d   1      33.139  23.235 -22.668  0.00  0.00    -0.225 NA
ATOM      6  C   UNL d   1      33.148  21.814 -21.061  0.00  0.00     0.067 A 
ATOM      7  N   UNL d   1      33.217  21.694 -23.189  0.00  0.00    -0.241 NA
ATOM      8  C   UNL d   1      33.169  23.078 -23.466  0.00  0.00     0.101 A 
ATOM      9  C   UNL d   1      33.208  22.299 -23.715  0.00  0.00     0.099 A 
ATOM     10  C   UNL d   1      33.140  21.468 -20.313  0.00  0.00     0.018 A 
ATOM     11  C   UNL d   1      33.219  20.518 -21.660  0.00  0.00     0.015 A 
ATOM     12  C   UNL d   1      33.210  20.173 -20.911  0.00  0.00     0.058 A 
ATOM     13  C   UNL d   1      33.083  23.235 -20.815  0.00  0.00     0.101 C 
ATOM     14  C   UNL d   1      33.171  20.647 -20.237  0.00  0.00     0.013 A 
ATOM     15 CL   UNL d   1      33.241  19.351 -20.836  0.00  0.00    -0.082 Cl
ATOM     16  C   UNL d   1      33.161  23.685 -23.993  0.00  0.00     0.021 A 
ATOM     17  C   UNL d   1      33.239  22.142 -24.513  0.00  0.00     0.021 A 
ATOM     18  C   UNL d   1      33.231  22.752 -25.080  0.00  0.00     0.002 A 
ATOM     19  C   UNL d   1      33.192  23.512 -24.806  0.00  0.00     0.002 A 
ENDROOT
TORSDOF 0
ENDMDL
