MODEL 1
REMARK VINA RESULT:      -3.4      0.000      0.000
REMARK  5 active torsions:
REMARK  status: ('A' for Active; 'I' for Inactive)
REMARK    1  A    between atoms: C_2  and  S_1 
REMARK    2  A    between atoms: N_3  and  S_1 
REMARK    3  A    between atoms: C_18  and  N_7 
REMARK    4  A    between atoms: O_27  and  C_9 
REMARK    5  A    between atoms: C_17  and  C_18 
ROOT
ATOM      1  N   UNL d   1      32.943  20.681 -22.010  0.00  0.00    -0.226 N 
ATOM      2  N   UNL d   1      33.141  19.354 -22.978  0.00  0.00    -0.300 N 
ATOM      3  C   UNL d   1      32.872  19.917 -21.691  0.00  0.00     0.111 A 
ATOM      4  C   UNL d   1      33.113  20.774 -22.815  0.00  0.00     0.111 A 
ATOM      5  C   UNL d   1      32.973  19.257 -22.181  0.00  0.00     0.100 A 
ATOM      6  C   UNL d   1      33.212  20.118 -23.298  0.00  0.00     0.100 A 
ENDROOT
BRANCH   1   7
ATOM      7  S   UNL d   1      32.843  21.339 -21.524  0.00  0.00     0.273 S 
ATOM      8  O   UNL d   1      32.449  20.861 -20.968  0.00  0.00    -0.200 OA
ATOM      9  O   UNL d   1      33.233  21.812 -22.073  0.00  0.00    -0.200 OA
BRANCH   7  10
ATOM     10  C   UNL d   1      32.743  21.992 -21.038  0.00  0.00     0.128 A 
ATOM     11  C   UNL d   1      33.033  21.985 -20.261  0.00  0.00     0.044 A 
ATOM     12  C   UNL d   1      32.933  22.641 -19.772  0.00  0.00     0.141 A 
ATOM     13  F   UNL d   1      33.221  22.628 -19.007  0.00  0.00    -0.204 F 
ATOM     14  C   UNL d   1      32.538  23.314 -20.057  0.00  0.00     0.032 A 
ATOM     15  C   UNL d   1      32.250  23.322 -20.829  0.00  0.00     0.027 A 
ATOM     16  C   UNL d   1      32.348  22.666 -21.323  0.00  0.00     0.106 A 
BRANCH  16  17
ATOM     17  O   UNL d   1      32.056  22.682 -22.094  0.00  0.00    -0.327 OA
ATOM     18  C   UNL d   1      31.777  23.383 -22.412  0.00  0.00     0.181 C 
ENDBRANCH  16  17
ENDBRANCH   7  10
ENDBRANCH   1   7
BRANCH   2  19
ATOM     19  C   UNL d   1      33.241  18.695 -23.465  0.00  0.00     0.080 C 
BRANCH  19  20
ATOM     20  C   UNL d   1      32.593  18.223 -23.670  0.00  0.00     0.020 A 
ATOM     21  C   UNL d   1      32.111  18.430 -24.301  0.00  0.00     0.028 A 
ATOM     22  C   UNL d   1      31.466  17.958 -24.505  0.00  0.00     0.119 A 
ATOM     23  O   UNL d   1      30.895  18.021 -25.096  0.00  0.00    -0.300 OA
ATOM     24  C   UNL d   1      31.304  17.270 -24.068  0.00  0.00     0.119 A 
ATOM     25  C   UNL d   1      30.383  17.378 -25.028  0.00  0.00     0.304 A 
ATOM     26  O   UNL d   1      30.636  16.919 -24.397  0.00  0.00    -0.300 OA
ATOM     27  C   UNL d   1      31.790  17.064 -23.434  0.00  0.00     0.026 A 
ATOM     28  C   UNL d   1      32.431  17.534 -23.233  0.00  0.00     0.004 A 
ENDBRANCH  19  20
ENDBRANCH   2  19
TORSDOF 5
ENDMDL
MODEL 2
REMARK VINA RESULT:      -3.1      2.291      5.692
REMARK  5 active torsions:
REMARK  status: ('A' for Active; 'I' for Inactive)
REMARK    1  A    between atoms: C_2  and  S_1 
REMARK    2  A    between atoms: N_3  and  S_1 
REMARK    3  A    between atoms: C_18  and  N_7 
REMARK    4  A    between atoms: O_27  and  C_9 
REMARK    5  A    between atoms: C_17  and  C_18 
ROOT
ATOM      1  N   UNL d   1      32.043  18.188 -23.752  0.00  0.00    -0.226 N 
ATOM      2  N   UNL d   1      32.844  19.544 -23.247  0.00  0.00    -0.300 N 
ATOM      3  C   UNL d   1      32.651  18.128 -23.189  0.00  0.00     0.111 A 
ATOM      4  C   UNL d   1      31.841  18.930 -24.058  0.00  0.00     0.111 A 
ATOM      5  C   UNL d   1      33.049  18.811 -22.940  0.00  0.00     0.100 A 
ATOM      6  C   UNL d   1      32.236  19.604 -23.810  0.00  0.00     0.100 A 
ENDROOT
BRANCH   1   7
ATOM      7  S   UNL d   1      31.647  17.509 -24.001  0.00  0.00     0.273 S 
ATOM      8  O   UNL d   1      31.622  17.242 -23.213  0.00  0.00    -0.200 OA
ATOM      9  O   UNL d   1      31.672  17.773 -24.780  0.00  0.00    -0.200 OA
BRANCH   7  10
ATOM     10  C   UNL d   1      31.253  16.833 -24.246  0.00  0.00     0.128 A 
ATOM     11  C   UNL d   1      30.437  16.756 -24.124  0.00  0.00     0.044 A 
ATOM     12  C   UNL d   1      30.039  16.077 -24.369  0.00  0.00     0.141 A 
ATOM     13  F   UNL d   1      29.235  16.007 -24.246  0.00  0.00    -0.204 F 
ATOM     14  C   UNL d   1      30.459  15.464 -24.742  0.00  0.00     0.032 A 
ATOM     15  C   UNL d   1      31.270  15.539 -24.864  0.00  0.00     0.027 A 
ATOM     16  C   UNL d   1      31.673  16.220 -24.619  0.00  0.00     0.106 A 
BRANCH  16  17
ATOM     17  O   UNL d   1      32.484  16.286 -24.745  0.00  0.00    -0.327 OA
ATOM     18  C   UNL d   1      32.897  15.673 -25.097  0.00  0.00     0.181 C 
ENDBRANCH  16  17
ENDBRANCH   7  10
ENDBRANCH   1   7
BRANCH   2  19
ATOM     19  C   UNL d   1      33.241  20.224 -22.997  0.00  0.00     0.080 C 
BRANCH  19  20
ATOM     20  C   UNL d   1      33.042  20.587 -22.281  0.00  0.00     0.020 A 
ATOM     21  C   UNL d   1      32.663  21.315 -22.276  0.00  0.00     0.028 A 
ATOM     22  C   UNL d   1      32.466  21.676 -21.561  0.00  0.00     0.119 A 
ATOM     23  O   UNL d   1      32.092  22.389 -21.383  0.00  0.00    -0.300 OA
ATOM     24  C   UNL d   1      32.652  21.301 -20.844  0.00  0.00     0.119 A 
ATOM     25  C   UNL d   1      32.046  22.456 -20.561  0.00  0.00     0.304 A 
ATOM     26  O   UNL d   1      32.391  21.788 -20.234  0.00  0.00    -0.300 OA
ATOM     27  C   UNL d   1      33.033  20.570 -20.852  0.00  0.00     0.026 A 
ATOM     28  C   UNL d   1      33.229  20.212 -21.563  0.00  0.00     0.004 A 
ENDBRANCH  19  20
ENDBRANCH   2  19
TORSDOF 5
ENDMDL
