MODEL 1
REMARK VINA RESULT:      -4.7      0.000      0.000
REMARK  4 active torsions:
REMARK  status: ('A' for Active; 'I' for Inactive)
REMARK    1  A    between atoms: C_5  and  C_1 
REMARK    2  A    between atoms: C_9  and  C_6 
REMARK    3  A    between atoms: C_10  and  C_9 
REMARK    4  A    between atoms: C_11  and  C_10 
ROOT
ATOM      1  C   UNL d   1     -41.262-122.738 -51.913  0.00  0.00     0.169 A 
ATOM      2  N   UNL d   1     -41.509-123.503 -52.082  0.00  0.00    -0.142 NA
ATOM      3  C   UNL d   1     -41.123-122.352 -52.631  0.00  0.00     0.048 A 
ATOM      4  N   UNL d   1     -41.525-123.600 -52.900  0.00  0.00    -0.148 NA
ATOM      5  C   UNL d   1     -41.285-122.884 -53.240  0.00  0.00     0.105 A 
ENDROOT
BRANCH   5   6
ATOM      6  C   UNL d   1     -41.221-122.735 -54.059  0.00  0.00     0.021 C 
BRANCH   6   7
ATOM      7  C   UNL d   1     -41.870-122.462 -54.482  0.00  0.00     0.002 C 
BRANCH   7   8
ATOM      8  C   UNL d   1     -41.808-122.328 -55.292  0.00  0.00     0.000 C 
ATOM      9  C   UNL d   1     -42.401-121.905 -55.682  0.00  0.00     0.000 C 
ENDBRANCH   7   8
ENDBRANCH   6   7
ENDBRANCH   5   6
BRANCH   1  10
ATOM     10  C   UNL d   1     -41.169-122.411 -51.163  0.00  0.00     0.231 C 
ATOM     11  O   UNL d   1     -41.122-122.905 -50.504  0.00  0.00    -0.643 OA
ATOM     12  O   UNL d   1     -41.123-121.591 -51.069  0.00  0.00    -0.643 OA
ENDBRANCH   1  10
TORSDOF 4
ENDMDL
MODEL 2
REMARK VINA RESULT:      -4.4      2.187      3.450
REMARK  4 active torsions:
REMARK  status: ('A' for Active; 'I' for Inactive)
REMARK    1  A    between atoms: C_5  and  C_1 
REMARK    2  A    between atoms: C_9  and  C_6 
REMARK    3  A    between atoms: C_10  and  C_9 
REMARK    4  A    between atoms: C_11  and  C_10 
ROOT
ATOM      1  C   UNL d   1     -41.871-122.128 -54.250  0.00  0.00     0.169 A 
ATOM      2  N   UNL d   1     -41.958-121.537 -53.686  0.00  0.00    -0.142 NA
ATOM      3  C   UNL d   1     -41.547-122.791 -53.875  0.00  0.00     0.048 A 
ATOM      4  N   UNL d   1     -41.691-121.823 -52.961  0.00  0.00    -0.148 NA
ATOM      5  C   UNL d   1     -41.436-122.602 -53.080  0.00  0.00     0.105 A 
ENDROOT
BRANCH   5   6
ATOM      6  C   UNL d   1     -41.122-123.103 -52.491  0.00  0.00     0.021 C 
BRANCH   6   7
ATOM      7  C   UNL d   1     -41.537-123.233 -51.793  0.00  0.00     0.002 C 
BRANCH   7   8
ATOM      8  C   UNL d   1     -41.177-123.626 -51.166  0.00  0.00     0.000 C 
ATOM      9  C   UNL d   1     -41.612-123.789 -50.482  0.00  0.00     0.000 C 
ENDBRANCH   7   8
ENDBRANCH   6   7
ENDBRANCH   5   6
BRANCH   1  10
ATOM     10  C   UNL d   1     -42.070-122.074 -55.047  0.00  0.00     0.231 C 
ATOM     11  O   UNL d   1     -41.474-122.066 -55.618  0.00  0.00    -0.643 OA
ATOM     12  O   UNL d   1     -42.863-122.027 -55.276  0.00  0.00    -0.643 OA
ENDBRANCH   1  10
TORSDOF 4
ENDMDL
MODEL 3
REMARK VINA RESULT:      -4.2      1.037      1.196
REMARK  4 active torsions:
REMARK  status: ('A' for Active; 'I' for Inactive)
REMARK    1  A    between atoms: C_5  and  C_1 
REMARK    2  A    between atoms: C_9  and  C_6 
REMARK    3  A    between atoms: C_10  and  C_9 
REMARK    4  A    between atoms: C_11  and  C_10 
ROOT
ATOM      1  C   UNL d   1     -41.510-122.437 -51.217  0.00  0.00     0.169 A 
ATOM      2  N   UNL d   1     -41.260-121.682 -51.422  0.00  0.00    -0.142 NA
ATOM      3  C   UNL d   1     -41.531-122.893 -51.907  0.00  0.00     0.048 A 
ATOM      4  N   UNL d   1     -41.123-121.661 -52.234  0.00  0.00    -0.148 NA
ATOM      5  C   UNL d   1     -41.292-122.414 -52.534  0.00  0.00     0.105 A 
ENDROOT
BRANCH   5   6
ATOM      6  C   UNL d   1     -41.229-122.641 -53.335  0.00  0.00     0.021 C 
BRANCH   6   7
ATOM      7  C   UNL d   1     -41.663-122.250 -53.912  0.00  0.00     0.002 C 
BRANCH   7   8
ATOM      8  C   UNL d   1     -41.529-122.409 -54.708  0.00  0.00     0.000 C 
ATOM      9  C   UNL d   1     -42.128-122.265 -55.260  0.00  0.00     0.000 C 
ENDBRANCH   7   8
ENDBRANCH   6   7
ENDBRANCH   5   6
BRANCH   1  10
ATOM     10  C   UNL d   1     -41.707-122.696 -50.460  0.00  0.00     0.231 C 
ATOM     11  O   UNL d   1     -41.123-123.015 -49.973  0.00  0.00    -0.643 OA
ATOM     12  O   UNL d   1     -42.485-122.638 -50.189  0.00  0.00    -0.643 OA
ENDBRANCH   1  10
TORSDOF 4
ENDMDL
