MODEL 1
REMARK VINA RESULT:      64.8      0.000      0.000
REMARK  4 active torsions:
REMARK  status: ('A' for Active; 'I' for Inactive)
REMARK    1  A    between atoms: S_10  and  C_3 
REMARK    2  A    between atoms: C_11  and  C_7 
REMARK    3  A    between atoms: C_13  and  S_10 
REMARK    4  A    between atoms: C_15  and  C_13 
ROOT
ATOM      1  N   UNL d   1      60.083  48.886  50.907  0.00  0.00    -0.186 N 
ATOM      2  N   UNL d   1      59.377  48.882  50.493  0.00  0.00    -0.162 NA
ATOM      3  C   UNL d   1      60.818  48.534  50.750  0.00  0.00     0.217 A 
ATOM      4  C   UNL d   1      60.151  49.295  51.622  0.00  0.00     0.187 A 
ATOM      5  N   UNL d   1      61.324  48.730  51.365  0.00  0.00    -0.120 NA
ATOM      6  N   UNL d   1      60.913  49.202  51.906  0.00  0.00    -0.127 NA
ATOM      7  C   UNL d   1      58.724  49.294  50.796  0.00  0.00     0.102 A 
ATOM      8  C   UNL d   1      59.495  49.707  51.923  0.00  0.00     0.042 A 
ATOM      9  C   UNL d   1      58.788  49.706  51.513  0.00  0.00     0.024 A 
ENDROOT
BRANCH   3  10
ATOM     10  S   UNL d   1      61.024  48.068  50.099  0.00  0.00    -0.046 SA
BRANCH  10  11
ATOM     11  C   UNL d   1      61.689  47.596  50.122  0.00  0.00     0.038 C 
BRANCH  11  12
ATOM     12  C   UNL d   1      61.670  46.842  49.806  0.00  0.00     0.007 A 
ATOM     13  C   UNL d   1      62.184  46.619  49.196  0.00  0.00     0.003 A 
ATOM     14  C   UNL d   1      62.158  45.850  48.881  0.00  0.00     0.030 A 
ATOM     15  C   UNL d   1      61.616  45.313  49.179  0.00  0.00     0.140 A 
ATOM     16  C   UNL d   1      61.097  45.514  49.784  0.00  0.00     0.030 A 
ATOM     17  F   UNL d   1      61.593  44.549  48.864  0.00  0.00    -0.204 F 
ATOM     18  C   UNL d   1      61.124  46.282  50.099  0.00  0.00     0.003 A 
ENDBRANCH  11  12
ENDBRANCH  10  11
ENDBRANCH   3  10
BRANCH   7  19
ATOM     19  C   UNL d   1      58.008  49.293  50.382  0.00  0.00     0.022 A 
ATOM     20  C   UNL d   1      57.339  48.979  50.728  0.00  0.00     0.022 A 
ATOM     21  C   UNL d   1      56.618  48.970  50.331  0.00  0.00     0.099 A 
ATOM     22  N   UNL d   1      56.586  49.296  49.551  0.00  0.00    -0.242 NA
ATOM     23  C   UNL d   1      57.259  49.611  49.206  0.00  0.00     0.099 A 
ATOM     24  C   UNL d   1      57.970  49.610  49.622  0.00  0.00     0.022 A 
ENDBRANCH   7  19
TORSDOF 4
ENDMDL
