MODEL 1
REMARK VINA RESULT:      19.4      0.000      0.000
REMARK  1 active torsions:
REMARK  status: ('A' for Active; 'I' for Inactive)
REMARK    1  A    between atoms: C_7  and  C_2 
ROOT
ATOM      1  C   UNL d   1     -51.259  25.441  33.337  0.00  0.00     0.074 A 
ATOM      2  C   UNL d   1     -52.082  25.399  33.327  0.00  0.00     0.088 A 
ATOM      3  C   UNL d   1     -50.884  26.174  33.338  0.00  0.00     0.088 A 
ATOM      4  C   UNL d   1     -52.155  26.825  33.318  0.00  0.00     0.221 A 
ATOM      5  N   UNL d   1     -51.331  26.867  33.329  0.00  0.00    -0.217 NA
ATOM      6  N   UNL d   1     -52.531  26.092  33.317  0.00  0.00    -0.217 NA
ATOM      7  C   UNL d   1     -50.818  24.752  33.347  0.00  0.00     0.199 A 
ATOM      8  S   UNL d   1     -52.604  27.519  33.308  0.00  0.00    -0.037 SA
ATOM      9  O   UNL d   1     -51.194  24.018  33.346  0.00  0.00    -0.286 OA
ATOM     10  C   UNL d   1     -50.067  26.220  33.349  0.00  0.00     0.019 A 
ATOM     11  C   UNL d   1     -49.987  24.790  33.358  0.00  0.00     0.042 A 
ATOM     12  C   UNL d   1     -49.612  25.523  33.359  0.00  0.00     0.005 A 
ENDROOT
BRANCH   2  13
ATOM     13  C   UNL d   1     -52.458  24.665  33.326  0.00  0.00     0.021 A 
ATOM     14  C   UNL d   1     -53.282  24.624  33.317  0.00  0.00     0.043 A 
ATOM     15  C   UNL d   1     -53.656  23.894  33.316  0.00  0.00     0.196 A 
ATOM     16  O   UNL d   1     -54.481  23.852  33.308  0.00  0.00    -0.287 OA
ATOM     17  C   UNL d   1     -53.208  23.201  33.324  0.00  0.00     0.042 A 
ATOM     18  C   UNL d   1     -52.384  23.243  33.333  0.00  0.00     0.003 A 
ATOM     19  C   UNL d   1     -52.010  23.973  33.334  0.00  0.00     0.002 A 
ENDBRANCH   2  13
TORSDOF 1
ENDMDL
MODEL 2
REMARK VINA RESULT:      21.5      1.606      2.840
REMARK  1 active torsions:
REMARK  status: ('A' for Active; 'I' for Inactive)
REMARK    1  A    between atoms: C_7  and  C_2 
ROOT
ATOM      1  C   UNL d   1     -51.243  24.630  33.355  0.00  0.00     0.074 A 
ATOM      2  C   UNL d   1     -51.760  25.271  33.372  0.00  0.00     0.088 A 
ATOM      3  C   UNL d   1     -51.540  23.861  33.367  0.00  0.00     0.088 A 
ATOM      4  C   UNL d   1     -52.872  24.376  33.414  0.00  0.00     0.221 A 
ATOM      5  N   UNL d   1     -52.354  23.733  33.397  0.00  0.00    -0.217 NA
ATOM      6  N   UNL d   1     -52.575  25.145  33.401  0.00  0.00    -0.217 NA
ATOM      7  C   UNL d   1     -50.436  24.759  33.326  0.00  0.00     0.199 A 
ATOM      8  S   UNL d   1     -53.687  24.249  33.443  0.00  0.00    -0.037 SA
ATOM      9  O   UNL d   1     -50.139  25.529  33.313  0.00  0.00    -0.286 OA
ATOM     10  C   UNL d   1     -51.030  23.221  33.351  0.00  0.00     0.019 A 
ATOM     11  C   UNL d   1     -49.911  24.114  33.308  0.00  0.00     0.042 A 
ATOM     12  C   UNL d   1     -50.208  23.346  33.321  0.00  0.00     0.005 A 
ENDROOT
BRANCH   2  13
ATOM     13  C   UNL d   1     -51.462  26.041  33.359  0.00  0.00     0.021 A 
ATOM     14  C   UNL d   1     -51.981  26.683  33.340  0.00  0.00     0.043 A 
ATOM     15  C   UNL d   1     -51.685  27.447  33.328  0.00  0.00     0.196 A 
ATOM     16  O   UNL d   1     -52.203  28.090  33.309  0.00  0.00    -0.287 OA
ATOM     17  C   UNL d   1     -50.870  27.575  33.334  0.00  0.00     0.042 A 
ATOM     18  C   UNL d   1     -50.352  26.933  33.353  0.00  0.00     0.003 A 
ATOM     19  C   UNL d   1     -50.648  26.168  33.366  0.00  0.00     0.002 A 
ENDBRANCH   2  13
TORSDOF 1
ENDMDL
