MODEL 1
REMARK VINA RESULT:       0.7      0.000      0.000
REMARK  7 active torsions:
REMARK  status: ('A' for Active; 'I' for Inactive)
REMARK    1  A    between atoms: S_2  and  C_1 
REMARK    2  A    between atoms: C_9  and  S_2 
REMARK    3  A    between atoms: C_10  and  N_3 
REMARK    4  A    between atoms: C_8  and  C_10 
REMARK       I    between atoms: N_15  and  C_8 
REMARK    5  A    between atoms: C_20  and  N_15 
REMARK    6  A    between atoms: O_32  and  C_21 
REMARK    7  A    between atoms: C_33  and  C_27 
ROOT
ATOM      1  C   UNL d   1      33.208  21.046 -22.196  0.00  0.00     0.144 A 
ATOM      2  N   UNL d   1      33.222  20.325 -23.433  0.00  0.00    -0.299 N 
ATOM      3  C   UNL d   1      33.185  21.760 -22.620  0.00  0.00     0.209 A 
ATOM      4  C   UNL d   1      33.227  20.328 -22.603  0.00  0.00     0.095 A 
ATOM      5  C   UNL d   1      33.181  21.752 -23.444  0.00  0.00     0.058 A 
ATOM      6  C   UNL d   1      33.200  21.035 -23.850  0.00  0.00     0.068 A 
ATOM      7  C   UNL d   1      33.195  21.027 -24.673  0.00  0.00     0.020 A 
ATOM      8  C   UNL d   1      33.158  22.462 -23.859  0.00  0.00     0.029 A 
ATOM      9  O   UNL d   1      33.166  22.481 -22.211  0.00  0.00    -0.286 OA
ATOM     10  C   UNL d   1      33.154  22.456 -24.687  0.00  0.00     0.094 A 
ATOM     11  C   UNL d   1      33.173  21.739 -25.094  0.00  0.00     0.026 A 
ENDROOT
BRANCH   2  12
ATOM     12  C   UNL d   1      33.241  19.608 -23.840  0.00  0.00     0.144 C 
BRANCH  12  13
ATOM     13  C   UNL d   1      32.591  19.103 -23.817  0.00  0.00     0.297 C 
ATOM     14  N   UNL d   1      32.566  18.439 -24.306  0.00  0.00    -0.207 NA
ATOM     15  O   UNL d   1      31.966  19.263 -23.304  0.00  0.00    -0.264 OA
BRANCH  14  16
ATOM     16  C   UNL d   1      31.915  17.934 -24.282  0.00  0.00     0.085 A 
ATOM     17  C   UNL d   1      31.879  17.337 -23.717  0.00  0.00     0.019 A 
ATOM     18  C   UNL d   1      31.228  16.833 -23.694  0.00  0.00     0.002 A 
ATOM     19  C   UNL d   1      30.613  16.927 -24.235  0.00  0.00     0.000 A 
ATOM     20  C   UNL d   1      30.651  17.528 -24.803  0.00  0.00     0.002 A 
ATOM     21  C   UNL d   1      31.302  18.031 -24.825  0.00  0.00     0.019 A 
BRANCH  19  22
ATOM     22  C   UNL d   1      29.956  16.424 -24.218  0.00  0.00     0.000 C 
ATOM     23  C   UNL d   1      29.255  16.689 -23.876  0.00  0.00     0.000 C 
ENDBRANCH  19  22
ENDBRANCH  14  16
ENDBRANCH  12  13
ENDBRANCH   2  12
BRANCH   1  24
ATOM     24  S   UNL d   1      33.212  21.052 -21.370  0.00  0.00     0.214 S 
ATOM     25  O   UNL d   1      33.226  20.228 -21.362  0.00  0.00    -0.217 OA
ATOM     26  O   UNL d   1      33.198  21.886 -21.371  0.00  0.00    -0.217 OA
BRANCH  24  27
ATOM     27  C   UNL d   1      33.216  21.055 -20.539  0.00  0.00     0.088 A 
ATOM     28  C   UNL d   1      33.236  20.343 -20.118  0.00  0.00     0.014 A 
ATOM     29  C   UNL d   1      33.240  20.351 -19.296  0.00  0.00     0.030 A 
ATOM     30  C   UNL d   1      33.225  21.064 -18.882  0.00  0.00     0.140 A 
ATOM     31  C   UNL d   1      33.204  21.778 -19.305  0.00  0.00     0.030 A 
ATOM     32  F   UNL d   1      33.229  21.070 -18.055  0.00  0.00    -0.204 F 
ATOM     33  C   UNL d   1      33.200  21.771 -20.129  0.00  0.00     0.014 A 
ENDBRANCH  24  27
ENDBRANCH   1  24
BRANCH  10  34
ATOM     34  O   UNL d   1      33.131  23.177 -25.097  0.00  0.00    -0.328 OA
ATOM     35  C   UNL d   1      32.473  23.675 -25.008  0.00  0.00     0.181 C 
ENDBRANCH  10  34
TORSDOF 7
ENDMDL
