MODEL 1
REMARK VINA RESULT:      37.9      0.000      0.000
REMARK  2 active torsions:
REMARK  status: ('A' for Active; 'I' for Inactive)
REMARK    1  A    between atoms: O_3  and  C_1 
REMARK    2  A    between atoms: C_2  and  O_3 
REMARK       I    between atoms: N_7  and  C_2 
ROOT
ATOM      1  C   UNL d   1     -57.557 -98.923 -44.379  0.00  0.00     0.129 A 
ATOM      2  C   UNL d   1     -58.238 -98.881 -43.915  0.00  0.00     0.105 A 
ATOM      3  C   UNL d   1     -58.978 -98.826 -44.257  0.00  0.00     0.026 A 
ATOM      4  C   UNL d   1     -57.643 -98.908 -45.208  0.00  0.00     0.059 A 
ATOM      5  C   UNL d   1     -59.054 -98.812 -45.070  0.00  0.00     0.037 A 
ATOM      6  C   UNL d   1     -58.373 -98.854 -45.545  0.00  0.00     0.015 A 
ATOM      7  N   UNL d   1     -58.158 -98.895 -43.088  0.00  0.00    -0.242 NA
ATOM      8 BR   UNL d   1     -56.991 -98.948 -45.704  0.00  0.00    -0.047 Br
ATOM      9 BR   UNL d   1     -59.816 -98.756 -45.422  0.00  0.00    -0.049 Br
ATOM     10  C   UNL d   1     -59.646 -98.785 -43.785  0.00  0.00     0.004 A 
ATOM     11  C   UNL d   1     -58.830 -98.853 -42.611  0.00  0.00     0.099 A 
ATOM     12  C   UNL d   1     -59.577 -98.798 -42.956  0.00  0.00     0.021 A 
ENDROOT
BRANCH   1  13
ATOM     13  O   UNL d   1     -56.808 -98.978 -44.033  0.00  0.00    -0.257 OA
BRANCH  13  14
ATOM     14  C   UNL d   1     -56.194 -99.206 -44.480  0.00  0.00     0.378 C 
ATOM     15  N   UNL d   1     -55.789 -99.942 -44.290  0.00  0.00    -0.252 N 
ATOM     16  C   UNL d   1     -56.030-100.393 -43.666  0.00  0.00     0.085 A 
ATOM     17  C   UNL d   1     -55.140-100.188 -44.759  0.00  0.00     0.085 A 
ATOM     18  C   UNL d   1     -55.638-101.105 -43.482  0.00  0.00     0.019 A 
ATOM     19  C   UNL d   1     -55.008-101.363 -43.922  0.00  0.00     0.003 A 
ATOM     20  C   UNL d   1     -54.758-100.883 -44.579  0.00  0.00     0.019 A 
ATOM     21  O   UNL d   1     -55.949 -98.758 -45.105  0.00  0.00    -0.237 OA
ENDBRANCH  13  14
ENDBRANCH   1  13
TORSDOF 2
ENDMDL
