MODEL 1
REMARK VINA RESULT:      -0.6      0.000      0.000
REMARK  10 active torsions:
REMARK  status: ('A' for Active; 'I' for Inactive)
REMARK    1  A    between atoms: C_5  and  C_1 
REMARK    2  A    between atoms: C_8  and  N_2 
REMARK    3  A    between atoms: C_9  and  C_5 
REMARK    4  A    between atoms: C_7  and  C_8 
REMARK       I    between atoms: N_13  and  C_7 
REMARK       I    between atoms: N_19  and  C_9 
REMARK    5  A    between atoms: N_11  and  C_21 
REMARK    6  A    between atoms: C_24  and  N_13 
REMARK    7  A    between atoms: C_25  and  N_13 
REMARK    8  A    between atoms: C_26  and  N_19 
REMARK    9  A    between atoms: C_21  and  C_23 
REMARK   10  A    between atoms: C_23  and  C_26 
ROOT
ATOM      1  C   UNL d   1     -41.931-122.672 -50.599  0.00  0.00     0.063 A 
ATOM      2  N   UNL d   1     -42.367-123.187 -49.441  0.00  0.00    -0.300 N 
ATOM      3  C   UNL d   1     -41.706-123.120 -49.929  0.00  0.00     0.084 A 
ATOM      4  C   UNL d   1     -42.727-122.469 -50.515  0.00  0.00     0.021 A 
ATOM      5  C   UNL d   1     -42.995-122.792 -49.792  0.00  0.00     0.064 A 
ATOM      6  C   UNL d   1     -43.239-122.042 -50.987  0.00  0.00     0.002 A 
ATOM      7  C   UNL d   1     -43.779-122.674 -49.564  0.00  0.00     0.018 A 
ATOM      8  C   UNL d   1     -44.027-121.924 -50.758  0.00  0.00     0.000 A 
ATOM      9  C   UNL d   1     -44.291-122.243 -50.044  0.00  0.00     0.002 A 
ENDROOT
BRANCH   1  10
ATOM     10  C   UNL d   1     -41.441-122.471 -51.228  0.00  0.00     0.254 C 
ATOM     11  O   UNL d   1     -41.156-121.697 -51.292  0.00  0.00    -0.281 OA
BRANCH  10  12
ATOM     12  C   UNL d   1     -41.232-123.034 -51.793  0.00  0.00     0.318 C 
ATOM     13  O   UNL d   1     -41.126-123.817 -51.563  0.00  0.00    -0.262 OA
ATOM     14  N   UNL d   1     -41.130-122.807 -52.580  0.00  0.00    -0.204 NA
BRANCH  14  15
ATOM     15  C   UNL d   1     -41.237-122.025 -52.798  0.00  0.00     0.104 C 
BRANCH  15  16
ATOM     16  C   UNL d   1     -41.676-121.853 -53.471  0.00  0.00     0.040 C 
BRANCH  16  17
ATOM     17  C   UNL d   1     -41.401-122.100 -54.216  0.00  0.00     0.083 C 
BRANCH  17  18
ATOM     18  N   UNL d   1     -41.887-122.024 -54.886  0.00  0.00    -0.285 N 
ATOM     19  C   UNL d   1     -41.630-121.811 -55.641  0.00  0.00     0.183 A 
ATOM     20  N   UNL d   1     -42.303-121.805 -56.134  0.00  0.00    -0.222 NA
ATOM     21  C   UNL d   1     -42.970-122.014 -55.677  0.00  0.00     0.120 A 
ATOM     22  C   UNL d   1     -42.701-122.148 -54.903  0.00  0.00     0.102 A 
ENDBRANCH  17  18
ENDBRANCH  16  17
ENDBRANCH  15  16
ENDBRANCH  14  15
ENDBRANCH  10  12
ENDBRANCH   1  10
BRANCH   2  23
ATOM     23  C   UNL d   1     -42.392-123.585 -48.719  0.00  0.00     0.142 C 
BRANCH  23  24
ATOM     24  C   UNL d   1     -41.865-123.391 -48.122  0.00  0.00     0.282 C 
ATOM     25  N   UNL d   1     -42.072-123.506 -47.332  0.00  0.00    -0.271 N 
ATOM     26  O   UNL d   1     -41.123-123.079 -48.314  0.00  0.00    -0.265 OA
BRANCH  25  27
ATOM     27  C   UNL d   1     -42.810-123.817 -47.140  0.00  0.00     0.083 C 
ATOM     28  C   UNL d   1     -43.331-123.382 -46.678  0.00  0.00     0.021 C 
ENDBRANCH  25  27
BRANCH  25  29
ATOM     29  C   UNL d   1     -41.537-123.309 -46.733  0.00  0.00     0.083 C 
ATOM     30  C   UNL d   1     -41.250-122.537 -46.676  0.00  0.00     0.021 C 
ENDBRANCH  25  29
ENDBRANCH  23  24
ENDBRANCH   2  23
TORSDOF 10
ENDMDL
MODEL 2
REMARK VINA RESULT:       1.2      1.299      5.999
REMARK  10 active torsions:
REMARK  status: ('A' for Active; 'I' for Inactive)
REMARK    1  A    between atoms: C_5  and  C_1 
REMARK    2  A    between atoms: C_8  and  N_2 
REMARK    3  A    between atoms: C_9  and  C_5 
REMARK    4  A    between atoms: C_7  and  C_8 
REMARK       I    between atoms: N_13  and  C_7 
REMARK       I    between atoms: N_19  and  C_9 
REMARK    5  A    between atoms: N_11  and  C_21 
REMARK    6  A    between atoms: C_24  and  N_13 
REMARK    7  A    between atoms: C_25  and  N_13 
REMARK    8  A    between atoms: C_26  and  N_19 
REMARK    9  A    between atoms: C_21  and  C_23 
REMARK   10  A    between atoms: C_23  and  C_26 
ROOT
ATOM      1  C   UNL d   1     -41.916-122.318 -52.195  0.00  0.00     0.063 A 
ATOM      2  N   UNL d   1     -41.746-121.770 -53.406  0.00  0.00    -0.300 N 
ATOM      3  C   UNL d   1     -41.975-122.461 -53.018  0.00  0.00     0.084 A 
ATOM      4  C   UNL d   1     -41.653-121.543 -52.089  0.00  0.00     0.021 A 
ATOM      5  C   UNL d   1     -41.548-121.204 -52.845  0.00  0.00     0.064 A 
ATOM      6  C   UNL d   1     -41.495-121.103 -51.419  0.00  0.00     0.002 A 
ATOM      7  C   UNL d   1     -41.285-120.425 -52.907  0.00  0.00     0.018 A 
ATOM      8  C   UNL d   1     -41.231-120.319 -51.480  0.00  0.00     0.000 A 
ATOM      9  C   UNL d   1     -41.128-119.985 -52.228  0.00  0.00     0.002 A 
ENDROOT
BRANCH   1  10
ATOM     10  C   UNL d   1     -42.091-122.859 -51.602  0.00  0.00     0.254 C 
ATOM     11  O   UNL d   1     -42.779-122.763 -51.153  0.00  0.00    -0.281 OA
BRANCH  10  12
ATOM     12  C   UNL d   1     -41.589-123.495 -51.452  0.00  0.00     0.318 C 
ATOM     13  O   UNL d   1     -41.131-123.801 -52.063  0.00  0.00    -0.262 OA
ATOM     14  N   UNL d   1     -41.550-123.817 -50.693  0.00  0.00    -0.204 NA
BRANCH  14  15
ATOM     15  C   UNL d   1     -42.010-123.505 -50.091  0.00  0.00     0.104 C 
BRANCH  15  16
ATOM     16  C   UNL d   1     -41.845-123.711 -49.312  0.00  0.00     0.040 C 
BRANCH  16  17
ATOM     17  C   UNL d   1     -42.396-123.536 -48.716  0.00  0.00     0.083 C 
BRANCH  17  18
ATOM     18  N   UNL d   1     -42.138-123.236 -47.984  0.00  0.00    -0.285 N 
ATOM     19  C   UNL d   1     -42.254-123.598 -47.252  0.00  0.00     0.183 A 
ATOM     20  N   UNL d   1     -41.905-123.102 -46.678  0.00  0.00    -0.222 NA
ATOM     21  C   UNL d   1     -41.577-122.438 -47.064  0.00  0.00     0.120 A 
ATOM     22  C   UNL d   1     -41.727-122.531 -47.875  0.00  0.00     0.102 A 
ENDBRANCH  17  18
ENDBRANCH  16  17
ENDBRANCH  15  16
ENDBRANCH  14  15
ENDBRANCH  10  12
ENDBRANCH   1  10
BRANCH   2  23
ATOM     23  C   UNL d   1     -41.722-121.666 -54.224  0.00  0.00     0.142 C 
BRANCH  23  24
ATOM     24  C   UNL d   1     -42.189-122.129 -54.714  0.00  0.00     0.282 C 
ATOM     25  N   UNL d   1     -42.260-121.946 -55.515  0.00  0.00    -0.271 N 
ATOM     26  O   UNL d   1     -42.589-122.783 -54.402  0.00  0.00    -0.265 OA
BRANCH  25  27
ATOM     27  C   UNL d   1     -41.862-121.296 -55.826  0.00  0.00     0.083 C 
ATOM     28  C   UNL d   1     -41.562-121.325 -56.590  0.00  0.00     0.021 C 
ENDBRANCH  25  27
BRANCH  25  29
ATOM     29  C   UNL d   1     -42.732-122.417 -56.005  0.00  0.00     0.083 C 
ATOM     30  C   UNL d   1     -43.546-122.286 -56.040  0.00  0.00     0.021 C 
ENDBRANCH  25  29
ENDBRANCH  23  24
ENDBRANCH   2  23
TORSDOF 10
ENDMDL
