MODEL 1
REMARK VINA RESULT:      -6.1      0.000      0.000
REMARK  2 active torsions:
REMARK  status: ('A' for Active; 'I' for Inactive)
REMARK    1  A    between atoms: C_2  and  C_5 
REMARK       I    between atoms: C_5  and  N_9 
REMARK    2  A    between atoms: N_9  and  C_15 
ROOT
ATOM      1  C   UNL d   1     -41.532-123.162 -52.135  0.00  0.00     0.304 C 
ATOM      2  N   UNL d   1     -41.853-122.637 -51.593  0.00  0.00    -0.206 NA
ATOM      3  O   UNL d   1     -41.122-123.816 -51.877  0.00  0.00    -0.263 OA
ENDROOT
BRANCH   1   4
ATOM      4  C   UNL d   1     -41.618-123.037 -52.940  0.00  0.00     0.182 A 
ATOM      5  O   UNL d   1     -41.975-122.348 -53.197  0.00  0.00    -0.298 OA
ATOM      6  C   UNL d   1     -42.064-122.218 -54.012  0.00  0.00     0.123 A 
ATOM      7  C   UNL d   1     -42.423-121.526 -54.280  0.00  0.00     0.027 A 
ATOM      8  C   UNL d   1     -41.797-122.775 -54.540  0.00  0.00     0.123 A 
ATOM      9  C   UNL d   1     -42.507-121.405 -55.087  0.00  0.00     0.002 A 
ATOM     10  C   UNL d   1     -42.245-121.951 -55.620  0.00  0.00     0.002 A 
ATOM     11  C   UNL d   1     -41.886-122.644 -55.352  0.00  0.00     0.027 A 
ATOM     12  O   UNL d   1     -41.438-123.468 -54.273  0.00  0.00    -0.301 OA
ATOM     13  C   UNL d   1     -41.354-123.586 -53.471  0.00  0.00     0.152 A 
ENDBRANCH   1   4
BRANCH   2  14
ATOM     14  C   UNL d   1     -41.795-122.715 -50.768  0.00  0.00     0.085 A 
ATOM     15  C   UNL d   1     -41.140-122.485 -50.309  0.00  0.00     0.021 A 
ATOM     16  C   UNL d   1     -41.142-122.586 -49.508  0.00  0.00     0.021 A 
ATOM     17  C   UNL d   1     -41.773-122.909 -49.136  0.00  0.00     0.088 A 
ATOM     18  C   UNL d   1     -42.430-123.142 -49.579  0.00  0.00     0.050 A 
ATOM     19  N   UNL d   1     -41.966-123.092 -48.355  0.00  0.00    -0.239 NA
ATOM     20  C   UNL d   1     -42.453-123.050 -50.399  0.00  0.00     0.027 A 
ATOM     21  S   UNL d   1     -43.006-123.461 -49.053  0.00  0.00    -0.066 SA
ATOM     22  C   UNL d   1     -42.671-123.408 -48.303  0.00  0.00     0.111 A 
ATOM     23  C   UNL d   1     -43.058-123.665 -47.607  0.00  0.00     0.028 C 
ENDBRANCH   2  14
TORSDOF 2
ENDMDL
MODEL 2
REMARK VINA RESULT:      -5.9      1.699      5.166
REMARK  2 active torsions:
REMARK  status: ('A' for Active; 'I' for Inactive)
REMARK    1  A    between atoms: C_2  and  C_5 
REMARK       I    between atoms: C_5  and  N_9 
REMARK    2  A    between atoms: N_9  and  C_15 
ROOT
ATOM      1  C   UNL d   1     -41.893-123.329 -51.359  0.00  0.00     0.304 C 
ATOM      2  N   UNL d   1     -41.381-122.934 -51.865  0.00  0.00    -0.206 NA
ATOM      3  O   UNL d   1     -42.469-123.817 -51.661  0.00  0.00    -0.263 OA
ENDROOT
BRANCH   1   4
ATOM      4  C   UNL d   1     -41.832-123.237 -50.547  0.00  0.00     0.182 A 
ATOM      5  O   UNL d   1     -42.410-123.559 -50.068  0.00  0.00    -0.298 OA
ATOM      6  C   UNL d   1     -42.351-123.467 -49.245  0.00  0.00     0.123 A 
ATOM      7  C   UNL d   1     -42.931-123.789 -48.755  0.00  0.00     0.027 A 
ATOM      8  C   UNL d   1     -41.722-123.061 -48.929  0.00  0.00     0.123 A 
ATOM      9  C   UNL d   1     -42.865-123.695 -47.942  0.00  0.00     0.002 A 
ATOM     10  C   UNL d   1     -42.245-123.293 -47.618  0.00  0.00     0.002 A 
ATOM     11  C   UNL d   1     -41.665-122.971 -48.109  0.00  0.00     0.027 A 
ATOM     12  O   UNL d   1     -41.143-122.739 -49.420  0.00  0.00    -0.301 OA
ATOM     13  C   UNL d   1     -41.209-122.834 -50.226  0.00  0.00     0.152 A 
ENDBRANCH   1   4
BRANCH   2  14
ATOM     14  C   UNL d   1     -41.398-122.990 -52.694  0.00  0.00     0.085 A 
ATOM     15  C   UNL d   1     -41.123-123.639 -53.135  0.00  0.00     0.021 A 
ATOM     16  C   UNL d   1     -41.166-123.637 -53.942  0.00  0.00     0.021 A 
ATOM     17  C   UNL d   1     -41.474-123.012 -54.335  0.00  0.00     0.088 A 
ATOM     18  C   UNL d   1     -41.751-122.361 -53.909  0.00  0.00     0.050 A 
ATOM     19  N   UNL d   1     -41.603-122.821 -55.127  0.00  0.00    -0.239 NA
ATOM     20  C   UNL d   1     -41.719-122.338 -53.084  0.00  0.00     0.027 A 
ATOM     21  S   UNL d   1     -42.042-121.790 -54.456  0.00  0.00    -0.066 SA
ATOM     22  C   UNL d   1     -41.929-122.121 -55.201  0.00  0.00     0.111 A 
ATOM     23  C   UNL d   1     -42.142-121.738 -55.913  0.00  0.00     0.028 C 
ENDBRANCH   2  14
TORSDOF 2
ENDMDL
MODEL 3
REMARK VINA RESULT:      -5.0      0.752      1.093
REMARK  2 active torsions:
REMARK  status: ('A' for Active; 'I' for Inactive)
REMARK    1  A    between atoms: C_2  and  C_5 
REMARK       I    between atoms: C_5  and  N_9 
REMARK    2  A    between atoms: N_9  and  C_15 
ROOT
ATOM      1  C   UNL d   1     -41.514-122.921 -51.969  0.00  0.00     0.304 C 
ATOM      2  N   UNL d   1     -41.769-122.565 -51.275  0.00  0.00    -0.206 NA
ATOM      3  O   UNL d   1     -41.131-123.638 -51.944  0.00  0.00    -0.263 OA
ENDROOT
BRANCH   1   4
ATOM      4  C   UNL d   1     -41.643-122.562 -52.694  0.00  0.00     0.182 A 
ATOM      5  O   UNL d   1     -41.672-123.026 -53.365  0.00  0.00    -0.298 OA
ATOM      6  C   UNL d   1     -41.802-122.665 -54.102  0.00  0.00     0.123 A 
ATOM      7  C   UNL d   1     -41.833-123.127 -54.785  0.00  0.00     0.027 A 
ATOM      8  C   UNL d   1     -41.897-121.859 -54.144  0.00  0.00     0.123 A 
ATOM      9  C   UNL d   1     -41.962-122.762 -55.509  0.00  0.00     0.002 A 
ATOM     10  C   UNL d   1     -42.058-121.963 -55.561  0.00  0.00     0.002 A 
ATOM     11  C   UNL d   1     -42.026-121.501 -54.878  0.00  0.00     0.027 A 
ATOM     12  O   UNL d   1     -41.866-121.398 -53.461  0.00  0.00    -0.301 OA
ATOM     13  C   UNL d   1     -41.738-121.761 -52.743  0.00  0.00     0.152 A 
ENDBRANCH   1   4
BRANCH   2  14
ATOM     14  C   UNL d   1     -41.665-122.884 -50.514  0.00  0.00     0.085 A 
ATOM     15  C   UNL d   1     -41.203-123.552 -50.334  0.00  0.00     0.021 A 
ATOM     16  C   UNL d   1     -41.140-123.817 -49.573  0.00  0.00     0.021 A 
ATOM     17  C   UNL d   1     -41.520-123.444 -48.976  0.00  0.00     0.088 A 
ATOM     18  C   UNL d   1     -41.982-122.780 -49.141  0.00  0.00     0.050 A 
ATOM     19  N   UNL d   1     -41.583-123.552 -48.161  0.00  0.00    -0.239 NA
ATOM     20  C   UNL d   1     -42.064-122.489 -49.910  0.00  0.00     0.027 A 
ATOM     21  S   UNL d   1     -42.315-122.501 -48.418  0.00  0.00    -0.066 SA
ATOM     22  C   UNL d   1     -42.037-123.013 -47.837  0.00  0.00     0.111 A 
ATOM     23  C   UNL d   1     -42.233-122.940 -47.027  0.00  0.00     0.028 C 
ENDBRANCH   2  14
TORSDOF 2
ENDMDL
