MODEL 1
REMARK VINA RESULT:      39.1      0.000      0.000
REMARK  7 active torsions:
REMARK  status: ('A' for Active; 'I' for Inactive)
REMARK    1  A    between atoms: C_13  and  N_1 
REMARK    2  A    between atoms: C_2  and  N_6 
REMARK    3  A    between atoms: C_9  and  C_5 
REMARK       I    between atoms: N_6  and  C_9 
REMARK    4  A    between atoms: S_14  and  C_7 
REMARK    5  A    between atoms: C_21  and  S_14 
REMARK    6  A    between atoms: C_15  and  C_21 
REMARK    7  A    between atoms: O_25  and  C_15 
ROOT
ATOM      1  N   UNL d   1     -55.667-102.486 -41.213  0.00  0.00    -0.181 NA
ATOM      2  C   UNL d   1     -55.305-101.832 -41.436  0.00  0.00     0.283 C 
ATOM      3  O   UNL d   1     -55.089-101.308 -40.903  0.00  0.00    -0.265 OA
ENDROOT
BRANCH   2   4
ATOM      4  C   UNL d   1     -55.162-101.706 -42.187  0.00  0.00     0.080 A 
ATOM      5  C   UNL d   1     -55.149-101.018 -42.544  0.00  0.00     0.088 A 
ATOM      6  N   UNL d   1     -54.984-101.140 -43.295  0.00  0.00    -0.273 N 
ATOM      7  C   UNL d   1     -54.895-101.900 -43.399  0.00  0.00     0.265 A 
ATOM      8  C   UNL d   1     -55.005-102.257 -42.713  0.00  0.00     0.067 A 
ATOM      9  O   UNL d   1     -54.724-102.255 -44.075  0.00  0.00    -0.267 OA
BRANCH   6  10
ATOM     10  C   UNL d   1     -54.915-100.546 -43.884  0.00  0.00     0.067 A 
ATOM     11  C   UNL d   1     -54.805-100.768 -44.680  0.00  0.00     0.020 A 
ATOM     12  C   UNL d   1     -54.738-100.169 -45.260  0.00  0.00     0.031 A 
ATOM     13  C   UNL d   1     -54.780 -99.370 -45.052  0.00  0.00     0.140 A 
ATOM     14  C   UNL d   1     -54.891 -99.153 -44.249  0.00  0.00     0.031 A 
ATOM     15  F   UNL d   1     -54.711 -98.768 -45.639  0.00  0.00    -0.204 F 
ATOM     16  C   UNL d   1     -54.958 -99.736 -43.672  0.00  0.00     0.020 A 
ENDBRANCH   6  10
ENDBRANCH   2   4
BRANCH   1  17
ATOM     17  C   UNL d   1     -55.812-102.616 -40.462  0.00  0.00     0.219 A 
ATOM     18  S   UNL d   1     -55.292-102.598 -39.883  0.00  0.00    -0.019 SA
ATOM     19  C   UNL d   1     -55.660-102.757 -39.225  0.00  0.00     0.165 A 
ATOM     20  N   UNL d   1     -56.414-102.877 -39.380  0.00  0.00    -0.133 NA
ATOM     21  N   UNL d   1     -56.509-102.788 -40.159  0.00  0.00    -0.120 NA
BRANCH  19  22
ATOM     22  S   UNL d   1     -54.713-102.775 -37.796  0.00  0.00    -0.053 SA
BRANCH  22  23
ATOM     23  C   UNL d   1     -54.845-102.206 -37.200  0.00  0.00     0.106 C 
BRANCH  23  24
ATOM     24  C   UNL d   1     -55.213-102.430 -36.473  0.00  0.00     0.303 C 
ATOM     25  O   UNL d   1     -55.991-102.734 -36.468  0.00  0.00    -0.259 OA
BRANCH  24  26
ATOM     26  O   UNL d   1     -54.778-102.340 -35.755  0.00  0.00    -0.295 OA
ATOM     27  C   UNL d   1     -54.713-101.579 -35.421  0.00  0.00     0.185 C 
ENDBRANCH  24  26
ENDBRANCH  23  24
ENDBRANCH  22  23
ENDBRANCH  19  22
ENDBRANCH   1  17
TORSDOF 7
ENDMDL
