MODEL 1
REMARK VINA RESULT:      73.4      0.000      0.000
REMARK  9 active torsions:
REMARK  status: ('A' for Active; 'I' for Inactive)
REMARK    1  A    between atoms: N_3  and  C_1 
REMARK       I    between atoms: C_5  and  N_3 
REMARK    2  A    between atoms: C_9  and  N_3 
REMARK    3  A    between atoms: C_8  and  C_5 
REMARK    4  A    between atoms: C_16  and  C_9 
REMARK    5  A    between atoms: O_18  and  C_12 
REMARK    6  A    between atoms: N_17  and  C_16 
REMARK    7  A    between atoms: C_22  and  N_17 
REMARK    8  A    between atoms: C_23  and  N_17 
REMARK    9  A    between atoms: C_24  and  O_18 
ROOT
ATOM      1  N   UNL d   1     -52.551  25.056  35.225  0.00  0.00    -0.250 N 
ATOM      2  C   UNL d   1     -53.015  24.378  35.223  0.00  0.00     0.289 C 
ATOM      3  O   UNL d   1     -53.279  24.057  35.919  0.00  0.00    -0.264 OA
ENDROOT
BRANCH   1   4
ATOM      4  C   UNL d   1     -52.356  25.410  35.949  0.00  0.00     0.182 A 
ATOM      5  N   UNL d   1     -52.605  25.138  36.709  0.00  0.00    -0.220 NA
ATOM      6  C   UNL d   1     -52.277  25.665  37.294  0.00  0.00     0.112 A 
ATOM      7  C   UNL d   1     -52.330  25.679  38.125  0.00  0.00     0.118 A 
ATOM      8  C   UNL d   1     -51.832  26.250  36.889  0.00  0.00     0.052 A 
ATOM      9  C   UNL d   1     -51.942  26.274  38.562  0.00  0.00     0.026 A 
ATOM     10  C   UNL d   1     -51.495  26.863  38.162  0.00  0.00     0.003 A 
ATOM     11  C   UNL d   1     -51.448  26.839  37.318  0.00  0.00     0.008 A 
ATOM     12  S   UNL d   1     -51.875  26.101  36.055  0.00  0.00    -0.048 SA
BRANCH   7  13
ATOM     13  O   UNL d   1     -52.778  25.088  38.529  0.00  0.00    -0.304 OA
BRANCH  13  14
ATOM     14  C   UNL d   1     -52.565  24.859  39.311  0.00  0.00     0.123 C 
ATOM     15  C   UNL d   1     -52.851  24.480  39.649  0.00  0.00     0.029 C 
ENDBRANCH  13  14
ENDBRANCH   7  13
ENDBRANCH   1   4
BRANCH   1  16
ATOM     16  C   UNL d   1     -52.285  25.381  34.521  0.00  0.00     0.104 C 
BRANCH  16  17
ATOM     17  C   UNL d   1     -51.512  25.667  34.467  0.00  0.00     0.100 C 
BRANCH  17  18
ATOM     18  N   UNL d   1     -51.219  25.914  33.744  0.00  0.00    -0.301 N 
BRANCH  18  19
ATOM     19  C   UNL d   1     -51.433  26.652  33.445  0.00  0.00     0.080 C 
ATOM     20  C   UNL d   1     -50.857  27.220  33.311  0.00  0.00     0.021 C 
ENDBRANCH  18  19
BRANCH  18  21
ATOM     21  C   UNL d   1     -50.714  25.429  33.319  0.00  0.00     0.080 C 
ATOM     22  C   UNL d   1     -49.932  25.357  33.547  0.00  0.00     0.021 C 
ENDBRANCH  18  21
ENDBRANCH  17  18
ENDBRANCH  16  17
ENDBRANCH   1  16
BRANCH   2  23
ATOM     23  C   UNL d   1     -53.206  24.030  34.503  0.00  0.00     0.156 A 
ATOM     24  O   UNL d   1     -53.743  24.309  33.954  0.00  0.00    -0.300 OA
ATOM     25  C   UNL d   1     -53.754  23.780  33.317  0.00  0.00     0.123 A 
ATOM     26  C   UNL d   1     -53.228  23.188  33.480  0.00  0.00     0.029 A 
ATOM     27  C   UNL d   1     -52.877  23.321  34.208  0.00  0.00     0.032 A 
ENDBRANCH   2  23
TORSDOF 9
ENDMDL
MODEL 2
REMARK VINA RESULT:      75.8      2.682      4.361
REMARK  9 active torsions:
REMARK  status: ('A' for Active; 'I' for Inactive)
REMARK    1  A    between atoms: N_3  and  C_1 
REMARK       I    between atoms: C_5  and  N_3 
REMARK    2  A    between atoms: C_9  and  N_3 
REMARK    3  A    between atoms: C_8  and  C_5 
REMARK    4  A    between atoms: C_16  and  C_9 
REMARK    5  A    between atoms: O_18  and  C_12 
REMARK    6  A    between atoms: N_17  and  C_16 
REMARK    7  A    between atoms: C_22  and  N_17 
REMARK    8  A    between atoms: C_23  and  N_17 
REMARK    9  A    between atoms: C_24  and  O_18 
ROOT
ATOM      1  N   UNL d   1     -50.351  25.854  33.572  0.00  0.00    -0.250 N 
ATOM      2  C   UNL d   1     -49.735  25.311  33.532  0.00  0.00     0.289 C 
ATOM      3  O   UNL d   1     -48.963  25.561  33.549  0.00  0.00    -0.264 OA
ENDROOT
BRANCH   1   4
ATOM      4  C   UNL d   1     -50.174  26.661  33.630  0.00  0.00     0.182 A 
ATOM      5  N   UNL d   1     -49.491  26.987  34.008  0.00  0.00    -0.220 NA
ATOM      6  C   UNL d   1     -49.535  27.836  33.937  0.00  0.00     0.112 A 
ATOM      7  C   UNL d   1     -49.029  28.444  34.196  0.00  0.00     0.118 A 
ATOM      8  C   UNL d   1     -50.239  28.021  33.519  0.00  0.00     0.052 A 
ATOM      9  C   UNL d   1     -49.217  29.243  34.044  0.00  0.00     0.026 A 
ATOM     10  C   UNL d   1     -49.921  29.434  33.627  0.00  0.00     0.003 A 
ATOM     11  C   UNL d   1     -50.427  28.808  33.368  0.00  0.00     0.008 A 
ATOM     12  S   UNL d   1     -50.642  27.300  33.325  0.00  0.00    -0.048 SA
BRANCH   7  13
ATOM     13  O   UNL d   1     -48.321  28.254  34.616  0.00  0.00    -0.304 OA
BRANCH  13  14
ATOM     14  C   UNL d   1     -47.979  28.817  35.140  0.00  0.00     0.123 C 
ATOM     15  C   UNL d   1     -47.420  28.837  35.308  0.00  0.00     0.029 C 
ENDBRANCH  13  14
ENDBRANCH   7  13
ENDBRANCH   1   4
BRANCH   1  16
ATOM     16  C   UNL d   1     -51.131  25.601  33.554  0.00  0.00     0.104 C 
BRANCH  16  17
ATOM     17  C   UNL d   1     -51.638  25.796  34.175  0.00  0.00     0.100 C 
BRANCH  17  18
ATOM     18  N   UNL d   1     -52.420  25.550  34.154  0.00  0.00    -0.301 N 
BRANCH  18  19
ATOM     19  C   UNL d   1     -52.845  25.598  33.448  0.00  0.00     0.080 C 
ATOM     20  C   UNL d   1     -53.406  26.188  33.350  0.00  0.00     0.021 C 
ENDBRANCH  18  19
BRANCH  18  21
ATOM     21  C   UNL d   1     -52.776  25.259  34.830  0.00  0.00     0.080 C 
ATOM     22  C   UNL d   1     -52.762  25.699  35.520  0.00  0.00     0.021 C 
ENDBRANCH  18  21
ENDBRANCH  17  18
ENDBRANCH  16  17
ENDBRANCH   1  16
BRANCH   2  23
ATOM     23  C   UNL d   1     -49.914  24.511  33.473  0.00  0.00     0.156 A 
ATOM     24  O   UNL d   1     -49.392  23.905  33.310  0.00  0.00    -0.300 OA
ATOM     25  C   UNL d   1     -49.819  23.195  33.307  0.00  0.00     0.123 A 
ATOM     26  C   UNL d   1     -50.591  23.371  33.467  0.00  0.00     0.029 A 
ATOM     27  C   UNL d   1     -50.675  24.179  33.574  0.00  0.00     0.032 A 
ENDBRANCH   2  23
TORSDOF 9
ENDMDL
