MODEL 1
REMARK VINA RESULT:      41.6      0.000      0.000
REMARK  1 active torsions:
REMARK  status: ('A' for Active; 'I' for Inactive)
REMARK    1  A    between atoms: C_7  and  C_1 
ROOT
ATOM      1  C   UNL d   1      46.168 -16.681  43.541  0.00  0.00     0.062 A 
ATOM      2  C   UNL d   1      46.117 -17.362  43.997  0.00  0.00     0.202 A 
ATOM      3  C   UNL d   1      46.208 -18.105  43.674  0.00  0.00     0.101 A 
ATOM      4  C   UNL d   1      46.318 -16.753  42.722  0.00  0.00     0.103 A 
ATOM      5  C   UNL d   1      46.358 -18.177  42.854  0.00  0.00     0.109 A 
ATOM      6  O   UNL d   1      46.413 -17.505  42.379  0.00  0.00    -0.307 OA
ATOM      7  C   UNL d   1      46.156 -18.763  44.127  0.00  0.00     0.204 A 
ATOM      8  C   UNL d   1      46.453 -18.905  42.509  0.00  0.00     0.067 A 
ATOM      9  C   UNL d   1      46.248 -19.508  43.804  0.00  0.00     0.084 A 
ATOM     10  O   UNL d   1      45.968 -17.291  44.811  0.00  0.00    -0.286 OA
ATOM     11  C   UNL d   1      46.398 -19.581  42.985  0.00  0.00     0.201 A 
ATOM     12  O   UNL d   1      46.007 -18.691  44.941  0.00  0.00    -0.286 OA
ATOM     13  C   UNL d   1      46.373 -16.076  42.246  0.00  0.00     0.027 C 
ATOM     14  O   UNL d   1      46.493 -20.325  42.641  0.00  0.00    -0.286 OA
ENDROOT
BRANCH   1  15
ATOM     15  C   UNL d   1      46.073 -15.932  43.883  0.00  0.00     0.007 A 
ATOM     16  C   UNL d   1      45.425 -15.490  43.681  0.00  0.00     0.027 A 
ATOM     17  C   UNL d   1      45.332 -14.745  44.023  0.00  0.00     0.123 A 
ATOM     18  O   UNL d   1      44.649 -14.389  43.749  0.00  0.00    -0.303 OA
ATOM     19  C   UNL d   1      45.881 -14.465  44.550  0.00  0.00     0.123 A 
ATOM     20  C   UNL d   1      44.349 -13.659  43.941  0.00  0.00     0.125 A 
ATOM     21  C   UNL d   1      44.660 -13.099  44.458  0.00  0.00     0.053 A 
ATOM     22  C   UNL d   1      45.356 -13.144  44.910  0.00  0.00     0.125 A 
ATOM     23  O   UNL d   1      45.898 -13.752  44.949  0.00  0.00    -0.303 OA
ATOM     24  C   UNL d   1      46.538 -14.921  44.751  0.00  0.00     0.027 A 
ATOM     25  C   UNL d   1      46.633 -15.670  44.408  0.00  0.00     0.002 A 
ENDBRANCH   1  15
TORSDOF 1
ENDMDL
