MODEL 1
REMARK VINA RESULT:      -8.8      0.000      0.000
REMARK  7 active torsions:
REMARK  status: ('A' for Active; 'I' for Inactive)
REMARK    1  A    between atoms: N_3  and  C_2 
REMARK       I    between atoms: C_6  and  N_3 
REMARK    2  A    between atoms: C_11  and  C_4 
REMARK    3  A    between atoms: C_5  and  C_6 
REMARK    4  A    between atoms: C_15  and  C_11 
REMARK    5  A    between atoms: C_18  and  C_12 
REMARK    6  A    between atoms: O_17  and  C_18 
REMARK    7  A    between atoms: C_19  and  O_17 
ROOT
ATOM      1  C   UNL d   1      51.437  33.618  52.892  0.00  0.00     0.158 A 
ATOM      2  O   UNL d   1      50.651  33.720  53.114  0.00  0.00    -0.300 OA
ATOM      3  C   UNL d   1      51.605  34.159  52.294  0.00  0.00     0.032 A 
ATOM      4  C   UNL d   1      50.326  34.325  52.655  0.00  0.00     0.125 A 
ATOM      5  C   UNL d   1      50.918  34.596  52.148  0.00  0.00     0.029 A 
ENDROOT
BRANCH   1   6
ATOM      6  C   UNL d   1      51.969  33.069  53.211  0.00  0.00     0.304 C 
ATOM      7  N   UNL d   1      52.310  32.495  52.725  0.00  0.00    -0.180 NA
ATOM      8  O   UNL d   1      52.156  33.098  54.014  0.00  0.00    -0.263 OA
BRANCH   7   9
ATOM      9  C   UNL d   1      52.838  31.949  53.040  0.00  0.00     0.216 A 
ATOM     10  N   UNL d   1      52.785  31.113  52.976  0.00  0.00    -0.200 NA
ATOM     11  C   UNL d   1      53.417  30.797  53.366  0.00  0.00     0.175 A 
ATOM     12  N   UNL d   1      53.871  31.410  53.677  0.00  0.00    -0.187 NA
ATOM     13  S   UNL d   1      53.512  32.123  53.475  0.00  0.00     0.054 SA
BRANCH  11  14
ATOM     14  C   UNL d   1      53.588  29.994  53.445  0.00  0.00     0.082 C 
BRANCH  14  15
ATOM     15  C   UNL d   1      53.069  29.509  53.875  0.00  0.00     0.199 C 
ATOM     16  O   UNL d   1      52.353  29.272  53.547  0.00  0.00    -0.286 OA
ATOM     17  C   UNL d   1      53.275  29.262  54.639  0.00  0.00     0.045 C 
ENDBRANCH  14  15
ENDBRANCH  11  14
ENDBRANCH   7   9
ENDBRANCH   1   6
BRANCH   4  18
ATOM     18  C   UNL d   1      49.556  34.600  52.700  0.00  0.00     0.147 C 
BRANCH  18  19
ATOM     19  O   UNL d   1      49.407  35.345  53.038  0.00  0.00    -0.303 OA
BRANCH  19  20
ATOM     20  C   UNL d   1      48.644  35.653  53.035  0.00  0.00     0.100 A 
ATOM     21  C   UNL d   1      48.330  35.971  53.729  0.00  0.00     0.025 A 
ATOM     22  C   UNL d   1      47.571  36.278  53.727  0.00  0.00     0.002 A 
ATOM     23  C   UNL d   1      47.117  36.269  53.028  0.00  0.00     0.000 A 
ATOM     24  C   UNL d   1      47.437  35.950  52.338  0.00  0.00     0.002 A 
ATOM     25  C   UNL d   1      46.350  36.581  53.031  0.00  0.00     0.000 C 
ATOM     26  C   UNL d   1      48.200  35.642  52.341  0.00  0.00     0.025 A 
ENDBRANCH  19  20
ENDBRANCH  18  19
ENDBRANCH   4  18
TORSDOF 7
ENDMDL
MODEL 2
REMARK VINA RESULT:      -8.8      1.842      2.171
REMARK  7 active torsions:
REMARK  status: ('A' for Active; 'I' for Inactive)
REMARK    1  A    between atoms: N_3  and  C_2 
REMARK       I    between atoms: C_6  and  N_3 
REMARK    2  A    between atoms: C_11  and  C_4 
REMARK    3  A    between atoms: C_5  and  C_6 
REMARK    4  A    between atoms: C_15  and  C_11 
REMARK    5  A    between atoms: C_18  and  C_12 
REMARK    6  A    between atoms: O_17  and  C_18 
REMARK    7  A    between atoms: C_19  and  O_17 
ROOT
ATOM      1  C   UNL d   1      51.093  34.190  52.676  0.00  0.00     0.158 A 
ATOM      2  O   UNL d   1      50.460  34.466  53.122  0.00  0.00    -0.300 OA
ATOM      3  C   UNL d   1      50.846  34.128  51.893  0.00  0.00     0.032 A 
ATOM      4  C   UNL d   1      49.814  34.577  52.619  0.00  0.00     0.125 A 
ATOM      5  C   UNL d   1      50.056  34.367  51.858  0.00  0.00     0.029 A 
ENDROOT
BRANCH   1   6
ATOM      6  C   UNL d   1      51.850  34.005  52.961  0.00  0.00     0.304 C 
ATOM      7  N   UNL d   1      51.989  33.270  53.312  0.00  0.00    -0.180 NA
ATOM      8  O   UNL d   1      52.460  34.556  52.893  0.00  0.00    -0.263 OA
BRANCH   7   9
ATOM      9  C   UNL d   1      52.738  33.086  53.595  0.00  0.00     0.216 A 
ATOM     10  N   UNL d   1      53.040  33.269  54.358  0.00  0.00    -0.200 NA
ATOM     11  C   UNL d   1      53.794  32.986  54.399  0.00  0.00     0.175 A 
ATOM     12  N   UNL d   1      53.981  32.626  53.681  0.00  0.00    -0.187 NA
ATOM     13  S   UNL d   1      53.327  32.688  53.185  0.00  0.00     0.054 SA
BRANCH  11  14
ATOM     14  C   UNL d   1      54.302  33.042  55.046  0.00  0.00     0.082 C 
BRANCH  14  15
ATOM     15  C   UNL d   1      54.743  33.737  55.156  0.00  0.00     0.199 C 
ATOM     16  O   UNL d   1      54.403  34.395  55.511  0.00  0.00    -0.286 OA
ATOM     17  C   UNL d   1      55.533  33.766  54.904  0.00  0.00     0.045 C 
ENDBRANCH  14  15
ENDBRANCH  11  14
ENDBRANCH   7   9
ENDBRANCH   1   6
BRANCH   4  18
ATOM     18  C   UNL d   1      49.074  34.847  52.841  0.00  0.00     0.147 C 
BRANCH  18  19
ATOM     19  O   UNL d   1      48.861  35.635  52.686  0.00  0.00    -0.303 OA
BRANCH  19  20
ATOM     20  C   UNL d   1      48.105  35.902  52.870  0.00  0.00     0.100 A 
ATOM     21  C   UNL d   1      47.939  36.162  53.635  0.00  0.00     0.025 A 
ATOM     22  C   UNL d   1      47.186  36.427  53.818  0.00  0.00     0.002 A 
ATOM     23  C   UNL d   1      46.590  36.436  53.235  0.00  0.00     0.000 A 
ATOM     24  C   UNL d   1      46.764  36.175  52.471  0.00  0.00     0.002 A 
ATOM     25  C   UNL d   1      45.831  36.705  53.425  0.00  0.00     0.000 C 
ATOM     26  C   UNL d   1      47.521  35.908  52.288  0.00  0.00     0.025 A 
ENDBRANCH  19  20
ENDBRANCH  18  19
ENDBRANCH   4  18
TORSDOF 7
ENDMDL
MODEL 3
REMARK VINA RESULT:      -8.2      2.997      6.458
REMARK  7 active torsions:
REMARK  status: ('A' for Active; 'I' for Inactive)
REMARK    1  A    between atoms: N_3  and  C_2 
REMARK       I    between atoms: C_6  and  N_3 
REMARK    2  A    between atoms: C_11  and  C_4 
REMARK    3  A    between atoms: C_5  and  C_6 
REMARK    4  A    between atoms: C_15  and  C_11 
REMARK    5  A    between atoms: C_18  and  C_12 
REMARK    6  A    between atoms: O_17  and  C_18 
REMARK    7  A    between atoms: C_19  and  O_17 
ROOT
ATOM      1  C   UNL d   1      49.788  34.681  52.608  0.00  0.00     0.158 A 
ATOM      2  O   UNL d   1      50.287  34.476  53.229  0.00  0.00    -0.300 OA
ATOM      3  C   UNL d   1      50.148  34.450  51.904  0.00  0.00     0.032 A 
ATOM      4  C   UNL d   1      50.961  34.115  52.915  0.00  0.00     0.125 A 
ATOM      5  C   UNL d   1      50.872  34.100  52.094  0.00  0.00     0.029 A 
ENDROOT
BRANCH   1   6
ATOM      6  C   UNL d   1      49.051  35.056  52.675  0.00  0.00     0.304 C 
ATOM      7  N   UNL d   1      48.922  35.606  53.278  0.00  0.00    -0.180 NA
ATOM      8  O   UNL d   1      48.450  34.878  52.139  0.00  0.00    -0.263 OA
BRANCH   7   9
ATOM      9  C   UNL d   1      48.193  35.978  53.346  0.00  0.00     0.216 A 
ATOM     10  N   UNL d   1      47.674  35.937  54.005  0.00  0.00    -0.200 NA
ATOM     11  C   UNL d   1      47.025  36.384  53.835  0.00  0.00     0.175 A 
ATOM     12  N   UNL d   1      47.116  36.709  53.083  0.00  0.00    -0.187 NA
ATOM     13  S   UNL d   1      47.839  36.457  52.782  0.00  0.00     0.054 SA
BRANCH  11  14
ATOM     14  C   UNL d   1      46.372  36.503  54.325  0.00  0.00     0.082 C 
BRANCH  14  15
ATOM     15  C   UNL d   1      45.692  36.038  54.215  0.00  0.00     0.199 C 
ATOM     16  O   UNL d   1      45.662  35.270  54.506  0.00  0.00    -0.286 OA
ATOM     17  C   UNL d   1      45.041  36.353  53.809  0.00  0.00     0.045 C 
ENDBRANCH  14  15
ENDBRANCH  11  14
ENDBRANCH   7   9
ENDBRANCH   1   6
BRANCH   4  18
ATOM     18  C   UNL d   1      51.595  33.828  53.345  0.00  0.00     0.147 C 
BRANCH  18  19
ATOM     19  O   UNL d   1      52.335  34.201  53.283  0.00  0.00    -0.303 OA
BRANCH  19  20
ATOM     20  C   UNL d   1      52.952  33.978  53.780  0.00  0.00     0.100 A 
ATOM     21  C   UNL d   1      53.159  34.463  54.415  0.00  0.00     0.025 A 
ATOM     22  C   UNL d   1      53.773  34.242  54.910  0.00  0.00     0.002 A 
ATOM     23  C   UNL d   1      54.187  33.532  54.773  0.00  0.00     0.000 A 
ATOM     24  C   UNL d   1      53.975  33.052  54.136  0.00  0.00     0.002 A 
ATOM     25  C   UNL d   1      54.807  33.313  55.276  0.00  0.00     0.000 C 
ATOM     26  C   UNL d   1      53.358  33.275  53.639  0.00  0.00     0.025 A 
ENDBRANCH  19  20
ENDBRANCH  18  19
ENDBRANCH   4  18
TORSDOF 7
ENDMDL
MODEL 4
REMARK VINA RESULT:      -8.1      2.221      6.370
REMARK  7 active torsions:
REMARK  status: ('A' for Active; 'I' for Inactive)
REMARK    1  A    between atoms: N_3  and  C_2 
REMARK       I    between atoms: C_6  and  N_3 
REMARK    2  A    between atoms: C_11  and  C_4 
REMARK    3  A    between atoms: C_5  and  C_6 
REMARK    4  A    between atoms: C_15  and  C_11 
REMARK    5  A    between atoms: C_18  and  C_12 
REMARK    6  A    between atoms: O_17  and  C_18 
REMARK    7  A    between atoms: C_19  and  O_17 
ROOT
ATOM      1  C   UNL d   1      51.116  34.127  52.368  0.00  0.00     0.158 A 
ATOM      2  O   UNL d   1      51.320  33.356  52.570  0.00  0.00    -0.300 OA
ATOM      3  C   UNL d   1      51.697  34.630  52.666  0.00  0.00     0.032 A 
ATOM      4  C   UNL d   1      52.029  33.375  52.995  0.00  0.00     0.125 A 
ATOM      5  C   UNL d   1      52.260  34.165  53.052  0.00  0.00     0.029 A 
ENDROOT
BRANCH   1   6
ATOM      6  C   UNL d   1      50.445  34.360  51.941  0.00  0.00     0.304 C 
ATOM      7  N   UNL d   1      49.732  34.493  52.335  0.00  0.00    -0.180 NA
ATOM      8  O   UNL d   1      50.494  34.459  51.123  0.00  0.00    -0.263 OA
BRANCH   7   9
ATOM      9  C   UNL d   1      49.066  34.724  51.913  0.00  0.00     0.216 A 
ATOM     10  N   UNL d   1      48.532  35.338  52.124  0.00  0.00    -0.200 NA
ATOM     11  C   UNL d   1      47.962  35.375  51.555  0.00  0.00     0.175 A 
ATOM     12  N   UNL d   1      48.118  34.798  50.986  0.00  0.00    -0.187 NA
ATOM     13  S   UNL d   1      48.801  34.397  51.209  0.00  0.00     0.054 SA
BRANCH  11  14
ATOM     14  C   UNL d   1      47.324  35.897  51.536  0.00  0.00     0.082 C 
BRANCH  14  15
ATOM     15  C   UNL d   1      46.596  35.660  51.857  0.00  0.00     0.199 C 
ATOM     16  O   UNL d   1      46.117  35.127  51.454  0.00  0.00    -0.286 OA
ATOM     17  C   UNL d   1      46.351  35.964  52.589  0.00  0.00     0.045 C 
ENDBRANCH  14  15
ENDBRANCH  11  14
ENDBRANCH   7   9
ENDBRANCH   1   6
BRANCH   4  18
ATOM     18  C   UNL d   1      52.424  32.726  53.299  0.00  0.00     0.147 C 
BRANCH  18  19
ATOM     19  O   UNL d   1      52.661  32.114  52.789  0.00  0.00    -0.303 OA
BRANCH  19  20
ATOM     20  C   UNL d   1      52.892  31.386  53.096  0.00  0.00     0.100 A 
ATOM     21  C   UNL d   1      53.526  31.350  53.622  0.00  0.00     0.025 A 
ATOM     22  C   UNL d   1      53.757  30.626  53.929  0.00  0.00     0.002 A 
ATOM     23  C   UNL d   1      53.352  29.930  53.711  0.00  0.00     0.000 A 
ATOM     24  C   UNL d   1      52.718  29.975  53.185  0.00  0.00     0.002 A 
ATOM     25  C   UNL d   1      53.589  29.201  54.024  0.00  0.00     0.000 C 
ATOM     26  C   UNL d   1      52.487  30.703  52.877  0.00  0.00     0.025 A 
ENDBRANCH  19  20
ENDBRANCH  18  19
ENDBRANCH   4  18
TORSDOF 7
ENDMDL
