MODEL 1
REMARK VINA RESULT:      -1.6      0.000      0.000
REMARK  4 active torsions:
REMARK  status: ('A' for Active; 'I' for Inactive)
REMARK    1  A    between atoms: C_7  and  C_1 
REMARK    2  A    between atoms: C_8  and  C_2 
REMARK    3  A    between atoms: C_10  and  C_4 
REMARK    4  A    between atoms: O_13  and  C_7 
ROOT
ATOM      1  C   UNL d   1      30.871  16.951 -24.547  0.00  0.00     0.086 A 
ATOM      2  C   UNL d   1      31.948  17.877 -24.547  0.00  0.00     0.064 A 
ATOM      3  C   UNL d   1      31.453  18.452 -24.907  0.00  0.00     0.205 A 
ATOM      4  C   UNL d   1      31.644  17.134 -24.373  0.00  0.00     0.012 A 
ATOM      5  C   UNL d   1      30.376  17.526 -24.907  0.00  0.00     0.107 A 
ATOM      6  O   UNL d   1      30.669  18.267 -25.083  0.00  0.00    -0.288 OA
ATOM      7  N   UNL d   1      31.743  19.229 -25.097  0.00  0.00    -0.121 N 
ATOM      8  C   UNL d   1      29.553  17.346 -25.097  0.00  0.00     0.027 C 
ENDROOT
BRANCH   4   9
ATOM      9  C   UNL d   1      32.121  16.579 -24.026  0.00  0.00     0.000 A 
ATOM     10  C   UNL d   1      32.542  16.053 -24.486  0.00  0.00     0.000 A 
ATOM     11  C   UNL d   1      33.022  15.494 -24.137  0.00  0.00     0.000 A 
ATOM     12  C   UNL d   1      33.089  15.453 -23.321  0.00  0.00     0.000 A 
ATOM     13  C   UNL d   1      32.661  15.987 -22.855  0.00  0.00     0.000 A 
ATOM     14  C   UNL d   1      32.181  16.545 -23.204  0.00  0.00     0.000 A 
ENDBRANCH   4   9
BRANCH   2  15
ATOM     15  C   UNL d   1      32.736  18.073 -24.373  0.00  0.00     0.126 C 
ATOM     16  N   UNL d   1      33.061  18.779 -24.665  0.00  0.00    -0.146 N 
ENDBRANCH   2  15
BRANCH   1  17
ATOM     17  C   UNL d   1      30.546  16.190 -24.373  0.00  0.00     0.298 C 
ATOM     18  O   UNL d   1      30.605  15.585 -24.922  0.00  0.00    -0.259 OA
BRANCH  17  19
ATOM     19  O   UNL d   1      30.173  16.072 -23.646  0.00  0.00    -0.296 OA
ATOM     20  C   UNL d   1      29.516  15.562 -23.582  0.00  0.00     0.185 C 
ENDBRANCH  17  19
ENDBRANCH   1  17
TORSDOF 4
ENDMDL
MODEL 2
REMARK VINA RESULT:       0.4      0.993      2.608
REMARK  4 active torsions:
REMARK  status: ('A' for Active; 'I' for Inactive)
REMARK    1  A    between atoms: C_7  and  C_1 
REMARK    2  A    between atoms: C_8  and  C_2 
REMARK    3  A    between atoms: C_10  and  C_4 
REMARK    4  A    between atoms: O_13  and  C_7 
ROOT
ATOM      1  C   UNL d   1      31.168  16.700 -23.777  0.00  0.00     0.086 A 
ATOM      2  C   UNL d   1      31.583  17.968 -24.262  0.00  0.00     0.064 A 
ATOM      3  C   UNL d   1      32.382  17.769 -24.098  0.00  0.00     0.205 A 
ATOM      4  C   UNL d   1      30.989  17.425 -24.096  0.00  0.00     0.012 A 
ATOM      5  C   UNL d   1      31.967  16.501 -23.613  0.00  0.00     0.107 A 
ATOM      6  O   UNL d   1      32.565  17.033 -23.773  0.00  0.00    -0.288 OA
ATOM      7  N   UNL d   1      33.016  18.313 -24.260  0.00  0.00    -0.121 N 
ATOM      8  C   UNL d   1      32.172  15.733 -23.272  0.00  0.00     0.027 C 
ENDROOT
BRANCH   4   9
ATOM      9  C   UNL d   1      30.219  17.617 -24.255  0.00  0.00     0.000 A 
ATOM     10  C   UNL d   1      29.800  18.093 -23.741  0.00  0.00     0.000 A 
ATOM     11  C   UNL d   1      29.024  18.286 -23.900  0.00  0.00     0.000 A 
ATOM     12  C   UNL d   1      28.654  18.006 -24.576  0.00  0.00     0.000 A 
ATOM     13  C   UNL d   1      29.080  17.523 -25.096  0.00  0.00     0.000 A 
ATOM     14  C   UNL d   1      29.855  17.330 -24.937  0.00  0.00     0.000 A 
ENDBRANCH   4   9
BRANCH   2  15
ATOM     15  C   UNL d   1      31.411  18.712 -24.589  0.00  0.00     0.126 C 
ATOM     16  N   UNL d   1      31.980  19.316 -24.567  0.00  0.00    -0.146 N 
ENDBRANCH   2  15
BRANCH   1  17
ATOM     17  C   UNL d   1      30.567  16.133 -23.602  0.00  0.00     0.298 C 
ATOM     18  O   UNL d   1      30.290  15.634 -24.190  0.00  0.00    -0.259 OA
BRANCH  17  19
ATOM     19  O   UNL d   1      30.267  16.093 -22.833  0.00  0.00    -0.296 OA
ATOM     20  C   UNL d   1      29.788  15.453 -22.595  0.00  0.00     0.185 C 
ENDBRANCH  17  19
ENDBRANCH   1  17
TORSDOF 4
ENDMDL
MODEL 3
REMARK VINA RESULT:       0.6      1.485      2.844
REMARK  4 active torsions:
REMARK  status: ('A' for Active; 'I' for Inactive)
REMARK    1  A    between atoms: C_7  and  C_1 
REMARK    2  A    between atoms: C_8  and  C_2 
REMARK    3  A    between atoms: C_10  and  C_4 
REMARK    4  A    between atoms: O_13  and  C_7 
ROOT
ATOM      1  C   UNL d   1      30.386  17.391 -24.446  0.00  0.00     0.086 A 
ATOM      2  C   UNL d   1      31.196  16.380 -23.863  0.00  0.00     0.064 A 
ATOM      3  C   UNL d   1      31.886  16.803 -24.090  0.00  0.00     0.205 A 
ATOM      4  C   UNL d   1      30.456  16.686 -24.048  0.00  0.00     0.012 A 
ATOM      5  C   UNL d   1      31.076  17.814 -24.672  0.00  0.00     0.107 A 
ATOM      6  O   UNL d   1      31.816  17.518 -24.494  0.00  0.00    -0.288 OA
ATOM      7  N   UNL d   1      32.664  16.509 -23.911  0.00  0.00    -0.121 N 
ATOM      8  C   UNL d   1      31.017  18.564 -25.096  0.00  0.00     0.027 C 
ENDROOT
BRANCH   4   9
ATOM      9  C   UNL d   1      29.791  16.279 -23.829  0.00  0.00     0.000 A 
ATOM     10  C   UNL d   1      29.554  16.268 -23.048  0.00  0.00     0.000 A 
ATOM     11  C   UNL d   1      28.885  15.858 -22.829  0.00  0.00     0.000 A 
ATOM     12  C   UNL d   1      28.441  15.453 -23.386  0.00  0.00     0.000 A 
ATOM     13  C   UNL d   1      28.682  15.465 -24.178  0.00  0.00     0.000 A 
ATOM     14  C   UNL d   1      29.352  15.874 -24.398  0.00  0.00     0.000 A 
ENDBRANCH   4   9
BRANCH   2  15
ATOM     15  C   UNL d   1      31.278  15.661 -23.457  0.00  0.00     0.126 C 
ATOM     16  N   UNL d   1      31.985  15.490 -23.055  0.00  0.00    -0.146 N 
ENDBRANCH   2  15
BRANCH   1  17
ATOM     17  C   UNL d   1      29.631  17.716 -24.641  0.00  0.00     0.298 C 
ATOM     18  O   UNL d   1      29.105  17.285 -25.097  0.00  0.00    -0.259 OA
BRANCH  17  19
ATOM     19  O   UNL d   1      29.438  18.470 -24.365  0.00  0.00    -0.296 OA
ATOM     20  C   UNL d   1      28.877  18.940 -24.766  0.00  0.00     0.185 C 
ENDBRANCH  17  19
ENDBRANCH   1  17
TORSDOF 4
ENDMDL
MODEL 4
REMARK VINA RESULT:       1.3      5.236      6.328
REMARK  4 active torsions:
REMARK  status: ('A' for Active; 'I' for Inactive)
REMARK    1  A    between atoms: C_7  and  C_1 
REMARK    2  A    between atoms: C_8  and  C_2 
REMARK    3  A    between atoms: C_10  and  C_4 
REMARK    4  A    between atoms: O_13  and  C_7 
ROOT
ATOM      1  C   UNL d   1      32.821  21.344 -21.591  0.00  0.00     0.086 A 
ATOM      2  C   UNL d   1      32.914  22.475 -22.444  0.00  0.00     0.064 A 
ATOM      3  C   UNL d   1      33.052  21.969 -23.100  0.00  0.00     0.205 A 
ATOM      4  C   UNL d   1      32.801  22.149 -21.698  0.00  0.00     0.012 A 
ATOM      5  C   UNL d   1      32.959  20.838 -22.247  0.00  0.00     0.107 A 
ATOM      6  O   UNL d   1      33.072  21.152 -22.991  0.00  0.00    -0.288 OA
ATOM      7  N   UNL d   1      33.172  22.281 -23.882  0.00  0.00    -0.121 N 
ATOM      8  C   UNL d   1      32.983  19.980 -22.147  0.00  0.00     0.027 C 
ENDROOT
BRANCH   4   9
ATOM      9  C   UNL d   1      32.669  22.637 -21.066  0.00  0.00     0.000 A 
ATOM     10  C   UNL d   1      31.976  23.066 -21.016  0.00  0.00     0.000 A 
ATOM     11  C   UNL d   1      31.843  23.557 -20.379  0.00  0.00     0.000 A 
ATOM     12  C   UNL d   1      32.399  23.627 -19.781  0.00  0.00     0.000 A 
ATOM     13  C   UNL d   1      33.102  23.191 -19.833  0.00  0.00     0.000 A 
ATOM     14  C   UNL d   1      33.235  22.700 -20.470  0.00  0.00     0.000 A 
ENDBRANCH   4   9
BRANCH   2  15
ATOM     15  C   UNL d   1      32.895  23.297 -22.564  0.00  0.00     0.126 C 
ATOM     16  N   UNL d   1      33.238  23.624 -23.246  0.00  0.00    -0.146 N 
ENDBRANCH   2  15
BRANCH   1  17
ATOM     17  C   UNL d   1      32.707  20.996 -20.829  0.00  0.00     0.298 C 
ATOM     18  O   UNL d   1      32.079  21.235 -20.360  0.00  0.00    -0.259 OA
BRANCH  17  19
ATOM     19  O   UNL d   1      33.235  20.416 -20.572  0.00  0.00    -0.296 OA
ATOM     20  C   UNL d   1      32.993  19.829 -20.031  0.00  0.00     0.185 C 
ENDBRANCH  17  19
ENDBRANCH   1  17
TORSDOF 4
ENDMDL
