MODEL 1
REMARK VINA RESULT:      -8.6      0.000      0.000
REMARK  7 active torsions:
REMARK  status: ('A' for Active; 'I' for Inactive)
REMARK    1  A    between atoms: C_11  and  C_3 
REMARK    2  A    between atoms: N_12  and  C_7 
REMARK       I    between atoms: C_9  and  N_15 
REMARK    3  A    between atoms: C_14  and  C_9 
REMARK    4  A    between atoms: C_16  and  C_11 
REMARK    5  A    between atoms: C_17  and  N_12 
REMARK    6  A    between atoms: N_15  and  C_16 
REMARK    7  A    between atoms: C_19  and  C_17 
ROOT
ATOM      1  N   UNL d   1      50.903  34.573  52.729  0.00  0.00    -0.190 N 
ATOM      2  C   UNL d   1      50.744  34.330  51.954  0.00  0.00     0.187 A 
ATOM      3  C   UNL d   1      51.720  34.477  52.873  0.00  0.00     0.188 A 
ATOM      4  N   UNL d   1      50.277  34.853  53.204  0.00  0.00    -0.143 NA
ATOM      5  N   UNL d   1      51.468  34.082  51.621  0.00  0.00    -0.127 NA
ATOM      6  N   UNL d   1      52.054  34.178  52.192  0.00  0.00    -0.127 NA
ATOM      7  C   UNL d   1      49.509  34.885  52.904  0.00  0.00     0.182 A 
ATOM      8  C   UNL d   1      49.976  34.362  51.654  0.00  0.00     0.044 A 
ATOM      9  C   UNL d   1      49.360  34.638  52.126  0.00  0.00     0.044 A 
ENDROOT
BRANCH   3  10
ATOM     10  C   UNL d   1      52.120  34.652  53.575  0.00  0.00     0.061 C 
BRANCH  10  11
ATOM     11  C   UNL d   1      52.814  34.255  53.764  0.00  0.00     0.105 C 
BRANCH  11  12
ATOM     12  N   UNL d   1      53.336  34.589  54.310  0.00  0.00    -0.206 NA
ATOM     13  C   UNL d   1      53.953  34.128  54.620  0.00  0.00     0.279 C 
ATOM     14  O   UNL d   1      54.475  34.467  55.168  0.00  0.00    -0.265 OA
BRANCH  13  15
ATOM     15  C   UNL d   1      54.039  33.347  54.382  0.00  0.00     0.058 A 
ATOM     16  C   UNL d   1      54.485  33.156  53.706  0.00  0.00     0.005 A 
ATOM     17  C   UNL d   1      54.563  32.377  53.481  0.00  0.00     0.000 A 
ATOM     18  C   UNL d   1      54.205  31.785  53.917  0.00  0.00     0.000 A 
ATOM     19  C   UNL d   1      53.767  31.957  54.580  0.00  0.00     0.000 A 
ATOM     20  C   UNL d   1      53.679  32.744  54.821  0.00  0.00     0.005 A 
ENDBRANCH  13  15
ENDBRANCH  11  12
ENDBRANCH  10  11
ENDBRANCH   3  10
BRANCH   7  21
ATOM     21  N   UNL d   1      48.881  35.162  53.371  0.00  0.00    -0.224 NA
BRANCH  21  22
ATOM     22  C   UNL d   1      48.412  35.777  53.080  0.00  0.00     0.101 C 
BRANCH  22  23
ATOM     23  C   UNL d   1      47.729  36.010  53.479  0.00  0.00     0.019 A 
ATOM     24  C   UNL d   1      47.775  36.257  54.273  0.00  0.00     0.002 A 
ATOM     25  C   UNL d   1      47.085  36.488  54.662  0.00  0.00     0.011 A 
ATOM     26  C   UNL d   1      46.357  36.476  54.278  0.00  0.00     0.058 A 
ATOM     27  C   UNL d   1      46.312  36.228  53.484  0.00  0.00     0.011 A 
ATOM     28 CL   UNL d   1      45.667  36.706  54.667  0.00  0.00    -0.082 Cl
ATOM     29  C   UNL d   1      46.999  35.997  53.091  0.00  0.00     0.002 A 
ENDBRANCH  22  23
ENDBRANCH  21  22
ENDBRANCH   7  21
TORSDOF 7
ENDMDL
MODEL 2
REMARK VINA RESULT:      -8.2      2.240      3.842
REMARK  7 active torsions:
REMARK  status: ('A' for Active; 'I' for Inactive)
REMARK    1  A    between atoms: C_11  and  C_3 
REMARK    2  A    between atoms: N_12  and  C_7 
REMARK       I    between atoms: C_9  and  N_15 
REMARK    3  A    between atoms: C_14  and  C_9 
REMARK    4  A    between atoms: C_16  and  C_11 
REMARK    5  A    between atoms: C_17  and  N_12 
REMARK    6  A    between atoms: N_15  and  C_16 
REMARK    7  A    between atoms: C_19  and  C_17 
ROOT
ATOM      1  N   UNL d   1      53.404  33.155  53.898  0.00  0.00    -0.190 N 
ATOM      2  C   UNL d   1      53.663  33.615  54.535  0.00  0.00     0.187 A 
ATOM      3  C   UNL d   1      53.868  32.462  53.867  0.00  0.00     0.188 A 
ATOM      4  N   UNL d   1      52.773  33.432  53.427  0.00  0.00    -0.143 NA
ATOM      5  N   UNL d   1      54.291  33.201  54.897  0.00  0.00    -0.127 NA
ATOM      6  N   UNL d   1      54.405  32.500  54.480  0.00  0.00    -0.127 NA
ATOM      7  C   UNL d   1      52.414  34.155  53.596  0.00  0.00     0.182 A 
ATOM      8  C   UNL d   1      53.305  34.339  54.704  0.00  0.00     0.044 A 
ATOM      9  C   UNL d   1      52.682  34.609  54.237  0.00  0.00     0.044 A 
ENDROOT
BRANCH   3  10
ATOM     10  C   UNL d   1      53.799  31.847  53.318  0.00  0.00     0.061 C 
BRANCH  10  11
ATOM     11  C   UNL d   1      53.476  31.126  53.545  0.00  0.00     0.105 C 
BRANCH  11  12
ATOM     12  N   UNL d   1      53.014  30.702  53.007  0.00  0.00    -0.206 NA
ATOM     13  C   UNL d   1      52.797  29.921  53.183  0.00  0.00     0.279 C 
ATOM     14  O   UNL d   1      52.333  29.499  52.640  0.00  0.00    -0.265 OA
BRANCH  13  15
ATOM     15  C   UNL d   1      53.042  29.576  53.886  0.00  0.00     0.058 A 
ATOM     16  C   UNL d   1      52.608  29.689  54.587  0.00  0.00     0.005 A 
ATOM     17  C   UNL d   1      52.861  29.342  55.279  0.00  0.00     0.000 A 
ATOM     18  C   UNL d   1      53.539  28.883  55.285  0.00  0.00     0.000 A 
ATOM     19  C   UNL d   1      53.972  28.764  54.608  0.00  0.00     0.000 A 
ATOM     20  C   UNL d   1      53.727  29.112  53.897  0.00  0.00     0.005 A 
ENDBRANCH  13  15
ENDBRANCH  11  12
ENDBRANCH  10  11
ENDBRANCH   3  10
BRANCH   7  21
ATOM     21  N   UNL d   1      51.787  34.437  53.131  0.00  0.00    -0.224 NA
BRANCH  21  22
ATOM     22  C   UNL d   1      51.068  34.027  53.147  0.00  0.00     0.101 C 
BRANCH  22  23
ATOM     23  C   UNL d   1      50.433  34.275  52.682  0.00  0.00     0.019 A 
ATOM     24  C   UNL d   1      50.413  34.089  51.871  0.00  0.00     0.002 A 
ATOM     25  C   UNL d   1      49.773  34.343  51.417  0.00  0.00     0.011 A 
ATOM     26  C   UNL d   1      49.159  34.775  51.754  0.00  0.00     0.058 A 
ATOM     27  C   UNL d   1      49.179  34.961  52.565  0.00  0.00     0.011 A 
ATOM     28 CL   UNL d   1      48.519  35.029  51.299  0.00  0.00    -0.082 Cl
ATOM     29  C   UNL d   1      49.818  34.710  53.023  0.00  0.00     0.002 A 
ENDBRANCH  22  23
ENDBRANCH  21  22
ENDBRANCH   7  21
TORSDOF 7
ENDMDL
MODEL 3
REMARK VINA RESULT:      -7.9      2.580      6.437
REMARK  7 active torsions:
REMARK  status: ('A' for Active; 'I' for Inactive)
REMARK    1  A    between atoms: C_11  and  C_3 
REMARK    2  A    between atoms: N_12  and  C_7 
REMARK       I    between atoms: C_9  and  N_15 
REMARK    3  A    between atoms: C_14  and  C_9 
REMARK    4  A    between atoms: C_16  and  C_11 
REMARK    5  A    between atoms: C_17  and  N_12 
REMARK    6  A    between atoms: N_15  and  C_16 
REMARK    7  A    between atoms: C_19  and  C_17 
ROOT
ATOM      1  N   UNL d   1      48.523  35.379  52.410  0.00  0.00    -0.190 N 
ATOM      2  C   UNL d   1      48.394  35.142  51.627  0.00  0.00     0.187 A 
ATOM      3  C   UNL d   1      47.910  35.900  52.632  0.00  0.00     0.188 A 
ATOM      4  N   UNL d   1      49.188  35.085  52.818  0.00  0.00    -0.143 NA
ATOM      5  N   UNL d   1      47.697  35.521  51.368  0.00  0.00    -0.127 NA
ATOM      6  N   UNL d   1      47.412  35.980  51.990  0.00  0.00    -0.127 NA
ATOM      7  C   UNL d   1      49.709  34.565  52.446  0.00  0.00     0.182 A 
ATOM      8  C   UNL d   1      48.915  34.622  51.254  0.00  0.00     0.044 A 
ATOM      9  C   UNL d   1      49.570  34.334  51.661  0.00  0.00     0.044 A 
ENDROOT
BRANCH   3  10
ATOM     10  C   UNL d   1      47.820  36.270  53.366  0.00  0.00     0.061 C 
BRANCH  10  11
ATOM     11  C   UNL d   1      47.101  36.230  53.763  0.00  0.00     0.105 C 
BRANCH  11  12
ATOM     12  N   UNL d   1      47.058  36.482  54.548  0.00  0.00    -0.206 NA
ATOM     13  C   UNL d   1      46.330  36.454  54.946  0.00  0.00     0.279 C 
ATOM     14  O   UNL d   1      46.291  36.708  55.734  0.00  0.00    -0.265 OA
BRANCH  13  15
ATOM     15  C   UNL d   1      45.663  36.177  54.558  0.00  0.00     0.058 A 
ATOM     16  C   UNL d   1      45.468  35.368  54.574  0.00  0.00     0.005 A 
ATOM     17  C   UNL d   1      44.802  35.105  54.185  0.00  0.00     0.000 A 
ATOM     18  C   UNL d   1      44.326  35.634  53.781  0.00  0.00     0.000 A 
ATOM     19  C   UNL d   1      44.504  36.427  53.757  0.00  0.00     0.000 A 
ATOM     20  C   UNL d   1      45.178  36.708  54.148  0.00  0.00     0.005 A 
ENDBRANCH  13  15
ENDBRANCH  11  12
ENDBRANCH  10  11
ENDBRANCH   3  10
BRANCH   7  21
ATOM     21  N   UNL d   1      50.372  34.268  52.847  0.00  0.00    -0.224 NA
BRANCH  21  22
ATOM     22  C   UNL d   1      51.116  34.343  52.492  0.00  0.00     0.101 C 
BRANCH  22  23
ATOM     23  C   UNL d   1      51.799  34.126  52.899  0.00  0.00     0.019 A 
ATOM     24  C   UNL d   1      52.026  33.326  52.934  0.00  0.00     0.002 A 
ATOM     25  C   UNL d   1      52.712  33.121  53.345  0.00  0.00     0.011 A 
ATOM     26  C   UNL d   1      53.171  33.694  53.717  0.00  0.00     0.058 A 
ATOM     27  C   UNL d   1      52.943  34.495  53.682  0.00  0.00     0.011 A 
ATOM     28 CL   UNL d   1      53.857  33.490  54.128  0.00  0.00    -0.082 Cl
ATOM     29  C   UNL d   1      52.258  34.704  53.272  0.00  0.00     0.002 A 
ENDBRANCH  22  23
ENDBRANCH  21  22
ENDBRANCH   7  21
TORSDOF 7
ENDMDL
MODEL 4
REMARK VINA RESULT:      -6.7      2.874      6.411
REMARK  7 active torsions:
REMARK  status: ('A' for Active; 'I' for Inactive)
REMARK    1  A    between atoms: C_11  and  C_3 
REMARK    2  A    between atoms: N_12  and  C_7 
REMARK       I    between atoms: C_9  and  N_15 
REMARK    3  A    between atoms: C_14  and  C_9 
REMARK    4  A    between atoms: C_16  and  C_11 
REMARK    5  A    between atoms: C_17  and  N_12 
REMARK    6  A    between atoms: N_15  and  C_16 
REMARK    7  A    between atoms: C_19  and  C_17 
ROOT
ATOM      1  N   UNL d   1      51.525  33.969  52.969  0.00  0.00    -0.190 N 
ATOM      2  C   UNL d   1      52.126  34.472  53.236  0.00  0.00     0.187 A 
ATOM      3  C   UNL d   1      50.827  34.417  52.877  0.00  0.00     0.188 A 
ATOM      4  N   UNL d   1      51.697  33.162  52.845  0.00  0.00    -0.143 NA
ATOM      5  N   UNL d   1      51.794  35.234  53.308  0.00  0.00    -0.127 NA
ATOM      6  N   UNL d   1      51.001  35.186  53.086  0.00  0.00    -0.127 NA
ATOM      7  C   UNL d   1      52.456  32.871  52.987  0.00  0.00     0.182 A 
ATOM      8  C   UNL d   1      52.885  34.181  53.378  0.00  0.00     0.044 A 
ATOM      9  C   UNL d   1      53.050  33.384  53.254  0.00  0.00     0.044 A 
ENDROOT
BRANCH   3  10
ATOM     10  C   UNL d   1      50.093  34.137  52.621  0.00  0.00     0.061 C 
BRANCH  10  11
ATOM     11  C   UNL d   1      49.532  34.660  52.325  0.00  0.00     0.105 C 
BRANCH  11  12
ATOM     12  N   UNL d   1      49.137  34.476  51.624  0.00  0.00    -0.206 NA
ATOM     13  C   UNL d   1      48.408  34.836  51.459  0.00  0.00     0.279 C 
ATOM     14  O   UNL d   1      48.014  34.648  50.754  0.00  0.00    -0.265 OA
BRANCH  13  15
ATOM     15  C   UNL d   1      48.086  35.370  51.992  0.00  0.00     0.058 A 
ATOM     16  C   UNL d   1      48.111  36.188  51.841  0.00  0.00     0.005 A 
ATOM     17  C   UNL d   1      47.788  36.709  52.378  0.00  0.00     0.000 A 
ATOM     18  C   UNL d   1      47.440  36.429  53.064  0.00  0.00     0.000 A 
ATOM     19  C   UNL d   1      47.409  35.633  53.225  0.00  0.00     0.000 A 
ATOM     20  C   UNL d   1      47.733  35.092  52.688  0.00  0.00     0.005 A 
ENDBRANCH  13  15
ENDBRANCH  11  12
ENDBRANCH  10  11
ENDBRANCH   3  10
BRANCH   7  21
ATOM     21  N   UNL d   1      52.633  32.069  52.865  0.00  0.00    -0.224 NA
BRANCH  21  22
ATOM     22  C   UNL d   1      53.268  31.737  53.278  0.00  0.00     0.101 C 
BRANCH  22  23
ATOM     23  C   UNL d   1      53.256  30.942  53.498  0.00  0.00     0.019 A 
ATOM     24  C   UNL d   1      52.886  30.380  53.007  0.00  0.00     0.002 A 
ATOM     25  C   UNL d   1      52.881  29.588  53.238  0.00  0.00     0.011 A 
ATOM     26  C   UNL d   1      53.233  29.349  53.942  0.00  0.00     0.058 A 
ATOM     27  C   UNL d   1      53.603  29.912  54.433  0.00  0.00     0.011 A 
ATOM     28 CL   UNL d   1      53.228  28.557  54.173  0.00  0.00    -0.082 Cl
ATOM     29  C   UNL d   1      53.611  30.705  54.206  0.00  0.00     0.002 A 
ENDBRANCH  22  23
ENDBRANCH  21  22
ENDBRANCH   7  21
TORSDOF 7
ENDMDL
MODEL 5
REMARK VINA RESULT:      -6.6      2.871      5.832
REMARK  7 active torsions:
REMARK  status: ('A' for Active; 'I' for Inactive)
REMARK    1  A    between atoms: C_11  and  C_3 
REMARK    2  A    between atoms: N_12  and  C_7 
REMARK       I    between atoms: C_9  and  N_15 
REMARK    3  A    between atoms: C_14  and  C_9 
REMARK    4  A    between atoms: C_16  and  C_11 
REMARK    5  A    between atoms: C_17  and  N_12 
REMARK    6  A    between atoms: N_15  and  C_16 
REMARK    7  A    between atoms: C_19  and  C_17 
ROOT
ATOM      1  N   UNL d   1      53.641  34.123  54.270  0.00  0.00    -0.190 N 
ATOM      2  C   UNL d   1      53.804  34.359  55.047  0.00  0.00     0.187 A 
ATOM      3  C   UNL d   1      53.384  34.791  53.841  0.00  0.00     0.188 A 
ATOM      4  N   UNL d   1      53.749  33.324  54.058  0.00  0.00    -0.143 NA
ATOM      5  N   UNL d   1      53.647  35.177  55.094  0.00  0.00    -0.127 NA
ATOM      6  N   UNL d   1      53.391  35.427  54.351  0.00  0.00    -0.127 NA
ATOM      7  C   UNL d   1      54.015  32.777  54.615  0.00  0.00     0.182 A 
ATOM      8  C   UNL d   1      54.071  33.812  55.604  0.00  0.00     0.044 A 
ATOM      9  C   UNL d   1      54.176  33.024  55.390  0.00  0.00     0.044 A 
ENDROOT
BRANCH   3  10
ATOM     10  C   UNL d   1      53.163  34.809  53.044  0.00  0.00     0.061 C 
BRANCH  10  11
ATOM     11  C   UNL d   1      52.378  34.688  52.832  0.00  0.00     0.105 C 
BRANCH  11  12
ATOM     12  N   UNL d   1      52.186  34.581  52.036  0.00  0.00    -0.206 NA
ATOM     13  C   UNL d   1      51.418  34.342  51.830  0.00  0.00     0.279 C 
ATOM     14  O   UNL d   1      51.229  34.236  51.029  0.00  0.00    -0.265 OA
BRANCH  13  15
ATOM     15  C   UNL d   1      50.859  34.214  52.416  0.00  0.00     0.058 A 
ATOM     16  C   UNL d   1      50.790  33.471  52.783  0.00  0.00     0.005 A 
ATOM     17  C   UNL d   1      50.230  33.357  53.363  0.00  0.00     0.000 A 
ATOM     18  C   UNL d   1      49.736  33.970  53.585  0.00  0.00     0.000 A 
ATOM     19  C   UNL d   1      49.792  34.702  53.236  0.00  0.00     0.000 A 
ATOM     20  C   UNL d   1      50.357  34.833  52.644  0.00  0.00     0.005 A 
ENDBRANCH  13  15
ENDBRANCH  11  12
ENDBRANCH  10  11
ENDBRANCH   3  10
BRANCH   7  21
ATOM     21  N   UNL d   1      54.125  31.980  54.409  0.00  0.00    -0.224 NA
BRANCH  21  22
ATOM     22  C   UNL d   1      53.883  31.727  53.660  0.00  0.00     0.101 C 
BRANCH  22  23
ATOM     23  C   UNL d   1      53.537  30.985  53.559  0.00  0.00     0.019 A 
ATOM     24  C   UNL d   1      53.737  30.360  54.070  0.00  0.00     0.002 A 
ATOM     25  C   UNL d   1      53.384  29.622  53.958  0.00  0.00     0.011 A 
ATOM     26  C   UNL d   1      52.841  29.499  53.352  0.00  0.00     0.058 A 
ATOM     27  C   UNL d   1      52.641  30.126  52.841  0.00  0.00     0.011 A 
ATOM     28 CL   UNL d   1      52.488  28.762  53.241  0.00  0.00    -0.082 Cl
ATOM     29  C   UNL d   1      52.991  30.865  52.949  0.00  0.00     0.002 A 
ENDBRANCH  22  23
ENDBRANCH  21  22
ENDBRANCH   7  21
TORSDOF 7
ENDMDL
