MODEL 1
REMARK VINA RESULT:      26.3      0.000      0.000
REMARK  5 active torsions:
REMARK  status: ('A' for Active; 'I' for Inactive)
REMARK    1  A    between atoms: C_6  and  N_1 
REMARK    2  A    between atoms: O_9  and  C_6 
REMARK    3  A    between atoms: C_8  and  O_9 
REMARK    4  A    between atoms: C_12  and  C_8 
REMARK    5  A    between atoms: C_14  and  C_12 
ROOT
ATOM      1  N   UNL d   1      13.506  11.841  -2.838  0.00  0.00    -0.150 N 
ATOM      2  N   UNL d   1      12.822  11.782  -2.380  0.00  0.00    -0.055 NA
ATOM      3  C   UNL d   1      14.252  11.898  -2.482  0.00  0.00     0.285 A 
ATOM      4  N   UNL d   1      12.878  11.779  -1.562  0.00  0.00    -0.130 NA
ATOM      5  C   UNL d   1      14.292  11.894  -1.657  0.00  0.00     0.077 A 
ATOM      6  C   UNL d   1      13.609  11.835  -1.199  0.00  0.00     0.109 A 
ATOM      7  O   UNL d   1      14.929  11.956  -2.936  0.00  0.00    -0.265 OA
ATOM      8  C   UNL d   1      15.030  11.950  -1.294  0.00  0.00     0.006 A 
ATOM      9  C   UNL d   1      13.666  11.833  -0.380  0.00  0.00     0.021 A 
ATOM     10  C   UNL d   1      15.085  11.947  -0.475  0.00  0.00     0.000 A 
ATOM     11  C   UNL d   1      14.398  11.888  -0.014  0.00  0.00     0.002 A 
ENDROOT
BRANCH   1  12
ATOM     12  C   UNL d   1      13.451  11.844  -3.664  0.00  0.00     0.233 C 
BRANCH  12  13
ATOM     13  O   UNL d   1      13.364  12.556  -4.069  0.00  0.00    -0.251 OA
BRANCH  13  14
ATOM     14  C   UNL d   1      13.179  12.552  -4.871  0.00  0.00     0.302 C 
ATOM     15  O   UNL d   1      13.310  11.873  -5.321  0.00  0.00    -0.259 OA
BRANCH  14  16
ATOM     16  C   UNL d   1      12.864  13.227  -5.222  0.00  0.00     0.069 C 
BRANCH  16  17
ATOM     17  C   UNL d   1      13.118  13.918  -5.009  0.00  0.00     0.005 A 
ATOM     18  C   UNL d   1      13.726  14.294  -5.422  0.00  0.00     0.000 A 
ATOM     19  C   UNL d   1      14.001  15.043  -5.192  0.00  0.00     0.000 A 
ATOM     20  C   UNL d   1      13.659  15.421  -4.534  0.00  0.00     0.000 A 
ATOM     21  C   UNL d   1      13.049  15.051  -4.113  0.00  0.00     0.000 A 
ATOM     22  C   UNL d   1      12.770  14.297  -4.344  0.00  0.00     0.000 A 
ENDBRANCH  16  17
ENDBRANCH  14  16
ENDBRANCH  13  14
ENDBRANCH  12  13
ENDBRANCH   1  12
TORSDOF 5
ENDMDL
