MODEL 1
REMARK VINA RESULT:      -1.0      0.000      0.000
REMARK  7 active torsions:
REMARK  status: ('A' for Active; 'I' for Inactive)
REMARK    1  A    between atoms: C_10  and  N_1 
REMARK    2  A    between atoms: S_8  and  C_6 
REMARK    3  A    between atoms: C_13  and  S_8 
REMARK    4  A    between atoms: C_11  and  C_13 
REMARK    5  A    between atoms: O_18  and  C_11 
REMARK    6  A    between atoms: C_22  and  C_13 
REMARK    7  A    between atoms: C_23  and  O_18 
ROOT
ATOM      1  N   UNL d   1      28.933  16.770 -24.002  0.00  0.00    -0.193 N 
ATOM      2  N   UNL d   1      28.977  17.410 -24.510  0.00  0.00    -0.058 NA
ATOM      3  C   UNL d   1      29.705  16.515 -23.851  0.00  0.00     0.188 A 
ATOM      4  C   UNL d   1      30.215  17.007 -24.273  0.00  0.00     0.164 A 
ATOM      5  N   UNL d   1      29.749  17.558 -24.678  0.00  0.00    -0.125 NA
ATOM      6  C   UNL d   1      31.027  16.891 -24.235  0.00  0.00     0.135 A 
ATOM      7  N   UNL d   1      30.007  15.906 -23.390  0.00  0.00    -0.203 NA
ATOM      8  N   UNL d   1      31.335  16.278 -23.771  0.00  0.00    -0.216 NA
ATOM      9  C   UNL d   1      30.825  15.786 -23.349  0.00  0.00     0.201 A 
ENDROOT
BRANCH   6  10
ATOM     10  S   UNL d   1      31.538  17.384 -24.658  0.00  0.00    -0.061 SA
BRANCH  10  11
ATOM     11  C   UNL d   1      32.315  17.482 -24.412  0.00  0.00     0.094 C 
BRANCH  11  12
ATOM     12  C   UNL d   1      32.591  18.233 -24.211  0.00  0.00     0.306 C 
ATOM     13  O   UNL d   1      32.711  18.803 -24.795  0.00  0.00    -0.258 OA
BRANCH  12  14
ATOM     14  O   UNL d   1      32.748  18.413 -23.417  0.00  0.00    -0.271 OA
BRANCH  14  15
ATOM     15  C   UNL d   1      33.238  19.051 -23.228  0.00  0.00     0.126 C 
ATOM     16  C   UNL d   1      33.026  19.574 -22.637  0.00  0.00     0.029 C 
ENDBRANCH  14  15
ENDBRANCH  12  14
ENDBRANCH  11  12
BRANCH  11  17
ATOM     17  C   UNL d   1      32.817  16.828 -24.367  0.00  0.00     0.012 C 
ATOM     18  C   UNL d   1      33.240  16.588 -25.026  0.00  0.00     0.001 C 
ENDBRANCH  11  17
ENDBRANCH  10  11
ENDBRANCH   6  10
BRANCH   1  19
ATOM     19  C   UNL d   1      28.230  16.469 -23.717  0.00  0.00     0.086 A 
ATOM     20  C   UNL d   1      27.932  15.759 -24.021  0.00  0.00     0.022 A 
ATOM     21  C   UNL d   1      27.222  15.454 -23.734  0.00  0.00     0.031 A 
ATOM     22  C   UNL d   1      26.805  15.842 -23.151  0.00  0.00     0.140 A 
ATOM     23  C   UNL d   1      27.107  16.561 -22.841  0.00  0.00     0.031 A 
ATOM     24  F   UNL d   1      26.082  15.514 -22.870  0.00  0.00    -0.204 F 
ATOM     25  C   UNL d   1      27.811  16.871 -23.122  0.00  0.00     0.022 A 
ENDBRANCH   1  19
TORSDOF 7
ENDMDL
MODEL 2
REMARK VINA RESULT:      -0.4      3.782      5.388
REMARK  7 active torsions:
REMARK  status: ('A' for Active; 'I' for Inactive)
REMARK    1  A    between atoms: C_10  and  N_1 
REMARK    2  A    between atoms: S_8  and  C_6 
REMARK    3  A    between atoms: C_13  and  S_8 
REMARK    4  A    between atoms: C_11  and  C_13 
REMARK    5  A    between atoms: O_18  and  C_11 
REMARK    6  A    between atoms: C_22  and  C_13 
REMARK    7  A    between atoms: C_23  and  O_18 
ROOT
ATOM      1  N   UNL d   1      32.791  18.947 -22.927  0.00  0.00    -0.193 N 
ATOM      2  N   UNL d   1      32.778  18.902 -22.110  0.00  0.00    -0.058 NA
ATOM      3  C   UNL d   1      32.939  19.734 -23.133  0.00  0.00     0.188 A 
ATOM      4  C   UNL d   1      33.014  20.164 -22.433  0.00  0.00     0.164 A 
ATOM      5  N   UNL d   1      32.912  19.635 -21.806  0.00  0.00    -0.125 NA
ATOM      6  C   UNL d   1      33.163  20.971 -22.457  0.00  0.00     0.135 A 
ATOM      7  N   UNL d   1      33.013  20.112 -23.859  0.00  0.00    -0.203 NA
ATOM      8  N   UNL d   1      33.239  21.355 -23.187  0.00  0.00    -0.216 NA
ATOM      9  C   UNL d   1      33.164  20.926 -23.888  0.00  0.00     0.201 A 
ENDROOT
BRANCH   6  10
ATOM     10  S   UNL d   1      33.239  21.401 -21.756  0.00  0.00    -0.061 SA
BRANCH  10  11
ATOM     11  C   UNL d   1      32.990  22.183 -21.723  0.00  0.00     0.094 C 
BRANCH  11  12
ATOM     12  C   UNL d   1      32.542  22.445 -21.081  0.00  0.00     0.306 C 
ATOM     13  O   UNL d   1      31.725  22.333 -21.070  0.00  0.00    -0.258 OA
BRANCH  12  14
ATOM     14  O   UNL d   1      32.918  22.823 -20.446  0.00  0.00    -0.271 OA
BRANCH  14  15
ATOM     15  C   UNL d   1      32.468  23.140 -19.831  0.00  0.00     0.126 C 
ATOM     16  C   UNL d   1      32.834  23.444 -19.165  0.00  0.00     0.029 C 
ENDBRANCH  14  15
ENDBRANCH  12  14
ENDBRANCH  11  12
BRANCH  11  17
ATOM     17  C   UNL d   1      33.190  22.704 -22.331  0.00  0.00     0.012 C 
ATOM     18  C   UNL d   1      32.654  23.271 -22.579  0.00  0.00     0.001 C 
ENDBRANCH  11  17
ENDBRANCH  10  11
ENDBRANCH   6  10
BRANCH   1  19
ATOM     19  C   UNL d   1      32.675  18.304 -23.415  0.00  0.00     0.086 A 
ATOM     20  C   UNL d   1      33.236  17.696 -23.438  0.00  0.00     0.022 A 
ATOM     21  C   UNL d   1      33.119  17.045 -23.931  0.00  0.00     0.031 A 
ATOM     22  C   UNL d   1      32.456  16.991 -24.401  0.00  0.00     0.140 A 
ATOM     23  C   UNL d   1      31.886  17.607 -24.379  0.00  0.00     0.031 A 
ATOM     24  F   UNL d   1      32.354  16.319 -24.898  0.00  0.00    -0.204 F 
ATOM     25  C   UNL d   1      31.995  18.256 -23.891  0.00  0.00     0.022 A 
ENDBRANCH   1  19
TORSDOF 7
ENDMDL
MODEL 3
REMARK VINA RESULT:      -0.1      3.744      5.868
REMARK  7 active torsions:
REMARK  status: ('A' for Active; 'I' for Inactive)
REMARK    1  A    between atoms: C_10  and  N_1 
REMARK    2  A    between atoms: S_8  and  C_6 
REMARK    3  A    between atoms: C_13  and  S_8 
REMARK    4  A    between atoms: C_11  and  C_13 
REMARK    5  A    between atoms: O_18  and  C_11 
REMARK    6  A    between atoms: C_22  and  C_13 
REMARK    7  A    between atoms: C_23  and  O_18 
ROOT
ATOM      1  N   UNL d   1      32.886  20.865 -21.355  0.00  0.00    -0.193 N 
ATOM      2  N   UNL d   1      32.874  20.124 -21.010  0.00  0.00    -0.058 NA
ATOM      3  C   UNL d   1      33.003  20.762 -22.168  0.00  0.00     0.188 A 
ATOM      4  C   UNL d   1      33.061  19.952 -22.308  0.00  0.00     0.164 A 
ATOM      5  N   UNL d   1      32.980  19.567 -21.581  0.00  0.00    -0.125 NA
ATOM      6  C   UNL d   1      33.180  19.672 -23.072  0.00  0.00     0.135 A 
ATOM      7  N   UNL d   1      33.062  21.295 -22.790  0.00  0.00    -0.203 NA
ATOM      8  N   UNL d   1      33.241  20.206 -23.702  0.00  0.00    -0.216 NA
ATOM      9  C   UNL d   1      33.182  21.017 -23.561  0.00  0.00     0.201 A 
ENDROOT
BRANCH   6  10
ATOM     10  S   UNL d   1      33.239  18.861 -23.212  0.00  0.00    -0.061 SA
BRANCH  10  11
ATOM     11  C   UNL d   1      32.855  18.524 -23.856  0.00  0.00     0.094 C 
BRANCH  11  12
ATOM     12  C   UNL d   1      32.122  18.161 -23.753  0.00  0.00     0.306 C 
ATOM     13  O   UNL d   1      31.426  18.598 -23.832  0.00  0.00    -0.258 OA
BRANCH  12  14
ATOM     14  O   UNL d   1      32.087  17.353 -23.571  0.00  0.00    -0.271 OA
BRANCH  14  15
ATOM     15  C   UNL d   1      31.354  16.979 -23.499  0.00  0.00     0.126 C 
ATOM     16  C   UNL d   1      31.261  16.202 -23.737  0.00  0.00     0.029 C 
ENDBRANCH  14  15
ENDBRANCH  12  14
ENDBRANCH  11  12
BRANCH  11  17
ATOM     17  C   UNL d   1      33.206  18.551 -24.603  0.00  0.00     0.012 C 
ATOM     18  C   UNL d   1      33.228  17.879 -25.071  0.00  0.00     0.001 C 
ENDBRANCH  11  17
ENDBRANCH  10  11
ENDBRANCH   6  10
BRANCH   1  19
ATOM     19  C   UNL d   1      32.794  21.559 -20.936  0.00  0.00     0.086 A 
ATOM     20  C   UNL d   1      33.171  21.653 -20.205  0.00  0.00     0.022 A 
ATOM     21  C   UNL d   1      33.079  22.355 -19.781  0.00  0.00     0.031 A 
ATOM     22  C   UNL d   1      32.619  22.961 -20.071  0.00  0.00     0.140 A 
ATOM     23  C   UNL d   1      32.236  22.867 -20.812  0.00  0.00     0.031 A 
ATOM     24  F   UNL d   1      32.537  23.669 -19.623  0.00  0.00    -0.204 F 
ATOM     25  C   UNL d   1      32.323  22.174 -21.239  0.00  0.00     0.022 A 
ENDBRANCH   1  19
TORSDOF 7
ENDMDL
