MODEL 1
REMARK VINA RESULT:      -4.1      0.000      0.000
REMARK  6 active torsions:
REMARK  status: ('A' for Active; 'I' for Inactive)
REMARK    1  A    between atoms: C_10  and  N_3 
REMARK    2  A    between atoms: C_11  and  N_8 
REMARK    3  A    between atoms: C_12  and  C_11 
REMARK    4  A    between atoms: O_15  and  C_12 
REMARK    5  A    between atoms: C_18  and  O_15 
REMARK    6  A    between atoms: C_22  and  C_18 
ROOT
ATOM      1  C   UNL d   1     -41.669-122.584 -53.111  0.00  0.00     0.191 A 
ATOM      2  C   UNL d   1     -41.392-123.188 -52.610  0.00  0.00     0.196 A 
ATOM      3  N   UNL d   1     -41.592-122.855 -53.891  0.00  0.00    -0.193 N 
ATOM      4  N   UNL d   1     -41.275-123.606 -53.863  0.00  0.00    -0.058 NA
ATOM      5  N   UNL d   1     -41.150-123.817 -53.092  0.00  0.00    -0.122 NA
ATOM      6  N   UNL d   1     -41.946-121.888 -52.789  0.00  0.00    -0.204 NA
ATOM      7  C   UNL d   1     -41.400-123.077 -51.802  0.00  0.00     0.289 A 
ATOM      8  N   UNL d   1     -41.679-122.376 -51.474  0.00  0.00    -0.249 N 
ATOM      9  C   UNL d   1     -41.956-121.773 -51.975  0.00  0.00     0.187 A 
ATOM     10  O   UNL d   1     -41.123-123.681 -51.301  0.00  0.00    -0.265 OA
ENDROOT
BRANCH   8  11
ATOM     11  C   UNL d   1     -41.690-122.256 -50.652  0.00  0.00     0.153 C 
BRANCH  11  12
ATOM     12  C   UNL d   1     -42.399-122.328 -50.226  0.00  0.00     0.318 C 
ATOM     13  O   UNL d   1     -43.024-121.814 -50.381  0.00  0.00    -0.257 OA
BRANCH  12  14
ATOM     14  O   UNL d   1     -42.469-122.911 -49.654  0.00  0.00    -0.270 OA
BRANCH  14  15
ATOM     15  C   UNL d   1     -42.856-122.748 -48.942  0.00  0.00     0.126 C 
BRANCH  15  16
ATOM     16  C   UNL d   1     -42.554-123.034 -48.245  0.00  0.00     0.025 A 
ATOM     17  C   UNL d   1     -42.914-122.832 -47.529  0.00  0.00     0.002 A 
ATOM     18  C   UNL d   1     -42.613-123.119 -46.815  0.00  0.00     0.000 A 
ATOM     19  C   UNL d   1     -41.950-123.609 -46.825  0.00  0.00     0.000 A 
ATOM     20  C   UNL d   1     -41.590-123.812 -47.541  0.00  0.00     0.000 A 
ATOM     21  C   UNL d   1     -41.892-123.524 -48.247  0.00  0.00     0.002 A 
ENDBRANCH  15  16
ENDBRANCH  14  15
ENDBRANCH  12  14
ENDBRANCH  11  12
ENDBRANCH   8  11
BRANCH   3  22
ATOM     22  C   UNL d   1     -41.782-122.480 -54.578  0.00  0.00     0.086 A 
ATOM     23  C   UNL d   1     -42.585-122.329 -54.769  0.00  0.00     0.019 A 
ATOM     24  C   UNL d   1     -42.767-121.952 -55.462  0.00  0.00     0.002 A 
ATOM     25  C   UNL d   1     -42.160-121.709 -55.991  0.00  0.00     0.000 A 
ATOM     26  C   UNL d   1     -41.386-121.859 -55.798  0.00  0.00     0.002 A 
ATOM     27  C   UNL d   1     -42.347-121.314 -56.715  0.00  0.00     0.000 C 
ATOM     28  C   UNL d   1     -41.187-122.241 -55.099  0.00  0.00     0.019 A 
ENDBRANCH   3  22
TORSDOF 6
ENDMDL
MODEL 2
REMARK VINA RESULT:      -3.1      1.203      6.020
REMARK  6 active torsions:
REMARK  status: ('A' for Active; 'I' for Inactive)
REMARK    1  A    between atoms: C_10  and  N_3 
REMARK    2  A    between atoms: C_11  and  N_8 
REMARK    3  A    between atoms: C_12  and  C_11 
REMARK    4  A    between atoms: O_15  and  C_12 
REMARK    5  A    between atoms: C_18  and  O_15 
REMARK    6  A    between atoms: C_22  and  C_18 
ROOT
ATOM      1  C   UNL d   1     -42.257-122.462 -50.309  0.00  0.00     0.191 A 
ATOM      2  C   UNL d   1     -42.639-122.044 -50.919  0.00  0.00     0.196 A 
ATOM      3  N   UNL d   1     -42.769-122.469 -49.657  0.00  0.00    -0.193 N 
ATOM      4  N   UNL d   1     -43.445-122.065 -49.867  0.00  0.00    -0.058 NA
ATOM      5  N   UNL d   1     -43.377-121.804 -50.630  0.00  0.00    -0.122 NA
ATOM      6  N   UNL d   1     -41.512-122.769 -50.434  0.00  0.00    -0.204 NA
ATOM      7  C   UNL d   1     -42.264-121.946 -51.637  0.00  0.00     0.289 A 
ATOM      8  N   UNL d   1     -41.512-122.255 -51.767  0.00  0.00    -0.249 N 
ATOM      9  C   UNL d   1     -41.130-122.672 -51.157  0.00  0.00     0.187 A 
ATOM     10  O   UNL d   1     -42.645-121.528 -52.247  0.00  0.00    -0.265 OA
ENDROOT
BRANCH   8  11
ATOM     11  C   UNL d   1     -41.124-122.159 -52.495  0.00  0.00     0.153 C 
BRANCH  11  12
ATOM     12  C   UNL d   1     -41.254-122.695 -53.115  0.00  0.00     0.318 C 
ATOM     13  O   UNL d   1     -41.393-123.490 -52.947  0.00  0.00    -0.257 OA
BRANCH  12  14
ATOM     14  O   UNL d   1     -41.242-122.427 -53.889  0.00  0.00    -0.270 OA
BRANCH  14  15
ATOM     15  C   UNL d   1     -41.536-122.904 -54.497  0.00  0.00     0.126 C 
BRANCH  15  16
ATOM     16  C   UNL d   1     -41.963-122.570 -55.101  0.00  0.00     0.025 A 
ATOM     17  C   UNL d   1     -42.727-122.840 -55.263  0.00  0.00     0.002 A 
ATOM     18  C   UNL d   1     -43.168-122.505 -55.876  0.00  0.00     0.000 A 
ATOM     19  C   UNL d   1     -42.837-121.898 -56.325  0.00  0.00     0.000 A 
ATOM     20  C   UNL d   1     -42.073-121.627 -56.164  0.00  0.00     0.000 A 
ATOM     21  C   UNL d   1     -41.639-121.962 -55.554  0.00  0.00     0.002 A 
ENDBRANCH  15  16
ENDBRANCH  14  15
ENDBRANCH  12  14
ENDBRANCH  11  12
ENDBRANCH   8  11
BRANCH   3  22
ATOM     22  C   UNL d   1     -42.659-122.802 -48.931  0.00  0.00     0.086 A 
ATOM     23  C   UNL d   1     -43.090-123.487 -48.711  0.00  0.00     0.019 A 
ATOM     24  C   UNL d   1     -42.974-123.816 -47.980  0.00  0.00     0.002 A 
ATOM     25  C   UNL d   1     -42.426-123.476 -47.440  0.00  0.00     0.000 A 
ATOM     26  C   UNL d   1     -42.013-122.813 -47.661  0.00  0.00     0.002 A 
ATOM     27  C   UNL d   1     -42.302-123.816 -46.676  0.00  0.00     0.000 C 
ATOM     28  C   UNL d   1     -42.122-122.471 -48.400  0.00  0.00     0.019 A 
ENDBRANCH   3  22
TORSDOF 6
ENDMDL
