MODEL 1
REMARK VINA RESULT:      18.7      0.000      0.000
REMARK  0 active torsions:
REMARK  status: ('A' for Active; 'I' for Inactive)
ROOT
ATOM      1  C   UNL d   1     -51.057  24.914  33.337  0.00  0.00     0.166 A 
ATOM      2  C   UNL d   1     -51.817  25.229  33.332  0.00  0.00     0.117 A 
ATOM      3  N   UNL d   1     -51.145  24.092  33.345  0.00  0.00    -0.288 N 
ATOM      4  C   UNL d   1     -52.354  24.626  33.336  0.00  0.00     0.038 A 
ATOM      5  N   UNL d   1     -50.388  25.404  33.334  0.00  0.00    -0.225 NA
ATOM      6  C   UNL d   1     -51.934  23.916  33.345  0.00  0.00     0.067 A 
ATOM      7  N   UNL d   1     -51.884  26.048  33.323  0.00  0.00    -0.241 NA
ATOM      8  C   UNL d   1     -50.482  26.213  33.326  0.00  0.00     0.101 A 
ATOM      9  C   UNL d   1     -51.239  26.524  33.320  0.00  0.00     0.099 A 
ATOM     10  C   UNL d   1     -52.338  23.198  33.351  0.00  0.00     0.018 A 
ATOM     11  C   UNL d   1     -53.179  24.618  33.334  0.00  0.00     0.015 A 
ATOM     12  C   UNL d   1     -53.583  23.899  33.340  0.00  0.00     0.058 A 
ATOM     13  C   UNL d   1     -50.536  23.556  33.353  0.00  0.00     0.101 C 
ATOM     14  C   UNL d   1     -53.163  23.189  33.349  0.00  0.00     0.013 A 
ATOM     15 CL   UNL d   1     -54.408  23.890  33.337  0.00  0.00    -0.082 Cl
ATOM     16  C   UNL d   1     -49.835  26.690  33.323  0.00  0.00     0.021 A 
ATOM     17  C   UNL d   1     -51.333  27.332  33.311  0.00  0.00     0.021 A 
ATOM     18  C   UNL d   1     -50.679  27.848  33.308  0.00  0.00     0.002 A 
ATOM     19  C   UNL d   1     -49.942  27.514  33.314  0.00  0.00     0.002 A 
ENDROOT
TORSDOF 0
ENDMDL
