MODEL 1
REMARK VINA RESULT:      -9.2      0.000      0.000
REMARK  4 active torsions:
REMARK  status: ('A' for Active; 'I' for Inactive)
REMARK    1  A    between atoms: C_2  and  C_1 
REMARK       I    between atoms: N_9  and  C_2 
REMARK    2  A    between atoms: C_16  and  N_9 
REMARK    3  A    between atoms: C_13  and  C_16 
REMARK    4  A    between atoms: O_17  and  C_13 
ROOT
ATOM      1  C   UNL d   1     -48.080  12.982  22.949  0.00  0.00     0.073 A 
ATOM      2  C   UNL d   1     -46.766  13.372  23.052  0.00  0.00     0.001 A 
ATOM      3  C   UNL d   1     -47.719  11.902  23.410  0.00  0.00     0.001 A 
ATOM      4  C   UNL d   1     -47.140  12.110  23.442  0.00  0.00     0.001 A 
ATOM      5  C   UNL d   1     -48.359  12.026  23.245  0.00  0.00     0.009 A 
ATOM      6  C   UNL d   1     -47.519  13.534  22.853  0.00  0.00     0.009 A 
ATOM      7  C   UNL d   1     -47.893  12.266  23.245  0.00  0.00     0.009 A 
ATOM      8  C   UNL d   1     -47.337  11.311  23.696  0.00  0.00     0.000 A 
ATOM      9  C   UNL d   1     -46.974  12.634  23.282  0.00  0.00     0.000 A 
ATOM     10  C   UNL d   1     -46.578  12.662  23.346  0.00  0.00     0.000 A 
ATOM     11  C   UNL d   1     -46.330  12.278  23.532  0.00  0.00     0.000 C 
ATOM     12  C   UNL d   1     -48.449  11.512  23.416  0.00  0.00     0.000 C 
ATOM     13  C   UNL d   1     -46.343  14.071  22.877  0.00  0.00     0.000 C 
ENDROOT
BRANCH   1  14
ATOM     14  C   UNL d   1     -48.384  13.687  22.636  0.00  0.00     0.255 C 
ATOM     15  N   UNL d   1     -49.111  13.990  22.917  0.00  0.00    -0.205 NA
ATOM     16  O   UNL d   1     -47.975  14.096  22.045  0.00  0.00    -0.270 OA
BRANCH  15  17
ATOM     17  C   UNL d   1     -49.412  14.692  22.605  0.00  0.00     0.170 C 
BRANCH  17  18
ATOM     18  C   UNL d   1     -50.157  14.963  22.831  0.00  0.00     0.316 C 
ATOM     19  O   UNL d   1     -50.811  14.460  22.797  0.00  0.00    -0.257 OA
BRANCH  18  20
ATOM     20  O   UNL d   1     -50.247  15.746  23.095  0.00  0.00    -0.295 OA
ATOM     21  C   UNL d   1     -50.784  15.921  23.697  0.00  0.00     0.185 C 
ENDBRANCH  18  20
ENDBRANCH  17  18
ENDBRANCH  15  17
ENDBRANCH   1  14
TORSDOF 4
ENDMDL
MODEL 2
REMARK VINA RESULT:      -9.1      1.813      3.358
REMARK  4 active torsions:
REMARK  status: ('A' for Active; 'I' for Inactive)
REMARK    1  A    between atoms: C_2  and  C_1 
REMARK       I    between atoms: N_9  and  C_2 
REMARK    2  A    between atoms: C_16  and  N_9 
REMARK    3  A    between atoms: C_13  and  C_16 
REMARK    4  A    between atoms: O_17  and  C_13 
ROOT
ATOM      1  C   UNL d   1     -48.916  12.447  22.604  0.00  0.00     0.073 A 
ATOM      2  C   UNL d   1     -49.854  13.263  22.017  0.00  0.00     0.001 A 
ATOM      3  C   UNL d   1     -49.845  11.969  23.251  0.00  0.00     0.001 A 
ATOM      4  C   UNL d   1     -50.238  12.350  22.967  0.00  0.00     0.001 A 
ATOM      5  C   UNL d   1     -49.210  11.758  23.323  0.00  0.00     0.009 A 
ATOM      6  C   UNL d   1     -49.099  13.023  22.091  0.00  0.00     0.009 A 
ATOM      7  C   UNL d   1     -49.486  12.107  23.046  0.00  0.00     0.009 A 
ATOM      8  C   UNL d   1     -50.515  11.789  23.559  0.00  0.00     0.000 A 
ATOM      9  C   UNL d   1     -50.088  12.733  22.570  0.00  0.00     0.000 A 
ATOM     10  C   UNL d   1     -50.421  12.926  22.454  0.00  0.00     0.000 A 
ATOM     11  C   UNL d   1     -50.857  12.810  22.654  0.00  0.00     0.000 C 
ATOM     12  C   UNL d   1     -49.422  11.413  23.695  0.00  0.00     0.000 C 
ATOM     13  C   UNL d   1     -49.832  13.864  21.438  0.00  0.00     0.000 C 
ENDROOT
BRANCH   1  14
ATOM     14  C   UNL d   1     -48.250  12.729  22.199  0.00  0.00     0.255 C 
ATOM     15  N   UNL d   1     -47.572  12.970  22.626  0.00  0.00    -0.205 NA
ATOM     16  O   UNL d   1     -48.248  12.775  21.374  0.00  0.00    -0.270 OA
BRANCH  15  17
ATOM     17  C   UNL d   1     -46.910  13.250  22.221  0.00  0.00     0.170 C 
BRANCH  17  18
ATOM     18  C   UNL d   1     -46.203  13.386  22.623  0.00  0.00     0.316 C 
ATOM     19  O   UNL d   1     -46.153  13.988  23.187  0.00  0.00    -0.257 OA
BRANCH  18  20
ATOM     20  O   UNL d   1     -45.539  12.915  22.458  0.00  0.00    -0.295 OA
ATOM     21  C   UNL d   1     -44.882  13.242  22.081  0.00  0.00     0.185 C 
ENDBRANCH  18  20
ENDBRANCH  17  18
ENDBRANCH  15  17
ENDBRANCH   1  14
TORSDOF 4
ENDMDL
MODEL 3
REMARK VINA RESULT:      -9.1      2.146      4.191
REMARK  4 active torsions:
REMARK  status: ('A' for Active; 'I' for Inactive)
REMARK    1  A    between atoms: C_2  and  C_1 
REMARK       I    between atoms: N_9  and  C_2 
REMARK    2  A    between atoms: C_16  and  N_9 
REMARK    3  A    between atoms: C_13  and  C_16 
REMARK    4  A    between atoms: O_17  and  C_13 
ROOT
ATOM      1  C   UNL d   1     -47.075  12.817  23.096  0.00  0.00     0.073 A 
ATOM      2  C   UNL d   1     -48.233  12.430  22.464  0.00  0.00     0.001 A 
ATOM      3  C   UNL d   1     -47.347  13.960  22.735  0.00  0.00     0.001 A 
ATOM      4  C   UNL d   1     -47.858  13.751  22.462  0.00  0.00     0.001 A 
ATOM      5  C   UNL d   1     -46.795  13.817  23.093  0.00  0.00     0.009 A 
ATOM      6  C   UNL d   1     -47.585  12.247  22.887  0.00  0.00     0.009 A 
ATOM      7  C   UNL d   1     -47.210  13.574  22.884  0.00  0.00     0.009 A 
ATOM      8  C   UNL d   1     -47.655  14.588  22.441  0.00  0.00     0.000 A 
ATOM      9  C   UNL d   1     -48.023  13.204  22.457  0.00  0.00     0.000 A 
ATOM     10  C   UNL d   1     -48.368  13.181  22.253  0.00  0.00     0.000 A 
ATOM     11  C   UNL d   1     -48.569  13.589  22.061  0.00  0.00     0.000 C 
ATOM     12  C   UNL d   1     -46.697  14.357  23.059  0.00  0.00     0.000 C 
ATOM     13  C   UNL d   1     -48.628  11.704  22.351  0.00  0.00     0.000 C 
ENDROOT
BRANCH   1  14
ATOM     14  C   UNL d   1     -46.839  12.070  23.368  0.00  0.00     0.255 C 
ATOM     15  N   UNL d   1     -46.038  11.839  23.309  0.00  0.00    -0.205 NA
ATOM     16  O   UNL d   1     -47.390  11.549  23.698  0.00  0.00    -0.270 OA
BRANCH  15  17
ATOM     17  C   UNL d   1     -45.804  11.095  23.580  0.00  0.00     0.170 C 
BRANCH  17  18
ATOM     18  C   UNL d   1     -45.016  10.858  23.520  0.00  0.00     0.316 C 
ATOM     19  O   UNL d   1     -44.435  11.400  23.296  0.00  0.00    -0.257 OA
BRANCH  18  20
ATOM     20  O   UNL d   1     -44.810  10.071  23.686  0.00  0.00    -0.295 OA
ATOM     21  C   UNL d   1     -44.024   9.826  23.621  0.00  0.00     0.185 C 
ENDBRANCH  18  20
ENDBRANCH  17  18
ENDBRANCH  15  17
ENDBRANCH   1  14
TORSDOF 4
ENDMDL
MODEL 4
REMARK VINA RESULT:      -8.9      2.180      4.011
REMARK  4 active torsions:
REMARK  status: ('A' for Active; 'I' for Inactive)
REMARK    1  A    between atoms: C_2  and  C_1 
REMARK       I    between atoms: N_9  and  C_2 
REMARK    2  A    between atoms: C_16  and  N_9 
REMARK    3  A    between atoms: C_13  and  C_16 
REMARK    4  A    between atoms: O_17  and  C_13 
ROOT
ATOM      1  C   UNL d   1     -48.842  12.268  22.473  0.00  0.00     0.073 A 
ATOM      2  C   UNL d   1     -50.096  12.153  23.024  0.00  0.00     0.001 A 
ATOM      3  C   UNL d   1     -49.361  12.988  21.624  0.00  0.00     0.001 A 
ATOM      4  C   UNL d   1     -49.908  12.914  21.897  0.00  0.00     0.001 A 
ATOM      5  C   UNL d   1     -48.704  12.844  21.621  0.00  0.00     0.009 A 
ATOM      6  C   UNL d   1     -49.321  11.975  23.033  0.00  0.00     0.009 A 
ATOM      7  C   UNL d   1     -49.134  12.740  21.901  0.00  0.00     0.009 A 
ATOM      8  C   UNL d   1     -49.829  13.400  21.190  0.00  0.00     0.000 A 
ATOM      9  C   UNL d   1     -49.997  12.600  22.366  0.00  0.00     0.000 A 
ATOM     10  C   UNL d   1     -50.388  12.622  22.457  0.00  0.00     0.000 A 
ATOM     11  C   UNL d   1     -50.692  12.889  22.176  0.00  0.00     0.000 C 
ATOM     12  C   UNL d   1     -48.689  13.161  21.172  0.00  0.00     0.000 C 
ATOM     13  C   UNL d   1     -50.415  11.754  23.684  0.00  0.00     0.000 C 
ENDROOT
BRANCH   1  14
ATOM     14  C   UNL d   1     -48.435  11.791  23.017  0.00  0.00     0.255 C 
ATOM     15  N   UNL d   1     -47.601  11.831  23.065  0.00  0.00    -0.205 NA
ATOM     16  O   UNL d   1     -48.847  11.274  23.514  0.00  0.00    -0.270 OA
BRANCH  15  17
ATOM     17  C   UNL d   1     -47.198  11.355  23.606  0.00  0.00     0.170 C 
BRANCH  17  18
ATOM     18  C   UNL d   1     -46.376  11.393  23.660  0.00  0.00     0.316 C 
ATOM     19  O   UNL d   1     -45.993  12.124  23.684  0.00  0.00    -0.257 OA
BRANCH  18  20
ATOM     20  O   UNL d   1     -45.934  10.690  23.692  0.00  0.00    -0.295 OA
ATOM     21  C   UNL d   1     -45.109  10.718  23.661  0.00  0.00     0.185 C 
ENDBRANCH  18  20
ENDBRANCH  17  18
ENDBRANCH  15  17
ENDBRANCH   1  14
TORSDOF 4
ENDMDL
MODEL 5
REMARK VINA RESULT:      -8.8      2.043      3.696
REMARK  4 active torsions:
REMARK  status: ('A' for Active; 'I' for Inactive)
REMARK    1  A    between atoms: C_2  and  C_1 
REMARK       I    between atoms: N_9  and  C_2 
REMARK    2  A    between atoms: C_16  and  N_9 
REMARK    3  A    between atoms: C_13  and  C_16 
REMARK    4  A    between atoms: O_17  and  C_13 
ROOT
ATOM      1  C   UNL d   1     -46.970  12.638  23.214  0.00  0.00     0.073 A 
ATOM      2  C   UNL d   1     -47.792  13.680  22.852  0.00  0.00     0.001 A 
ATOM      3  C   UNL d   1     -47.997  12.006  23.447  0.00  0.00     0.001 A 
ATOM      4  C   UNL d   1     -48.335  12.492  23.277  0.00  0.00     0.001 A 
ATOM      5  C   UNL d   1     -47.385  11.742  23.536  0.00  0.00     0.009 A 
ATOM      6  C   UNL d   1     -47.062  13.381  22.952  0.00  0.00     0.009 A 
ATOM      7  C   UNL d   1     -47.608  12.190  23.379  0.00  0.00     0.009 A 
ATOM      8  C   UNL d   1     -48.711  11.763  23.539  0.00  0.00     0.000 A 
ATOM      9  C   UNL d   1     -48.119  12.991  23.099  0.00  0.00     0.000 A 
ATOM     10  C   UNL d   1     -48.427  13.235  23.015  0.00  0.00     0.000 A 
ATOM     11  C   UNL d   1     -48.891  13.078  23.074  0.00  0.00     0.000 C 
ATOM     12  C   UNL d   1     -47.658  11.293  23.697  0.00  0.00     0.000 C 
ATOM     13  C   UNL d   1     -47.670  14.457  22.575  0.00  0.00     0.000 C 
ENDROOT
BRANCH   1  14
ATOM     14  C   UNL d   1     -46.244  13.013  23.075  0.00  0.00     0.255 C 
ATOM     15  N   UNL d   1     -45.671  12.646  22.590  0.00  0.00    -0.205 NA
ATOM     16  O   UNL d   1     -46.079  13.750  23.413  0.00  0.00    -0.270 OA
BRANCH  15  17
ATOM     17  C   UNL d   1     -44.948  13.021  22.453  0.00  0.00     0.170 C 
BRANCH  17  18
ATOM     18  C   UNL d   1     -44.327  12.609  22.099  0.00  0.00     0.316 C 
ATOM     19  O   UNL d   1     -44.045  11.910  22.436  0.00  0.00    -0.257 OA
BRANCH  18  20
ATOM     20  O   UNL d   1     -43.985  12.902  21.401  0.00  0.00    -0.295 OA
ATOM     21  C   UNL d   1     -43.176  12.809  21.265  0.00  0.00     0.185 C 
ENDBRANCH  18  20
ENDBRANCH  17  18
ENDBRANCH  15  17
ENDBRANCH   1  14
TORSDOF 4
ENDMDL
MODEL 6
REMARK VINA RESULT:      -8.8      1.359      3.854
REMARK  4 active torsions:
REMARK  status: ('A' for Active; 'I' for Inactive)
REMARK    1  A    between atoms: C_2  and  C_1 
REMARK       I    between atoms: N_9  and  C_2 
REMARK    2  A    between atoms: C_16  and  N_9 
REMARK    3  A    between atoms: C_13  and  C_16 
REMARK    4  A    between atoms: O_17  and  C_13 
ROOT
ATOM      1  C   UNL d   1     -49.082  14.178  22.517  0.00  0.00     0.073 A 
ATOM      2  C   UNL d   1     -50.063  13.380  21.977  0.00  0.00     0.001 A 
ATOM      3  C   UNL d   1     -49.983  14.961  22.808  0.00  0.00     0.001 A 
ATOM      4  C   UNL d   1     -50.396  14.579  22.557  0.00  0.00     0.001 A 
ATOM      5  C   UNL d   1     -49.338  15.085  22.955  0.00  0.00     0.009 A 
ATOM      6  C   UNL d   1     -49.297  13.512  22.144  0.00  0.00     0.009 A 
ATOM      7  C   UNL d   1     -49.632  14.716  22.726  0.00  0.00     0.009 A 
ATOM      8  C   UNL d   1     -50.642  15.324  22.911  0.00  0.00     0.000 A 
ATOM      9  C   UNL d   1     -50.267  14.078  22.313  0.00  0.00     0.000 A 
ATOM     10  C   UNL d   1     -50.610  13.913  22.184  0.00  0.00     0.000 A 
ATOM     11  C   UNL d   1     -51.039  14.148  22.250  0.00  0.00     0.000 C 
ATOM     12  C   UNL d   1     -49.530  15.551  23.172  0.00  0.00     0.000 C 
ATOM     13  C   UNL d   1     -50.074  12.639  21.592  0.00  0.00     0.000 C 
ENDROOT
BRANCH   1  14
ATOM     14  C   UNL d   1     -48.433  13.691  22.348  0.00  0.00     0.255 C 
ATOM     15  N   UNL d   1     -47.928  13.439  22.965  0.00  0.00    -0.205 NA
ATOM     16  O   UNL d   1     -48.278  13.450  21.572  0.00  0.00    -0.270 OA
BRANCH  15  17
ATOM     17  C   UNL d   1     -47.282  12.954  22.795  0.00  0.00     0.170 C 
BRANCH  17  18
ATOM     18  C   UNL d   1     -46.769  12.718  23.396  0.00  0.00     0.316 C 
ATOM     19  O   UNL d   1     -46.209  13.246  23.697  0.00  0.00    -0.257 OA
BRANCH  18  20
ATOM     20  O   UNL d   1     -46.817  11.946  23.698  0.00  0.00    -0.295 OA
ATOM     21  C   UNL d   1     -46.158  11.449  23.671  0.00  0.00     0.185 C 
ENDBRANCH  18  20
ENDBRANCH  17  18
ENDBRANCH  15  17
ENDBRANCH   1  14
TORSDOF 4
ENDMDL
MODEL 7
REMARK VINA RESULT:      -7.6      8.765     10.219
REMARK  4 active torsions:
REMARK  status: ('A' for Active; 'I' for Inactive)
REMARK    1  A    between atoms: C_2  and  C_1 
REMARK       I    between atoms: N_9  and  C_2 
REMARK    2  A    between atoms: C_16  and  N_9 
REMARK    3  A    between atoms: C_13  and  C_16 
REMARK    4  A    between atoms: O_17  and  C_13 
ROOT
ATOM      1  C   UNL d   1     -39.530  13.763  17.837  0.00  0.00     0.073 A 
ATOM      2  C   UNL d   1     -39.614  14.671  16.808  0.00  0.00     0.001 A 
ATOM      3  C   UNL d   1     -38.577  13.278  17.233  0.00  0.00     0.001 A 
ATOM      4  C   UNL d   1     -38.644  13.700  16.789  0.00  0.00     0.001 A 
ATOM      5  C   UNL d   1     -38.794  13.030  17.819  0.00  0.00     0.009 A 
ATOM      6  C   UNL d   1     -39.882  14.389  17.501  0.00  0.00     0.009 A 
ATOM      7  C   UNL d   1     -38.907  13.415  17.481  0.00  0.00     0.009 A 
ATOM      8  C   UNL d   1     -38.022  13.106  16.743  0.00  0.00     0.000 A 
ATOM      9  C   UNL d   1     -39.044  14.108  16.787  0.00  0.00     0.000 A 
ATOM     10  C   UNL d   1     -38.996  14.326  16.453  0.00  0.00     0.000 A 
ATOM     11  C   UNL d   1     -38.636  14.215  16.135  0.00  0.00     0.000 C 
ATOM     12  C   UNL d   1     -38.387  12.666  17.757  0.00  0.00     0.000 C 
ATOM     13  C   UNL d   1     -40.113  15.317  16.632  0.00  0.00     0.000 C 
ENDROOT
BRANCH   1  14
ATOM     14  C   UNL d   1     -40.164  14.045  18.290  0.00  0.00     0.255 C 
ATOM     15  N   UNL d   1     -40.028  14.341  19.060  0.00  0.00    -0.205 NA
ATOM     16  O   UNL d   1     -40.934  14.038  17.988  0.00  0.00    -0.270 OA
BRANCH  15  17
ATOM     17  C   UNL d   1     -40.661  14.621  19.511  0.00  0.00     0.170 C 
BRANCH  17  18
ATOM     18  C   UNL d   1     -40.529  14.944  20.258  0.00  0.00     0.316 C 
ATOM     19  O   UNL d   1     -40.189  14.487  20.855  0.00  0.00    -0.257 OA
BRANCH  18  20
ATOM     20  O   UNL d   1     -40.740  15.733  20.407  0.00  0.00    -0.295 OA
ATOM     21  C   UNL d   1     -41.196  15.922  21.069  0.00  0.00     0.185 C 
ENDBRANCH  18  20
ENDBRANCH  17  18
ENDBRANCH  15  17
ENDBRANCH   1  14
TORSDOF 4
ENDMDL
MODEL 8
REMARK VINA RESULT:      -7.2      8.472      9.698
REMARK  4 active torsions:
REMARK  status: ('A' for Active; 'I' for Inactive)
REMARK    1  A    between atoms: C_2  and  C_1 
REMARK       I    between atoms: N_9  and  C_2 
REMARK    2  A    between atoms: C_16  and  N_9 
REMARK    3  A    between atoms: C_13  and  C_16 
REMARK    4  A    between atoms: O_17  and  C_13 
ROOT
ATOM      1  C   UNL d   1     -40.519  14.862  18.243  0.00  0.00     0.073 A 
ATOM      2  C   UNL d   1     -39.506  14.034  17.820  0.00  0.00     0.001 A 
ATOM      3  C   UNL d   1     -40.541  15.300  17.096  0.00  0.00     0.001 A 
ATOM      4  C   UNL d   1     -40.086  14.915  16.941  0.00  0.00     0.001 A 
ATOM      5  C   UNL d   1     -40.955  15.527  17.575  0.00  0.00     0.009 A 
ATOM      6  C   UNL d   1     -39.989  14.292  18.396  0.00  0.00     0.009 A 
ATOM      7  C   UNL d   1     -40.570  15.177  17.513  0.00  0.00     0.009 A 
ATOM      8  C   UNL d   1     -40.425  15.455  16.361  0.00  0.00     0.000 A 
ATOM      9  C   UNL d   1     -39.838  14.545  17.299  0.00  0.00     0.000 A 
ATOM     10  C   UNL d   1     -39.555  14.346  17.094  0.00  0.00     0.000 A 
ATOM     11  C   UNL d   1     -39.479  14.446  16.617  0.00  0.00     0.000 C 
ATOM     12  C   UNL d   1     -41.148  15.857  17.181  0.00  0.00     0.000 C 
ATOM     13  C   UNL d   1     -39.036  13.447  18.181  0.00  0.00     0.000 C 
ENDROOT
BRANCH   1  14
ATOM     14  C   UNL d   1     -40.553  14.607  19.032  0.00  0.00     0.255 C 
ATOM     15  N   UNL d   1     -40.420  15.151  19.652  0.00  0.00    -0.205 NA
ATOM     16  O   UNL d   1     -40.716  13.817  19.212  0.00  0.00    -0.270 OA
BRANCH  15  17
ATOM     17  C   UNL d   1     -40.454  14.896  20.437  0.00  0.00     0.170 C 
BRANCH  17  18
ATOM     18  C   UNL d   1     -40.371  15.437  21.054  0.00  0.00     0.316 C 
ATOM     19  O   UNL d   1     -41.004  15.917  21.275  0.00  0.00    -0.257 OA
BRANCH  18  20
ATOM     20  O   UNL d   1     -39.644  15.495  21.453  0.00  0.00    -0.295 OA
ATOM     21  C   UNL d   1     -39.602  15.879  22.183  0.00  0.00     0.185 C 
ENDBRANCH  18  20
ENDBRANCH  17  18
ENDBRANCH  15  17
ENDBRANCH   1  14
TORSDOF 4
ENDMDL
