MODEL 1
REMARK VINA RESULT:      -4.9      0.000      0.000
REMARK  3 active torsions:
REMARK  status: ('A' for Active; 'I' for Inactive)
REMARK    1  A    between atoms: C_3  and  C_9 
REMARK    2  A    between atoms: C_6  and  C_4 
REMARK    3  A    between atoms: C_9  and  C_6 
ROOT
ATOM      1  C   UNL d   1     -41.214-122.172 -52.375  0.00  0.00     0.199 A 
ATOM      2  C   UNL d   1     -41.123-122.586 -51.679  0.00  0.00     0.084 A 
ATOM      3  C   UNL d   1     -41.395-122.567 -53.076  0.00  0.00     0.039 A 
ATOM      4  C   UNL d   1     -41.482-123.372 -53.071  0.00  0.00     0.006 A 
ATOM      5  C   UNL d   1     -41.213-123.401 -51.681  0.00  0.00     0.199 A 
ATOM      6  O   UNL d   1     -41.123-121.348 -52.371  0.00  0.00    -0.286 OA
ATOM      7  C   UNL d   1     -41.394-123.797 -52.382  0.00  0.00     0.042 A 
ATOM      8  O   UNL d   1     -41.123-123.816 -50.986  0.00  0.00    -0.286 OA
ENDROOT
BRANCH   3   9
ATOM      9  C   UNL d   1     -41.485-122.142 -53.778  0.00  0.00     0.009 C 
BRANCH   9  10
ATOM     10  C   UNL d   1     -41.750-122.525 -54.459  0.00  0.00     0.070 C 
BRANCH  10  11
ATOM     11  C   UNL d   1     -41.923-122.086 -55.137  0.00  0.00     0.211 C 
ATOM     12  O   UNL d   1     -41.324-121.903 -55.667  0.00  0.00    -0.644 OA
ATOM     13  O   UNL d   1     -42.678-121.840 -55.278  0.00  0.00    -0.644 OA
ENDBRANCH  10  11
ENDBRANCH   9  10
ENDBRANCH   3   9
TORSDOF 3
ENDMDL
MODEL 2
REMARK VINA RESULT:      -4.5      0.909      3.379
REMARK  3 active torsions:
REMARK  status: ('A' for Active; 'I' for Inactive)
REMARK    1  A    between atoms: C_3  and  C_9 
REMARK    2  A    between atoms: C_6  and  C_4 
REMARK    3  A    between atoms: C_9  and  C_6 
ROOT
ATOM      1  C   UNL d   1     -41.519-123.021 -54.561  0.00  0.00     0.199 A 
ATOM      2  C   UNL d   1     -41.790-122.743 -55.278  0.00  0.00     0.084 A 
ATOM      3  C   UNL d   1     -41.637-122.583 -53.872  0.00  0.00     0.039 A 
ATOM      4  C   UNL d   1     -42.025-121.873 -53.909  0.00  0.00     0.006 A 
ATOM      5  C   UNL d   1     -42.182-122.023 -55.309  0.00  0.00     0.199 A 
ATOM      6  O   UNL d   1     -41.123-123.748 -54.532  0.00  0.00    -0.286 OA
ATOM      7  C   UNL d   1     -42.300-121.585 -54.620  0.00  0.00     0.042 A 
ATOM      8  O   UNL d   1     -42.452-121.745 -56.025  0.00  0.00    -0.286 OA
ENDROOT
BRANCH   3   9
ATOM      9  C   UNL d   1     -41.361-122.869 -53.148  0.00  0.00     0.009 C 
BRANCH   9  10
ATOM     10  C   UNL d   1     -41.615-122.523 -52.444  0.00  0.00     0.070 C 
BRANCH  10  11
ATOM     11  C   UNL d   1     -41.348-122.816 -51.720  0.00  0.00     0.211 C 
ATOM     12  O   UNL d   1     -41.311-123.627 -51.598  0.00  0.00    -0.644 OA
ATOM     13  O   UNL d   1     -41.123-122.306 -51.137  0.00  0.00    -0.644 OA
ENDBRANCH  10  11
ENDBRANCH   9  10
ENDBRANCH   3   9
TORSDOF 3
ENDMDL
MODEL 3
REMARK VINA RESULT:      -4.3      0.729      1.084
REMARK  3 active torsions:
REMARK  status: ('A' for Active; 'I' for Inactive)
REMARK    1  A    between atoms: C_3  and  C_9 
REMARK    2  A    between atoms: C_6  and  C_4 
REMARK    3  A    between atoms: C_9  and  C_6 
ROOT
ATOM      1  C   UNL d   1     -41.457-122.158 -51.460  0.00  0.00     0.199 A 
ATOM      2  C   UNL d   1     -41.383-122.545 -50.747  0.00  0.00     0.084 A 
ATOM      3  C   UNL d   1     -41.364-122.568 -52.170  0.00  0.00     0.039 A 
ATOM      4  C   UNL d   1     -41.199-123.360 -52.156  0.00  0.00     0.006 A 
ATOM      5  C   UNL d   1     -41.216-123.348 -50.740  0.00  0.00     0.199 A 
ATOM      6  O   UNL d   1     -41.627-121.347 -51.465  0.00  0.00    -0.286 OA
ATOM      7  C   UNL d   1     -41.123-123.758 -51.449  0.00  0.00     0.042 A 
ATOM      8  O   UNL d   1     -41.142-123.735 -50.027  0.00  0.00    -0.286 OA
ENDROOT
BRANCH   3   9
ATOM      9  C   UNL d   1     -41.440-122.171 -52.889  0.00  0.00     0.009 C 
BRANCH   9  10
ATOM     10  C   UNL d   1     -41.573-122.597 -53.583  0.00  0.00     0.070 C 
BRANCH  10  11
ATOM     11  C   UNL d   1     -41.737-122.198 -54.287  0.00  0.00     0.211 C 
ATOM     12  O   UNL d   1     -42.504-121.960 -54.452  0.00  0.00    -0.644 OA
ATOM     13  O   UNL d   1     -41.142-122.044 -54.811  0.00  0.00    -0.644 OA
ENDBRANCH  10  11
ENDBRANCH   9  10
ENDBRANCH   3   9
TORSDOF 3
ENDMDL
MODEL 4
REMARK VINA RESULT:      -4.1      2.160      3.146
REMARK  3 active torsions:
REMARK  status: ('A' for Active; 'I' for Inactive)
REMARK    1  A    between atoms: C_3  and  C_9 
REMARK    2  A    between atoms: C_6  and  C_4 
REMARK    3  A    between atoms: C_9  and  C_6 
ROOT
ATOM      1  C   UNL d   1     -42.621-122.760 -49.721  0.00  0.00     0.199 A 
ATOM      2  C   UNL d   1     -42.638-123.065 -48.966  0.00  0.00     0.084 A 
ATOM      3  C   UNL d   1     -41.920-122.762 -50.156  0.00  0.00     0.039 A 
ATOM      4  C   UNL d   1     -41.246-123.070 -49.829  0.00  0.00     0.006 A 
ATOM      5  C   UNL d   1     -41.952-123.375 -48.640  0.00  0.00     0.199 A 
ATOM      6  O   UNL d   1     -43.314-122.447 -50.048  0.00  0.00    -0.286 OA
ATOM      7  C   UNL d   1     -41.251-123.378 -49.075  0.00  0.00     0.042 A 
ATOM      8  O   UNL d   1     -41.970-123.680 -47.885  0.00  0.00    -0.286 OA
ENDROOT
BRANCH   3   9
ATOM      9  C   UNL d   1     -41.907-122.452 -50.921  0.00  0.00     0.009 C 
BRANCH   9  10
ATOM     10  C   UNL d   1     -41.260-122.593 -51.412  0.00  0.00     0.070 C 
BRANCH  10  11
ATOM     11  C   UNL d   1     -41.276-122.341 -52.198  0.00  0.00     0.211 C 
ATOM     12  O   UNL d   1     -41.449-122.878 -52.794  0.00  0.00    -0.644 OA
ATOM     13  O   UNL d   1     -41.123-121.569 -52.378  0.00  0.00    -0.644 OA
ENDBRANCH  10  11
ENDBRANCH   9  10
ENDBRANCH   3   9
TORSDOF 3
ENDMDL
MODEL 5
REMARK VINA RESULT:      -3.8      0.937      3.228
REMARK  3 active torsions:
REMARK  status: ('A' for Active; 'I' for Inactive)
REMARK    1  A    between atoms: C_3  and  C_9 
REMARK    2  A    between atoms: C_6  and  C_4 
REMARK    3  A    between atoms: C_9  and  C_6 
ROOT
ATOM      1  C   UNL d   1     -41.192-122.324 -53.031  0.00  0.00     0.199 A 
ATOM      2  C   UNL d   1     -41.232-122.358 -53.844  0.00  0.00     0.084 A 
ATOM      3  C   UNL d   1     -41.165-123.018 -52.586  0.00  0.00     0.039 A 
ATOM      4  C   UNL d   1     -41.179-123.736 -52.960  0.00  0.00     0.006 A 
ATOM      5  C   UNL d   1     -41.245-123.088 -54.217  0.00  0.00     0.199 A 
ATOM      6  O   UNL d   1     -41.178-121.586 -52.656  0.00  0.00    -0.286 OA
ATOM      7  C   UNL d   1     -41.218-123.782 -53.772  0.00  0.00     0.042 A 
ATOM      8  O   UNL d   1     -41.285-123.122 -55.031  0.00  0.00    -0.286 OA
ENDROOT
BRANCH   3   9
ATOM      9  C   UNL d   1     -41.125-122.979 -51.762  0.00  0.00     0.009 C 
BRANCH   9  10
ATOM     10  C   UNL d   1     -41.499-123.553 -51.303  0.00  0.00     0.070 C 
BRANCH  10  11
ATOM     11  C   UNL d   1     -41.693-123.391 -50.517  0.00  0.00     0.211 C 
ATOM     12  O   UNL d   1     -42.466-123.201 -50.319  0.00  0.00    -0.644 OA
ATOM     13  O   UNL d   1     -41.123-123.419 -49.947  0.00  0.00    -0.644 OA
ENDBRANCH  10  11
ENDBRANCH   9  10
ENDBRANCH   3   9
TORSDOF 3
ENDMDL
