MODEL 1
REMARK VINA RESULT:      -8.4      0.000      0.000
REMARK  5 active torsions:
REMARK  status: ('A' for Active; 'I' for Inactive)
REMARK    1  A    between atoms: C_5  and  S_1 
REMARK    2  A    between atoms: C_12  and  S_1 
REMARK    3  A    between atoms: C_2  and  N_6 
REMARK    4  A    between atoms: C_13  and  C_4 
REMARK    5  A    between atoms: C_7  and  C_5 
REMARK       I    between atoms: N_6  and  C_7 
ROOT
ATOM      1  N   UNL d   1      51.887  33.766  52.483  0.00  0.00    -0.182 NA
ATOM      2  C   UNL d   1      52.121  33.171  53.004  0.00  0.00     0.293 C 
ATOM      3  O   UNL d   1      51.635  32.925  53.616  0.00  0.00    -0.264 OA
ENDROOT
BRANCH   1   4
ATOM      4  C   UNL d   1      51.151  34.121  52.577  0.00  0.00     0.197 A 
ATOM      5  N   UNL d   1      50.563  34.184  51.988  0.00  0.00    -0.221 NA
ATOM      6  C   UNL d   1      49.908  34.582  52.319  0.00  0.00     0.090 A 
ATOM      7  C   UNL d   1      50.102  34.763  53.118  0.00  0.00     0.058 A 
ATOM      8  S   UNL d   1      50.868  34.476  53.266  0.00  0.00    -0.046 SA
BRANCH   6   9
ATOM      9  C   UNL d   1      49.201  34.765  51.933  0.00  0.00     0.018 A 
ATOM     10  C   UNL d   1      49.069  34.485  51.180  0.00  0.00     0.004 A 
ATOM     11  C   UNL d   1      48.373  34.660  50.790  0.00  0.00     0.030 A 
ATOM     12  C   UNL d   1      47.799  35.123  51.162  0.00  0.00     0.140 A 
ATOM     13  C   UNL d   1      47.930  35.409  51.927  0.00  0.00     0.030 A 
ATOM     14  F   UNL d   1      47.091  35.305  50.773  0.00  0.00    -0.204 F 
ATOM     15  C   UNL d   1      48.637  35.226  52.313  0.00  0.00     0.004 A 
ENDBRANCH   6   9
ENDBRANCH   1   4
BRANCH   2  16
ATOM     16  C   UNL d   1      52.863  32.813  52.908  0.00  0.00     0.161 C 
BRANCH  16  17
ATOM     17  S   UNL d   1      52.963  32.011  53.093  0.00  0.00     0.215 S 
ATOM     18  O   UNL d   1      53.269  32.228  53.843  0.00  0.00    -0.217 OA
ATOM     19  O   UNL d   1      52.660  31.803  52.350  0.00  0.00    -0.217 OA
BRANCH  17  20
ATOM     20  C   UNL d   1      53.064  31.210  53.277  0.00  0.00     0.088 A 
ATOM     21  C   UNL d   1      53.577  30.988  53.874  0.00  0.00     0.011 A 
ATOM     22  C   UNL d   1      53.678  30.187  54.058  0.00  0.00     0.001 A 
ATOM     23  C   UNL d   1      53.259  29.619  53.638  0.00  0.00     0.000 A 
ATOM     24  C   UNL d   1      52.746  29.841  53.041  0.00  0.00     0.001 A 
ATOM     25  C   UNL d   1      52.643  30.634  52.855  0.00  0.00     0.011 A 
ENDBRANCH  17  20
ENDBRANCH  16  17
ENDBRANCH   2  16
TORSDOF 5
ENDMDL
MODEL 2
REMARK VINA RESULT:      -8.0      2.265      5.460
REMARK  5 active torsions:
REMARK  status: ('A' for Active; 'I' for Inactive)
REMARK    1  A    between atoms: C_5  and  S_1 
REMARK    2  A    between atoms: C_12  and  S_1 
REMARK    3  A    between atoms: C_2  and  N_6 
REMARK    4  A    between atoms: C_13  and  C_4 
REMARK    5  A    between atoms: C_7  and  C_5 
REMARK       I    between atoms: N_6  and  C_7 
ROOT
ATOM      1  N   UNL d   1      53.032  33.463  52.911  0.00  0.00    -0.182 NA
ATOM      2  C   UNL d   1      52.356  33.827  53.211  0.00  0.00     0.293 C 
ATOM      3  O   UNL d   1      51.979  33.540  53.880  0.00  0.00    -0.264 OA
ENDROOT
BRANCH   1   4
ATOM      4  C   UNL d   1      53.336  32.798  53.288  0.00  0.00     0.197 A 
ATOM      5  N   UNL d   1      53.025  32.025  53.236  0.00  0.00    -0.221 NA
ATOM      6  C   UNL d   1      53.501  31.523  53.702  0.00  0.00     0.090 A 
ATOM      7  C   UNL d   1      54.108  31.998  54.042  0.00  0.00     0.058 A 
ATOM      8  S   UNL d   1      53.997  32.779  53.781  0.00  0.00    -0.046 SA
BRANCH   6   9
ATOM      9  C   UNL d   1      53.396  30.711  53.811  0.00  0.00     0.018 A 
ATOM     10  C   UNL d   1      53.444  30.395  54.560  0.00  0.00     0.004 A 
ATOM     11  C   UNL d   1      53.341  29.593  54.677  0.00  0.00     0.030 A 
ATOM     12  C   UNL d   1      53.189  29.100  54.033  0.00  0.00     0.140 A 
ATOM     13  C   UNL d   1      53.140  29.418  53.271  0.00  0.00     0.030 A 
ATOM     14  F   UNL d   1      53.084  28.286  54.145  0.00  0.00    -0.204 F 
ATOM     15  C   UNL d   1      53.245  30.230  53.162  0.00  0.00     0.004 A 
ENDBRANCH   6   9
ENDBRANCH   1   4
BRANCH   2  16
ATOM     16  C   UNL d   1      52.049  34.497  52.832  0.00  0.00     0.161 C 
BRANCH  16  17
ATOM     17  S   UNL d   1      51.256  34.512  52.594  0.00  0.00     0.215 S 
ATOM     18  O   UNL d   1      51.034  34.744  53.369  0.00  0.00    -0.217 OA
ATOM     19  O   UNL d   1      51.480  34.283  51.830  0.00  0.00    -0.217 OA
BRANCH  17  20
ATOM     20  C   UNL d   1      50.462  34.528  52.356  0.00  0.00     0.088 A 
ATOM     21  C   UNL d   1      50.251  34.251  51.616  0.00  0.00     0.011 A 
ATOM     22  C   UNL d   1      49.457  34.266  51.378  0.00  0.00     0.001 A 
ATOM     23  C   UNL d   1      48.887  34.561  51.889  0.00  0.00     0.000 A 
ATOM     24  C   UNL d   1      49.098  34.838  52.629  0.00  0.00     0.001 A 
ATOM     25  C   UNL d   1      49.883  34.824  52.869  0.00  0.00     0.011 A 
ENDBRANCH  17  20
ENDBRANCH  16  17
ENDBRANCH   2  16
TORSDOF 5
ENDMDL
MODEL 3
REMARK VINA RESULT:      -7.8      2.639      5.754
REMARK  5 active torsions:
REMARK  status: ('A' for Active; 'I' for Inactive)
REMARK    1  A    between atoms: C_5  and  S_1 
REMARK    2  A    between atoms: C_12  and  S_1 
REMARK    3  A    between atoms: C_2  and  N_6 
REMARK    4  A    between atoms: C_13  and  C_4 
REMARK    5  A    between atoms: C_7  and  C_5 
REMARK       I    between atoms: N_6  and  C_7 
ROOT
ATOM      1  N   UNL d   1      51.297  34.080  52.267  0.00  0.00    -0.182 NA
ATOM      2  C   UNL d   1      50.508  34.149  52.498  0.00  0.00     0.293 C 
ATOM      3  O   UNL d   1      50.235  33.802  53.188  0.00  0.00    -0.264 OA
ENDROOT
BRANCH   1   4
ATOM      4  C   UNL d   1      51.822  33.657  52.736  0.00  0.00     0.197 A 
ATOM      5  N   UNL d   1      52.449  33.983  53.180  0.00  0.00    -0.221 NA
ATOM      6  C   UNL d   1      52.840  33.359  53.573  0.00  0.00     0.090 A 
ATOM      7  C   UNL d   1      52.444  32.645  53.365  0.00  0.00     0.058 A 
ATOM      8  S   UNL d   1      51.821  32.839  52.851  0.00  0.00    -0.046 SA
BRANCH   6   9
ATOM      9  C   UNL d   1      53.493  33.429  54.073  0.00  0.00     0.018 A 
ATOM     10  C   UNL d   1      53.451  33.913  54.726  0.00  0.00     0.004 A 
ATOM     11  C   UNL d   1      54.092  33.989  55.227  0.00  0.00     0.030 A 
ATOM     12  C   UNL d   1      54.787  33.572  55.070  0.00  0.00     0.140 A 
ATOM     13  C   UNL d   1      54.834  33.079  54.408  0.00  0.00     0.030 A 
ATOM     14  F   UNL d   1      55.441  33.644  55.574  0.00  0.00    -0.204 F 
ATOM     15  C   UNL d   1      54.180  33.009  53.908  0.00  0.00     0.004 A 
ENDBRANCH   6   9
ENDBRANCH   1   4
BRANCH   2  16
ATOM     16  C   UNL d   1      49.979  34.576  52.024  0.00  0.00     0.161 C 
BRANCH  16  17
ATOM     17  S   UNL d   1      49.346  34.982  52.371  0.00  0.00     0.215 S 
ATOM     18  O   UNL d   1      48.813  34.561  51.879  0.00  0.00    -0.217 OA
ATOM     19  O   UNL d   1      49.877  35.395  52.855  0.00  0.00    -0.217 OA
BRANCH  17  20
ATOM     20  C   UNL d   1      48.713  35.388  52.719  0.00  0.00     0.088 A 
ATOM     21  C   UNL d   1      48.763  35.636  53.497  0.00  0.00     0.011 A 
ATOM     22  C   UNL d   1      48.130  36.043  53.845  0.00  0.00     0.001 A 
ATOM     23  C   UNL d   1      47.455  36.194  53.403  0.00  0.00     0.000 A 
ATOM     24  C   UNL d   1      47.405  35.946  52.625  0.00  0.00     0.001 A 
ATOM     25  C   UNL d   1      48.030  35.543  52.277  0.00  0.00     0.011 A 
ENDBRANCH  17  20
ENDBRANCH  16  17
ENDBRANCH   2  16
TORSDOF 5
ENDMDL
MODEL 4
REMARK VINA RESULT:      -6.9      1.662      2.234
REMARK  5 active torsions:
REMARK  status: ('A' for Active; 'I' for Inactive)
REMARK    1  A    between atoms: C_5  and  S_1 
REMARK    2  A    between atoms: C_12  and  S_1 
REMARK    3  A    between atoms: C_2  and  N_6 
REMARK    4  A    between atoms: C_13  and  C_4 
REMARK    5  A    between atoms: C_7  and  C_5 
REMARK       I    between atoms: N_6  and  C_7 
ROOT
ATOM      1  N   UNL d   1      51.021  33.224  52.985  0.00  0.00    -0.182 NA
ATOM      2  C   UNL d   1      51.825  33.380  53.076  0.00  0.00     0.293 C 
ATOM      3  O   UNL d   1      52.148  34.099  52.850  0.00  0.00    -0.264 OA
ENDROOT
BRANCH   1   4
ATOM      4  C   UNL d   1      50.530  33.799  52.662  0.00  0.00     0.197 A 
ATOM      5  N   UNL d   1      49.904  34.184  53.059  0.00  0.00    -0.221 NA
ATOM      6  C   UNL d   1      49.554  34.723  52.528  0.00  0.00     0.090 A 
ATOM      7  C   UNL d   1      49.972  34.665  51.799  0.00  0.00     0.058 A 
ATOM      8  S   UNL d   1      50.569  34.094  51.892  0.00  0.00    -0.046 SA
BRANCH   6   9
ATOM      9  C   UNL d   1      48.915  35.222  52.688  0.00  0.00     0.018 A 
ATOM     10  C   UNL d   1      48.343  35.339  52.120  0.00  0.00     0.004 A 
ATOM     11  C   UNL d   1      47.708  35.830  52.268  0.00  0.00     0.030 A 
ATOM     12  C   UNL d   1      47.645  36.210  52.999  0.00  0.00     0.140 A 
ATOM     13  C   UNL d   1      48.223  36.094  53.578  0.00  0.00     0.030 A 
ATOM     14  F   UNL d   1      47.003  36.710  53.156  0.00  0.00    -0.204 F 
ATOM     15  C   UNL d   1      48.862  35.595  53.418  0.00  0.00     0.004 A 
ENDBRANCH   6   9
ENDBRANCH   1   4
BRANCH   2  16
ATOM     16  C   UNL d   1      52.320  32.801  53.402  0.00  0.00     0.161 C 
BRANCH  16  17
ATOM     17  S   UNL d   1      53.030  33.020  53.769  0.00  0.00     0.215 S 
ATOM     18  O   UNL d   1      53.446  32.819  53.069  0.00  0.00    -0.217 OA
ATOM     19  O   UNL d   1      52.614  33.216  54.458  0.00  0.00    -0.217 OA
BRANCH  17  20
ATOM     20  C   UNL d   1      53.740  33.239  54.135  0.00  0.00     0.088 A 
ATOM     21  C   UNL d   1      54.455  33.079  53.772  0.00  0.00     0.011 A 
ATOM     22  C   UNL d   1      55.165  33.298  54.138  0.00  0.00     0.001 A 
ATOM     23  C   UNL d   1      55.145  33.675  54.867  0.00  0.00     0.000 A 
ATOM     24  C   UNL d   1      54.430  33.835  55.231  0.00  0.00     0.001 A 
ATOM     25  C   UNL d   1      53.724  33.620  54.871  0.00  0.00     0.011 A 
ENDBRANCH  17  20
ENDBRANCH  16  17
ENDBRANCH   2  16
TORSDOF 5
ENDMDL
