MODEL 1
REMARK VINA RESULT:      27.8      0.000      0.000
REMARK  4 active torsions:
REMARK  status: ('A' for Active; 'I' for Inactive)
REMARK    1  A    between atoms: N_5  and  S_1 
REMARK    2  A    between atoms: C_8  and  S_1 
REMARK    3  A    between atoms: C_2  and  C_7 
REMARK    4  A    between atoms: C_11  and  N_5 
ROOT
ATOM      1  C   UNL d   1      45.007 -15.478  44.607  0.00  0.00     0.025 A 
ATOM      2  C   UNL d   1      45.617 -16.031  44.659  0.00  0.00     0.020 A 
ATOM      3  C   UNL d   1      45.454 -16.817  44.832  0.00  0.00     0.094 A 
ATOM      4  C   UNL d   1      44.225 -15.707  44.728  0.00  0.00     0.002 A 
ATOM      5  C   UNL d   1      44.662 -17.046  44.955  0.00  0.00     0.020 A 
ATOM      6  C   UNL d   1      46.400 -15.793  44.536  0.00  0.00     0.002 C 
ATOM      7  C   UNL d   1      44.052 -16.487  44.902  0.00  0.00     0.002 A 
ENDROOT
BRANCH   3   8
ATOM      8  N   UNL d   1      46.055 -17.367  44.885  0.00  0.00    -0.158 NA
BRANCH   8   9
ATOM      9  S   UNL d   1      46.146 -17.936  44.296  0.00  0.00     0.285 S 
ATOM     10  O   UNL d   1      46.645 -17.416  43.885  0.00  0.00    -0.198 OA
ATOM     11  O   UNL d   1      45.646 -18.449  44.714  0.00  0.00    -0.198 OA
BRANCH   9  12
ATOM     12  C   UNL d   1      46.240 -18.504  43.705  0.00  0.00     0.107 A 
ATOM     13  C   UNL d   1      46.337 -18.260  42.918  0.00  0.00     0.040 A 
ATOM     14  C   UNL d   1      46.429 -18.838  42.337  0.00  0.00     0.123 A 
ATOM     15  O   UNL d   1      46.526 -18.611  41.557  0.00  0.00    -0.301 OA
ATOM     16  C   UNL d   1      46.426 -19.640  42.529  0.00  0.00     0.123 A 
ATOM     17  C   UNL d   1      46.620 -19.174  40.965  0.00  0.00     0.149 A 
ATOM     18  C   UNL d   1      46.615 -19.975  41.165  0.00  0.00     0.149 A 
ATOM     19  O   UNL d   1      46.519 -20.202  41.945  0.00  0.00    -0.301 OA
ATOM     20  C   UNL d   1      46.329 -19.867  43.312  0.00  0.00     0.028 A 
ATOM     21  C   UNL d   1      46.235 -19.300  43.904  0.00  0.00     0.015 A 
ENDBRANCH   9  12
ENDBRANCH   8   9
ENDBRANCH   3   8
BRANCH   1  22
ATOM     22  C   UNL d   1      45.186 -14.681  44.430  0.00  0.00     0.112 A 
ATOM     23  S   UNL d   1      45.635 -14.173  44.896  0.00  0.00    -0.047 SA
ATOM     24  C   UNL d   1      45.675 -13.435  44.514  0.00  0.00     0.130 A 
ATOM     25  N   UNL d   1      46.034 -12.725  44.700  0.00  0.00    -0.236 NA
ATOM     26  C   UNL d   1      45.239 -13.504  43.803  0.00  0.00     0.106 A 
ATOM     27  C   UNL d   1      45.969 -12.082  44.196  0.00  0.00     0.100 A 
ATOM     28  C   UNL d   1      45.541 -12.145  43.496  0.00  0.00     0.022 A 
ATOM     29  C   UNL d   1      45.176 -12.853  43.298  0.00  0.00     0.023 A 
ATOM     30  N   UNL d   1      44.936 -14.276  43.752  0.00  0.00    -0.237 NA
ENDBRANCH   1  22
TORSDOF 4
ENDMDL
