MODEL 1
REMARK VINA RESULT:      -6.8      0.000      0.000
REMARK  7 active torsions:
REMARK  status: ('A' for Active; 'I' for Inactive)
REMARK    1  A    between atoms: N_7  and  C_1 
REMARK    2  A    between atoms: N_8  and  C_4 
REMARK    3  A    between atoms: N_9  and  C_5 
REMARK    4  A    between atoms: C_14  and  N_8 
REMARK    5  A    between atoms: C_13  and  N_9 
REMARK    6  A    between atoms: C_20  and  C_14 
REMARK    7  A    between atoms: O_21  and  C_15 
ROOT
ATOM      1  C   UNL d   1     -48.629  12.004  23.151  0.00  0.00     0.201 A 
ATOM      2  N   UNL d   1     -47.811  13.120  23.317  0.00  0.00    -0.038 NA
ATOM      3  N   UNL d   1     -47.231  11.809  23.461  0.00  0.00    -0.036 NA
ATOM      4  C   UNL d   1     -48.555  12.825  23.157  0.00  0.00     0.206 A 
ATOM      5  C   UNL d   1     -47.146  12.610  23.470  0.00  0.00     0.753 A 
ATOM      6  C   UNL d   1     -47.964  11.493  23.304  0.00  0.00     0.227 A 
ATOM      7  N   UNL d   1     -48.053  10.677  23.294  0.00  0.00    -0.125 N 
ENDROOT
BRANCH   5   8
ATOM      8  N   UNL d   1     -46.408  12.921  23.629  0.00  0.00    -0.059 NA
BRANCH   8   9
ATOM      9  C   UNL d   1     -45.802  12.919  23.030  0.00  0.00     0.100 A 
ATOM     10  C   UNL d   1     -45.273  12.280  22.964  0.00  0.00     0.022 A 
ATOM     11  C   UNL d   1     -44.673  12.273  22.375  0.00  0.00     0.026 A 
ATOM     12  C   UNL d   1     -44.585  12.900  21.839  0.00  0.00     0.094 A 
ATOM     13  C   UNL d   1     -45.114  13.529  21.912  0.00  0.00     0.026 A 
ATOM     14  C   UNL d   1     -45.721  13.536  22.509  0.00  0.00     0.022 A 
BRANCH  12  15
ATOM     15  O   UNL d   1     -43.981  12.893  21.246  0.00  0.00    -0.328 OA
ATOM     16  C   UNL d   1     -43.211  12.681  21.429  0.00  0.00     0.181 C 
ENDBRANCH  12  15
ENDBRANCH   8   9
ENDBRANCH   5   8
BRANCH   4  17
ATOM     17  N   UNL d   1     -49.199  13.313  23.010  0.00  0.00    -0.223 NA
BRANCH  17  18
ATOM     18  C   UNL d   1     -49.093  14.127  22.989  0.00  0.00     0.101 C 
BRANCH  18  19
ATOM     19  C   UNL d   1     -49.744  14.624  23.018  0.00  0.00     0.019 A 
ATOM     20  C   UNL d   1     -49.864  15.111  23.670  0.00  0.00     0.002 A 
ATOM     21  C   UNL d   1     -50.507  15.602  23.698  0.00  0.00     0.000 A 
ATOM     22  C   UNL d   1     -51.044  15.615  23.074  0.00  0.00     0.000 A 
ATOM     23  C   UNL d   1     -50.933  15.135  22.422  0.00  0.00     0.000 A 
ATOM     24  C   UNL d   1     -50.273  14.631  22.393  0.00  0.00     0.002 A 
ENDBRANCH  18  19
ENDBRANCH  17  18
ENDBRANCH   4  17
BRANCH   1  25
ATOM     25  N   UNL d   1     -49.391  11.685  22.987  0.00  0.00    -0.107 N 
ATOM     26  O   UNL d   1     -49.605  11.620  22.188  0.00  0.00    -0.531 OA
ATOM     27  O   UNL d   1     -49.913  11.443  23.622  0.00  0.00    -0.531 OA
ENDBRANCH   1  25
TORSDOF 7
ENDMDL
MODEL 2
REMARK VINA RESULT:      -4.8      1.726      2.671
REMARK  7 active torsions:
REMARK  status: ('A' for Active; 'I' for Inactive)
REMARK    1  A    between atoms: N_7  and  C_1 
REMARK    2  A    between atoms: N_8  and  C_4 
REMARK    3  A    between atoms: N_9  and  C_5 
REMARK    4  A    between atoms: C_14  and  N_8 
REMARK    5  A    between atoms: C_13  and  N_9 
REMARK    6  A    between atoms: C_20  and  C_14 
REMARK    7  A    between atoms: O_21  and  C_15 
ROOT
ATOM      1  C   UNL d   1     -48.639  14.800  22.335  0.00  0.00     0.201 A 
ATOM      2  N   UNL d   1     -47.847  13.982  23.140  0.00  0.00    -0.038 NA
ATOM      3  N   UNL d   1     -47.227  15.088  22.454  0.00  0.00    -0.036 NA
ATOM      4  C   UNL d   1     -48.587  14.149  22.839  0.00  0.00     0.206 A 
ATOM      5  C   UNL d   1     -47.164  14.454  22.947  0.00  0.00     0.753 A 
ATOM      6  C   UNL d   1     -47.956  15.272  22.143  0.00  0.00     0.227 A 
ATOM      7  N   UNL d   1     -48.022  15.918  21.640  0.00  0.00    -0.125 N 
ENDROOT
BRANCH   5   8
ATOM      8  N   UNL d   1     -46.430  14.273  23.258  0.00  0.00    -0.059 NA
BRANCH   8   9
ATOM      9  C   UNL d   1     -45.884  13.790  22.819  0.00  0.00     0.100 A 
ATOM     10  C   UNL d   1     -45.859  12.966  22.934  0.00  0.00     0.022 A 
ATOM     11  C   UNL d   1     -45.322  12.484  22.503  0.00  0.00     0.026 A 
ATOM     12  C   UNL d   1     -44.798  12.808  21.949  0.00  0.00     0.094 A 
ATOM     13  C   UNL d   1     -44.830  13.625  21.840  0.00  0.00     0.026 A 
ATOM     14  C   UNL d   1     -45.374  14.114  22.277  0.00  0.00     0.022 A 
BRANCH  12  15
ATOM     15  O   UNL d   1     -44.257  12.322  21.514  0.00  0.00    -0.328 OA
ATOM     16  C   UNL d   1     -43.454  12.487  21.505  0.00  0.00     0.181 C 
ENDBRANCH  12  15
ENDBRANCH   8   9
ENDBRANCH   5   8
BRANCH   4  17
ATOM     17  N   UNL d   1     -49.248  13.697  23.021  0.00  0.00    -0.223 NA
BRANCH  17  18
ATOM     18  C   UNL d   1     -49.209  13.154  23.636  0.00  0.00     0.101 C 
BRANCH  18  19
ATOM     19  C   UNL d   1     -49.718  12.512  23.645  0.00  0.00     0.019 A 
ATOM     20  C   UNL d   1     -49.418  11.747  23.688  0.00  0.00     0.002 A 
ATOM     21  C   UNL d   1     -49.921  11.112  23.697  0.00  0.00     0.000 A 
ATOM     22  C   UNL d   1     -50.735  11.230  23.664  0.00  0.00     0.000 A 
ATOM     23  C   UNL d   1     -51.042  11.987  23.621  0.00  0.00     0.000 A 
ATOM     24  C   UNL d   1     -50.526  12.638  23.611  0.00  0.00     0.002 A 
ENDBRANCH  18  19
ENDBRANCH  17  18
ENDBRANCH   4  17
BRANCH   1  25
ATOM     25  N   UNL d   1     -49.396  14.984  22.017  0.00  0.00    -0.107 N 
ATOM     26  O   UNL d   1     -49.656  14.522  21.378  0.00  0.00    -0.531 OA
ATOM     27  O   UNL d   1     -49.869  15.621  22.343  0.00  0.00    -0.531 OA
ENDBRANCH   1  25
TORSDOF 7
ENDMDL
