MODEL 1
REMARK VINA RESULT:      47.2      0.000      0.000
REMARK  7 active torsions:
REMARK  status: ('A' for Active; 'I' for Inactive)
REMARK    1  A    between atoms: C_11  and  C_3 
REMARK    2  A    between atoms: N_12  and  C_7 
REMARK       I    between atoms: C_9  and  N_15 
REMARK    3  A    between atoms: C_14  and  C_9 
REMARK    4  A    between atoms: C_16  and  C_11 
REMARK    5  A    between atoms: C_17  and  N_12 
REMARK    6  A    between atoms: N_15  and  C_16 
REMARK    7  A    between atoms: C_19  and  C_17 
ROOT
ATOM      1  N   UNL d   1      46.403 -18.050  43.353  0.00  0.00    -0.190 N 
ATOM      2  C   UNL d   1      46.349 -18.819  43.655  0.00  0.00     0.187 A 
ATOM      3  C   UNL d   1      46.340 -17.512  43.988  0.00  0.00     0.188 A 
ATOM      4  N   UNL d   1      46.503 -17.944  42.532  0.00  0.00    -0.143 NA
ATOM      5  N   UNL d   1      46.253 -18.752  44.482  0.00  0.00    -0.127 NA
ATOM      6  N   UNL d   1      46.249 -17.949  44.670  0.00  0.00    -0.127 NA
ATOM      7  C   UNL d   1      46.547 -18.596  42.029  0.00  0.00     0.182 A 
ATOM      8  C   UNL d   1      46.393 -19.472  43.153  0.00  0.00     0.044 A 
ATOM      9  C   UNL d   1      46.492 -19.362  42.343  0.00  0.00     0.044 A 
ENDROOT
BRANCH   3  10
ATOM     10  C   UNL d   1      46.365 -16.687  43.938  0.00  0.00     0.061 C 
BRANCH  10  11
ATOM     11  C   UNL d   1      46.038 -16.228  44.536  0.00  0.00     0.105 C 
BRANCH  11  12
ATOM     12  N   UNL d   1      45.221 -16.250  44.661  0.00  0.00    -0.206 NA
ATOM     13  C   UNL d   1      44.815 -15.546  44.827  0.00  0.00     0.279 C 
ATOM     14  O   UNL d   1      43.996 -15.571  44.953  0.00  0.00    -0.265 OA
BRANCH  13  15
ATOM     15  C   UNL d   1      45.226 -14.836  44.866  0.00  0.00     0.058 A 
ATOM     16  C   UNL d   1      46.057 -14.826  44.854  0.00  0.00     0.005 A 
ATOM     17  C   UNL d   1      46.453 -14.114  44.893  0.00  0.00     0.000 A 
ATOM     18  C   UNL d   1      46.035 -13.413  44.943  0.00  0.00     0.000 A 
ATOM     19  C   UNL d   1      45.222 -13.408  44.954  0.00  0.00     0.000 A 
ATOM     20  C   UNL d   1      44.807 -14.124  44.916  0.00  0.00     0.005 A 
ENDBRANCH  13  15
ENDBRANCH  11  12
ENDBRANCH  10  11
ENDBRANCH   3  10
BRANCH   7  21
ATOM     21  N   UNL d   1      46.647 -18.497  41.211  0.00  0.00    -0.224 NA
BRANCH  21  22
ATOM     22  C   UNL d   1      46.060 -18.783  40.703  0.00  0.00     0.101 C 
BRANCH  22  23
ATOM     23  C   UNL d   1      45.765 -18.311  40.094  0.00  0.00     0.019 A 
ATOM     24  C   UNL d   1      46.290 -17.937  39.567  0.00  0.00     0.002 A 
ATOM     25  C   UNL d   1      45.983 -17.467  38.961  0.00  0.00     0.011 A 
ATOM     26  C   UNL d   1      45.171 -17.365  38.874  0.00  0.00     0.058 A 
ATOM     27  C   UNL d   1      44.647 -17.740  39.401  0.00  0.00     0.011 A 
ATOM     28 CL   UNL d   1      44.865 -16.896  38.268  0.00  0.00    -0.082 Cl
ATOM     29  C   UNL d   1      44.949 -18.210  40.008  0.00  0.00     0.002 A 
ENDBRANCH  22  23
ENDBRANCH  21  22
ENDBRANCH   7  21
TORSDOF 7
ENDMDL
MODEL 2
REMARK VINA RESULT:      47.9      2.160      3.525
REMARK  7 active torsions:
REMARK  status: ('A' for Active; 'I' for Inactive)
REMARK    1  A    between atoms: C_11  and  C_3 
REMARK    2  A    between atoms: N_12  and  C_7 
REMARK       I    between atoms: C_9  and  N_15 
REMARK    3  A    between atoms: C_14  and  C_9 
REMARK    4  A    between atoms: C_16  and  C_11 
REMARK    5  A    between atoms: C_17  and  N_12 
REMARK    6  A    between atoms: N_15  and  C_16 
REMARK    7  A    between atoms: C_19  and  C_17 
ROOT
ATOM      1  N   UNL d   1      46.198 -18.491  40.958  0.00  0.00    -0.190 N 
ATOM      2  C   UNL d   1      46.164 -19.239  40.606  0.00  0.00     0.187 A 
ATOM      3  C   UNL d   1      46.447 -18.584  41.750  0.00  0.00     0.188 A 
ATOM      4  N   UNL d   1      45.996 -17.819  40.507  0.00  0.00    -0.143 NA
ATOM      5  N   UNL d   1      46.393 -19.794  41.185  0.00  0.00    -0.127 NA
ATOM      6  N   UNL d   1      46.563 -19.381  41.877  0.00  0.00    -0.127 NA
ATOM      7  C   UNL d   1      45.766 -17.901  39.719  0.00  0.00     0.182 A 
ATOM      8  C   UNL d   1      45.933 -19.321  39.818  0.00  0.00     0.044 A 
ATOM      9  C   UNL d   1      45.734 -18.656  39.375  0.00  0.00     0.044 A 
ENDROOT
BRANCH   3  10
ATOM     10  C   UNL d   1      46.557 -17.981  42.305  0.00  0.00     0.061 C 
BRANCH  10  11
ATOM     11  C   UNL d   1      46.642 -18.165  43.102  0.00  0.00     0.105 C 
BRANCH  11  12
ATOM     12  N   UNL d   1      46.383 -17.626  43.671  0.00  0.00    -0.206 NA
ATOM     13  C   UNL d   1      46.054 -17.908  44.379  0.00  0.00     0.279 C 
ATOM     14  O   UNL d   1      45.795 -17.364  44.949  0.00  0.00    -0.265 OA
BRANCH  13  15
ATOM     15  C   UNL d   1      45.990 -18.715  44.508  0.00  0.00     0.058 A 
ATOM     16  C   UNL d   1      45.272 -19.111  44.367  0.00  0.00     0.005 A 
ATOM     17  C   UNL d   1      45.220 -19.914  44.499  0.00  0.00     0.000 A 
ATOM     18  C   UNL d   1      45.872 -20.329  44.768  0.00  0.00     0.000 A 
ATOM     19  C   UNL d   1      46.579 -19.956  44.910  0.00  0.00     0.000 A 
ATOM     20  C   UNL d   1      46.646 -19.140  44.781  0.00  0.00     0.005 A 
ENDBRANCH  13  15
ENDBRANCH  11  12
ENDBRANCH  10  11
ENDBRANCH   3  10
BRANCH   7  21
ATOM     21  N   UNL d   1      45.563 -17.237  39.264  0.00  0.00    -0.224 NA
BRANCH  21  22
ATOM     22  C   UNL d   1      45.045 -17.336  38.627  0.00  0.00     0.101 C 
BRANCH  22  23
ATOM     23  C   UNL d   1      44.883 -16.709  38.116  0.00  0.00     0.019 A 
ATOM     24  C   UNL d   1      45.458 -16.461  37.567  0.00  0.00     0.002 A 
ATOM     25  C   UNL d   1      45.284 -15.833  37.061  0.00  0.00     0.011 A 
ATOM     26  C   UNL d   1      44.555 -15.452  37.092  0.00  0.00     0.058 A 
ATOM     27  C   UNL d   1      43.981 -15.701  37.642  0.00  0.00     0.011 A 
ATOM     28 CL   UNL d   1      44.382 -14.824  36.586  0.00  0.00    -0.082 Cl
ATOM     29  C   UNL d   1      44.150 -16.328  38.150  0.00  0.00     0.002 A 
ENDBRANCH  22  23
ENDBRANCH  21  22
ENDBRANCH   7  21
TORSDOF 7
ENDMDL
