MODEL 1
REMARK VINA RESULT:      -7.8      0.000      0.000
REMARK  3 active torsions:
REMARK  status: ('A' for Active; 'I' for Inactive)
REMARK    1  A    between atoms: C_12  and  C_4 
REMARK       I    between atoms: C_6  and  N_11 
REMARK    2  A    between atoms: C_7  and  C_6 
REMARK    3  A    between atoms: N_11  and  C_18 
ROOT
ATOM      1  C   UNL d   1     -47.914  13.798  22.607  0.00  0.00     0.019 A 
ATOM      2  C   UNL d   1     -47.354  14.059  23.155  0.00  0.00     0.003 A 
ATOM      3  C   UNL d   1     -47.712  13.233  22.053  0.00  0.00     0.003 A 
ATOM      4  C   UNL d   1     -46.387  13.185  22.589  0.00  0.00     0.085 A 
ATOM      5  C   UNL d   1     -46.946  12.926  22.044  0.00  0.00     0.019 A 
ATOM      6  C   UNL d   1     -46.597  13.755  23.145  0.00  0.00     0.019 A 
ENDROOT
BRANCH   1   7
ATOM      7  C   UNL d   1     -48.684  14.106  22.614  0.00  0.00     0.101 A 
ATOM      8  N   UNL d   1     -48.932  14.678  23.134  0.00  0.00    -0.221 NA
ATOM      9  C   UNL d   1     -49.723  14.845  22.980  0.00  0.00     0.179 A 
ATOM     10  N   UNL d   1     -49.971  14.374  22.359  0.00  0.00    -0.282 N 
ATOM     11  S   UNL d   1     -50.362  15.312  23.217  0.00  0.00    -0.048 SA
ATOM     12  C   UNL d   1     -49.323  13.911  22.130  0.00  0.00     0.101 A 
ATOM     13  C   UNL d   1     -50.762  14.541  22.204  0.00  0.00     0.089 A 
ATOM     14  C   UNL d   1     -51.000  15.124  22.739  0.00  0.00     0.057 A 
ENDBRANCH   1   7
BRANCH   4  15
ATOM     15  N   UNL d   1     -45.616  12.878  22.581  0.00  0.00    -0.208 NA
ATOM     16  C   UNL d   1     -45.457  12.154  22.950  0.00  0.00     0.279 C 
ATOM     17  O   UNL d   1     -44.697  11.848  22.944  0.00  0.00    -0.265 OA
BRANCH  16  18
ATOM     18  C   UNL d   1     -46.067  11.746  23.322  0.00  0.00     0.058 A 
ATOM     19  C   UNL d   1     -45.910  11.019  23.685  0.00  0.00     0.005 A 
ATOM     20  C   UNL d   1     -46.679  11.330  23.698  0.00  0.00     0.005 A 
ENDBRANCH  16  18
ENDBRANCH   4  15
TORSDOF 3
ENDMDL
MODEL 2
REMARK VINA RESULT:      -6.9      2.435      4.756
REMARK  3 active torsions:
REMARK  status: ('A' for Active; 'I' for Inactive)
REMARK    1  A    between atoms: C_12  and  C_4 
REMARK       I    between atoms: C_6  and  N_11 
REMARK    2  A    between atoms: C_7  and  C_6 
REMARK    3  A    between atoms: N_11  and  C_18 
ROOT
ATOM      1  C   UNL d   1     -46.387  12.272  23.242  0.00  0.00     0.019 A 
ATOM      2  C   UNL d   1     -47.129  12.170  23.590  0.00  0.00     0.003 A 
ATOM      3  C   UNL d   1     -46.225  12.948  22.815  0.00  0.00     0.003 A 
ATOM      4  C   UNL d   1     -47.545  13.430  23.079  0.00  0.00     0.085 A 
ATOM      5  C   UNL d   1     -46.805  13.529  22.733  0.00  0.00     0.019 A 
ATOM      6  C   UNL d   1     -47.703  12.745  23.509  0.00  0.00     0.019 A 
ENDROOT
BRANCH   1   7
ATOM      7  C   UNL d   1     -45.803  11.689  23.322  0.00  0.00     0.101 A 
ATOM      8  N   UNL d   1     -45.014  11.826  23.188  0.00  0.00    -0.221 NA
ATOM      9  C   UNL d   1     -44.601  11.126  23.321  0.00  0.00     0.179 A 
ATOM     10  N   UNL d   1     -45.137  10.548  23.540  0.00  0.00    -0.282 N 
ATOM     11  S   UNL d   1     -43.848  10.788  23.317  0.00  0.00    -0.048 SA
ATOM     12  C   UNL d   1     -45.888  10.898  23.541  0.00  0.00     0.101 A 
ATOM     13  C   UNL d   1     -44.725   9.847  23.674  0.00  0.00     0.089 A 
ATOM     14  C   UNL d   1     -43.926  10.001  23.533  0.00  0.00     0.057 A 
ENDBRANCH   1   7
BRANCH   4  15
ATOM     15  N   UNL d   1     -48.130  14.013  22.999  0.00  0.00    -0.208 NA
ATOM     16  C   UNL d   1     -48.681  13.962  22.383  0.00  0.00     0.279 C 
ATOM     17  O   UNL d   1     -49.261  14.537  22.301  0.00  0.00    -0.265 OA
BRANCH  16  18
ATOM     18  C   UNL d   1     -48.643  13.332  21.856  0.00  0.00     0.058 A 
ATOM     19  C   UNL d   1     -49.194  13.279  21.240  0.00  0.00     0.005 A 
ATOM     20  C   UNL d   1     -48.609  12.697  21.321  0.00  0.00     0.005 A 
ENDBRANCH  16  18
ENDBRANCH   4  15
TORSDOF 3
ENDMDL
MODEL 3
REMARK VINA RESULT:      -6.8      2.274      4.499
REMARK  3 active torsions:
REMARK  status: ('A' for Active; 'I' for Inactive)
REMARK    1  A    between atoms: C_12  and  C_4 
REMARK       I    between atoms: C_6  and  N_11 
REMARK    2  A    between atoms: C_7  and  C_6 
REMARK    3  A    between atoms: N_11  and  C_18 
ROOT
ATOM      1  C   UNL d   1     -47.962  13.488  23.119  0.00  0.00     0.019 A 
ATOM      2  C   UNL d   1     -47.878  14.120  22.595  0.00  0.00     0.003 A 
ATOM      3  C   UNL d   1     -48.643  13.410  23.561  0.00  0.00     0.003 A 
ATOM      4  C   UNL d   1     -49.167  14.597  22.959  0.00  0.00     0.085 A 
ATOM      5  C   UNL d   1     -49.248  13.966  23.480  0.00  0.00     0.019 A 
ATOM      6  C   UNL d   1     -48.476  14.670  22.516  0.00  0.00     0.019 A 
ENDROOT
BRANCH   1   7
ATOM      7  C   UNL d   1     -47.355  12.928  23.201  0.00  0.00     0.101 A 
ATOM      8  N   UNL d   1     -47.471  12.185  23.507  0.00  0.00    -0.221 NA
ATOM      9  C   UNL d   1     -46.751  11.786  23.504  0.00  0.00     0.179 A 
ATOM     10  N   UNL d   1     -46.181  12.284  23.192  0.00  0.00    -0.282 N 
ATOM     11  S   UNL d   1     -46.387  11.070  23.697  0.00  0.00    -0.048 SA
ATOM     12  C   UNL d   1     -46.557  12.998  23.003  0.00  0.00     0.101 A 
ATOM     13  C   UNL d   1     -45.460  11.886  23.188  0.00  0.00     0.089 A 
ATOM     14  C   UNL d   1     -45.593  11.133  23.502  0.00  0.00     0.057 A 
ENDBRANCH   1   7
BRANCH   4  15
ATOM     15  N   UNL d   1     -49.773  15.157  22.877  0.00  0.00    -0.208 NA
ATOM     16  C   UNL d   1     -50.420  14.996  22.386  0.00  0.00     0.279 C 
ATOM     17  O   UNL d   1     -51.021  15.548  22.304  0.00  0.00    -0.265 OA
BRANCH  16  18
ATOM     18  C   UNL d   1     -50.455  14.280  21.984  0.00  0.00     0.058 A 
ATOM     19  C   UNL d   1     -51.064  14.146  21.439  0.00  0.00     0.005 A 
ATOM     20  C   UNL d   1     -50.495  13.558  21.575  0.00  0.00     0.005 A 
ENDBRANCH  16  18
ENDBRANCH   4  15
TORSDOF 3
ENDMDL
MODEL 4
REMARK VINA RESULT:      -6.8      0.818      1.323
REMARK  3 active torsions:
REMARK  status: ('A' for Active; 'I' for Inactive)
REMARK    1  A    between atoms: C_12  and  C_4 
REMARK       I    between atoms: C_6  and  N_11 
REMARK    2  A    between atoms: C_7  and  C_6 
REMARK    3  A    between atoms: N_11  and  C_18 
ROOT
ATOM      1  C   UNL d   1     -48.235  13.200  22.990  0.00  0.00     0.019 A 
ATOM      2  C   UNL d   1     -48.162  12.400  22.799  0.00  0.00     0.003 A 
ATOM      3  C   UNL d   1     -47.618  13.592  23.354  0.00  0.00     0.003 A 
ATOM      4  C   UNL d   1     -46.848  12.387  23.343  0.00  0.00     0.085 A 
ATOM      5  C   UNL d   1     -46.923  13.184  23.532  0.00  0.00     0.019 A 
ATOM      6  C   UNL d   1     -47.474  11.998  22.975  0.00  0.00     0.019 A 
ENDROOT
BRANCH   1   7
ATOM      7  C   UNL d   1     -48.933  13.612  22.812  0.00  0.00     0.101 A 
ATOM      8  N   UNL d   1     -49.320  14.085  23.346  0.00  0.00    -0.221 NA
ATOM      9  C   UNL d   1     -49.986  14.401  22.978  0.00  0.00     0.179 A 
ATOM     10  N   UNL d   1     -50.014  14.122  22.210  0.00  0.00    -0.282 N 
ATOM     11  S   UNL d   1     -50.638  14.895  23.095  0.00  0.00    -0.048 SA
ATOM     12  C   UNL d   1     -49.356  13.629  22.104  0.00  0.00     0.101 A 
ATOM     13  C   UNL d   1     -50.680  14.438  21.841  0.00  0.00     0.089 A 
ATOM     14  C   UNL d   1     -51.063  14.916  22.395  0.00  0.00     0.057 A 
ENDBRANCH   1   7
BRANCH   4  15
ATOM     15  N   UNL d   1     -46.150  11.976  23.521  0.00  0.00    -0.208 NA
ATOM     16  C   UNL d   1     -45.468  12.106  23.071  0.00  0.00     0.279 C 
ATOM     17  O   UNL d   1     -44.777  11.701  23.244  0.00  0.00    -0.265 OA
BRANCH  16  18
ATOM     18  C   UNL d   1     -45.490  12.645  22.449  0.00  0.00     0.058 A 
ATOM     19  C   UNL d   1     -44.803  12.790  22.009  0.00  0.00     0.005 A 
ATOM     20  C   UNL d   1     -45.506  13.188  21.822  0.00  0.00     0.005 A 
ENDBRANCH  16  18
ENDBRANCH   4  15
TORSDOF 3
ENDMDL
MODEL 5
REMARK VINA RESULT:      -5.8      8.382      9.363
REMARK  3 active torsions:
REMARK  status: ('A' for Active; 'I' for Inactive)
REMARK    1  A    between atoms: C_12  and  C_4 
REMARK       I    between atoms: C_6  and  N_11 
REMARK    2  A    between atoms: C_7  and  C_6 
REMARK    3  A    between atoms: N_11  and  C_18 
ROOT
ATOM      1  C   UNL d   1     -39.899  15.354  20.550  0.00  0.00     0.019 A 
ATOM      2  C   UNL d   1     -40.486  14.798  20.380  0.00  0.00     0.003 A 
ATOM      3  C   UNL d   1     -39.657  15.881  19.976  0.00  0.00     0.003 A 
ATOM      4  C   UNL d   1     -40.586  15.303  19.055  0.00  0.00     0.085 A 
ATOM      5  C   UNL d   1     -40.001  15.856  19.226  0.00  0.00     0.019 A 
ATOM      6  C   UNL d   1     -40.826  14.773  19.639  0.00  0.00     0.019 A 
ENDROOT
BRANCH   1   7
ATOM      7  C   UNL d   1     -39.552  15.381  21.302  0.00  0.00     0.101 A 
ATOM      8  N   UNL d   1     -39.000  14.844  21.560  0.00  0.00    -0.221 NA
ATOM      9  C   UNL d   1     -38.782  15.043  22.328  0.00  0.00     0.179 A 
ATOM     10  N   UNL d   1     -39.200  15.709  22.552  0.00  0.00    -0.282 N 
ATOM     11  S   UNL d   1     -38.297  14.821  22.959  0.00  0.00    -0.048 SA
ATOM     12  C   UNL d   1     -39.682  15.922  21.912  0.00  0.00     0.101 A 
ATOM     13  C   UNL d   1     -38.981  15.909  23.320  0.00  0.00     0.089 A 
ATOM     14  C   UNL d   1     -38.421  15.355  23.568  0.00  0.00     0.057 A 
ENDBRANCH   1   7
BRANCH   4  15
ATOM     15  N   UNL d   1     -40.933  15.276  18.302  0.00  0.00    -0.208 NA
ATOM     16  C   UNL d   1     -40.605  14.796  17.713  0.00  0.00     0.279 C 
ATOM     17  O   UNL d   1     -40.947  14.767  16.968  0.00  0.00    -0.265 OA
BRANCH  16  18
ATOM     18  C   UNL d   1     -39.935  14.349  17.881  0.00  0.00     0.058 A 
ATOM     19  C   UNL d   1     -39.585  13.896  17.283  0.00  0.00     0.005 A 
ATOM     20  C   UNL d   1     -39.259  13.896  18.046  0.00  0.00     0.005 A 
ENDBRANCH  16  18
ENDBRANCH   4  15
TORSDOF 3
ENDMDL
MODEL 6
REMARK VINA RESULT:      -5.7      8.739      9.763
REMARK  3 active torsions:
REMARK  status: ('A' for Active; 'I' for Inactive)
REMARK    1  A    between atoms: C_12  and  C_4 
REMARK       I    between atoms: C_6  and  N_11 
REMARK    2  A    between atoms: C_7  and  C_6 
REMARK    3  A    between atoms: N_11  and  C_18 
ROOT
ATOM      1  C   UNL d   1     -39.975  14.599  19.625  0.00  0.00     0.019 A 
ATOM      2  C   UNL d   1     -40.176  14.061  19.031  0.00  0.00     0.003 A 
ATOM      3  C   UNL d   1     -40.165  15.388  19.544  0.00  0.00     0.003 A 
ATOM      4  C   UNL d   1     -40.759  15.112  18.272  0.00  0.00     0.085 A 
ATOM      5  C   UNL d   1     -40.558  15.646  18.866  0.00  0.00     0.019 A 
ATOM      6  C   UNL d   1     -40.564  14.317  18.361  0.00  0.00     0.019 A 
ENDROOT
BRANCH   1   7
ATOM      7  C   UNL d   1     -39.580  14.342  20.308  0.00  0.00     0.101 A 
ATOM      8  N   UNL d   1     -38.817  14.063  20.305  0.00  0.00    -0.221 NA
ATOM      9  C   UNL d   1     -38.611  13.861  21.075  0.00  0.00     0.179 A 
ATOM     10  N   UNL d   1     -39.249  14.013  21.563  0.00  0.00    -0.282 N 
ATOM     11  S   UNL d   1     -37.999  13.560  21.542  0.00  0.00    -0.048 SA
ATOM     12  C   UNL d   1     -39.856  14.314  21.085  0.00  0.00     0.101 A 
ATOM     13  C   UNL d   1     -39.044  13.811  22.334  0.00  0.00     0.089 A 
ATOM     14  C   UNL d   1     -38.267  13.530  22.316  0.00  0.00     0.057 A 
ENDBRANCH   1   7
BRANCH   4  15
ATOM     15  N   UNL d   1     -41.154  15.370  17.590  0.00  0.00    -0.208 NA
ATOM     16  C   UNL d   1     -40.720  15.627  16.934  0.00  0.00     0.279 C 
ATOM     17  O   UNL d   1     -41.108  15.882  16.258  0.00  0.00    -0.265 OA
BRANCH  16  18
ATOM     18  C   UNL d   1     -39.898  15.625  16.966  0.00  0.00     0.058 A 
ATOM     19  C   UNL d   1     -39.463  15.921  16.326  0.00  0.00     0.005 A 
ATOM     20  C   UNL d   1     -39.068  15.625  16.993  0.00  0.00     0.005 A 
ENDBRANCH  16  18
ENDBRANCH   4  15
TORSDOF 3
ENDMDL
MODEL 7
REMARK VINA RESULT:      -5.6      8.451     10.153
REMARK  3 active torsions:
REMARK  status: ('A' for Active; 'I' for Inactive)
REMARK    1  A    between atoms: C_12  and  C_4 
REMARK       I    between atoms: C_6  and  N_11 
REMARK    2  A    between atoms: C_7  and  C_6 
REMARK    3  A    between atoms: N_11  and  C_18 
ROOT
ATOM      1  C   UNL d   1     -39.655  14.821  18.004  0.00  0.00     0.019 A 
ATOM      2  C   UNL d   1     -40.321  14.430  18.296  0.00  0.00     0.003 A 
ATOM      3  C   UNL d   1     -39.397  15.509  18.359  0.00  0.00     0.003 A 
ATOM      4  C   UNL d   1     -40.468  15.423  19.303  0.00  0.00     0.085 A 
ATOM      5  C   UNL d   1     -39.804  15.811  19.010  0.00  0.00     0.019 A 
ATOM      6  C   UNL d   1     -40.724  14.729  18.940  0.00  0.00     0.019 A 
ENDROOT
BRANCH   1   7
ATOM      7  C   UNL d   1     -39.244  14.519  17.350  0.00  0.00     0.101 A 
ATOM      8  N   UNL d   1     -38.767  13.864  17.386  0.00  0.00    -0.221 NA
ATOM      9  C   UNL d   1     -38.453  13.729  16.637  0.00  0.00     0.179 A 
ATOM     10  N   UNL d   1     -38.736  14.305  16.130  0.00  0.00    -0.282 N 
ATOM     11  S   UNL d   1     -37.958  13.228  16.204  0.00  0.00    -0.048 SA
ATOM     12  C   UNL d   1     -39.231  14.800  16.574  0.00  0.00     0.101 A 
ATOM     13  C   UNL d   1     -38.423  14.171  15.380  0.00  0.00     0.089 A 
ATOM     14  C   UNL d   1     -37.941  13.502  15.432  0.00  0.00     0.057 A 
ENDBRANCH   1   7
BRANCH   4  15
ATOM     15  N   UNL d   1     -40.879  15.725  19.957  0.00  0.00    -0.208 NA
ATOM     16  C   UNL d   1     -40.675  15.481  20.721  0.00  0.00     0.279 C 
ATOM     17  O   UNL d   1     -41.079  15.778  21.369  0.00  0.00    -0.265 OA
BRANCH  16  18
ATOM     18  C   UNL d   1     -40.064  14.940  20.824  0.00  0.00     0.058 A 
ATOM     19  C   UNL d   1     -39.861  14.693  21.588  0.00  0.00     0.005 A 
ATOM     20  C   UNL d   1     -39.448  14.394  20.933  0.00  0.00     0.005 A 
ENDBRANCH  16  18
ENDBRANCH   4  15
TORSDOF 3
ENDMDL
MODEL 8
REMARK VINA RESULT:      -5.4      8.635      9.993
REMARK  3 active torsions:
REMARK  status: ('A' for Active; 'I' for Inactive)
REMARK    1  A    between atoms: C_12  and  C_4 
REMARK       I    between atoms: C_6  and  N_11 
REMARK    2  A    between atoms: C_7  and  C_6 
REMARK    3  A    between atoms: N_11  and  C_18 
ROOT
ATOM      1  C   UNL d   1     -39.797  15.271  18.107  0.00  0.00     0.019 A 
ATOM      2  C   UNL d   1     -40.210  15.057  17.425  0.00  0.00     0.003 A 
ATOM      3  C   UNL d   1     -39.020  15.516  18.055  0.00  0.00     0.003 A 
ATOM      4  C   UNL d   1     -39.060  15.336  16.637  0.00  0.00     0.085 A 
ATOM      5  C   UNL d   1     -38.651  15.549  17.319  0.00  0.00     0.019 A 
ATOM      6  C   UNL d   1     -39.844  15.090  16.697  0.00  0.00     0.019 A 
ENDROOT
BRANCH   1   7
ATOM      7  C   UNL d   1     -40.167  15.238  18.849  0.00  0.00     0.101 A 
ATOM      8  N   UNL d   1     -40.171  14.575  19.318  0.00  0.00    -0.221 NA
ATOM      9  C   UNL d   1     -40.587  14.746  20.008  0.00  0.00     0.179 A 
ATOM     10  N   UNL d   1     -40.844  15.522  19.969  0.00  0.00    -0.282 N 
ATOM     11  S   UNL d   1     -40.842  14.428  20.726  0.00  0.00    -0.048 SA
ATOM     12  C   UNL d   1     -40.582  15.831  19.245  0.00  0.00     0.101 A 
ATOM     13  C   UNL d   1     -41.260  15.694  20.659  0.00  0.00     0.089 A 
ATOM     14  C   UNL d   1     -41.256  15.012  21.125  0.00  0.00     0.057 A 
ENDBRANCH   1   7
BRANCH   4  15
ATOM     15  N   UNL d   1     -38.690  15.369  15.895  0.00  0.00    -0.208 NA
ATOM     16  C   UNL d   1     -38.306  14.700  15.596  0.00  0.00     0.279 C 
ATOM     17  O   UNL d   1     -37.940  14.729  14.863  0.00  0.00    -0.265 OA
BRANCH  16  18
ATOM     18  C   UNL d   1     -38.295  14.007  16.039  0.00  0.00     0.058 A 
ATOM     19  C   UNL d   1     -37.950  13.324  15.722  0.00  0.00     0.005 A 
ATOM     20  C   UNL d   1     -38.281  13.305  16.482  0.00  0.00     0.005 A 
ENDBRANCH  16  18
ENDBRANCH   4  15
TORSDOF 3
ENDMDL
