MODEL 1
REMARK VINA RESULT:      39.1      0.000      0.000
REMARK  4 active torsions:
REMARK  status: ('A' for Active; 'I' for Inactive)
REMARK    1  A    between atoms: C_7  and  C_1 
REMARK    2  A    between atoms: N_8  and  C_7 
REMARK    3  A    between atoms: C_11  and  N_8 
REMARK    4  A    between atoms: O_13  and  C_12 
ROOT
ATOM      1  C   UNL d   1      13.419  12.765  -3.413  0.00  0.00     0.145 A 
ATOM      2  C   UNL d   1      13.360  13.546  -3.171  0.00  0.00     0.305 A 
ATOM      3  C   UNL d   1      13.552  12.588  -4.213  0.00  0.00     0.305 A 
ATOM      4  O   UNL d   1      13.624  13.195  -4.760  0.00  0.00    -0.269 OA
ATOM      5  O   UNL d   1      13.432  14.148  -3.717  0.00  0.00    -0.269 OA
ATOM      6  C   UNL d   1      13.565  13.971  -4.517  0.00  0.00     0.242 A 
ATOM      7  O   UNL d   1      13.613  11.781  -4.468  0.00  0.00    -0.259 OA
ATOM      8  O   UNL d   1      13.226  13.724  -2.366  0.00  0.00    -0.259 OA
ATOM      9  C   UNL d   1      13.694  14.002  -5.323  0.00  0.00     0.035 A 
ATOM     10  C   UNL d   1      13.482  14.683  -4.110  0.00  0.00     0.035 A 
ATOM     11  C   UNL d   1      13.528  15.388  -4.507  0.00  0.00     0.001 A 
ATOM     12  C   UNL d   1      13.739  14.730  -5.718  0.00  0.00     0.001 A 
ATOM     13  C   UNL d   1      13.652  15.424  -5.290  0.00  0.00    -0.000 A 
ENDROOT
BRANCH   1  14
ATOM     14  C   UNL d   1      13.341  12.171  -2.834  0.00  0.00     0.110 C 
BRANCH  14  15
ATOM     15  N   UNL d   1      14.030  11.838  -2.506  0.00  0.00    -0.242 NA
BRANCH  15  16
ATOM     16  C   UNL d   1      14.119  11.824  -1.681  0.00  0.00     0.104 A 
ATOM     17  C   UNL d   1      14.876  11.796  -1.350  0.00  0.00     0.112 A 
ATOM     18  C   UNL d   1      14.969  11.782  -0.528  0.00  0.00     0.026 A 
ATOM     19  C   UNL d   1      14.308  11.797  -0.018  0.00  0.00     0.002 A 
ATOM     20  C   UNL d   1      13.555  11.825  -0.381  0.00  0.00     0.002 A 
ATOM     21  C   UNL d   1      13.460  11.839  -1.195  0.00  0.00     0.021 A 
BRANCH  17  22
ATOM     22  O   UNL d   1      15.548  11.781  -1.846  0.00  0.00    -0.327 OA
ATOM     23  C   UNL d   1      16.285  11.865  -1.528  0.00  0.00     0.181 C 
ENDBRANCH  17  22
ENDBRANCH  15  16
ENDBRANCH  14  15
ENDBRANCH   1  14
TORSDOF 4
ENDMDL
