MODEL 1
REMARK VINA RESULT:      32.6      0.000      0.000
REMARK  1 active torsions:
REMARK  status: ('A' for Active; 'I' for Inactive)
REMARK    1  A    between atoms: N_14  and  C_8 
ROOT
ATOM      1  C   UNL d   1      13.691  12.828  -3.521  0.00  0.00     0.056 A 
ATOM      2  C   UNL d   1      14.619  12.933  -1.224  0.00  0.00     0.074 A 
ATOM      3  C   UNL d   1      13.097  12.285  -3.702  0.00  0.00    -0.012 A 
ATOM      4  C   UNL d   1      13.999  12.863  -2.758  0.00  0.00    -0.016 A 
ATOM      5  C   UNL d   1      14.021  12.387  -1.406  0.00  0.00    -0.014 A 
ATOM      6  C   UNL d   1      13.713  12.352  -2.168  0.00  0.00    -0.007 A 
ATOM      7  C   UNL d   1      12.813  11.779  -3.119  0.00  0.00    -0.004 A 
ATOM      8  C   UNL d   1      14.811  12.836  -0.426  0.00  0.00     0.089 A 
ATOM      9  C   UNL d   1      14.904  13.444  -1.813  0.00  0.00    -0.017 A 
ATOM     10  C   UNL d   1      13.119  11.809  -2.349  0.00  0.00    -0.001 A 
ATOM     11  C   UNL d   1      14.596  13.409  -2.575  0.00  0.00    -0.008 A 
ATOM     12  C   UNL d   1      13.977  13.335  -4.102  0.00  0.00    -0.015 A 
ATOM     13  C   UNL d   1      13.847  11.956  -0.720  0.00  0.00    -0.002 A 
ATOM     14  C   UNL d   1      12.791  12.252  -4.463  0.00  0.00     0.038 A 
ATOM     15  C   UNL d   1      14.341  12.241  -0.119  0.00  0.00     0.017 A 
ATOM     16  C   UNL d   1      13.669  13.302  -4.868  0.00  0.00     0.038 A 
ATOM     17  C   UNL d   1      13.075  12.759  -5.050  0.00  0.00     0.195 A 
ATOM     18  C   UNL d   1      14.288  13.374  -3.339  0.00  0.00     0.013 C 
ATOM     19  C   UNL d   1      15.212  13.476  -1.043  0.00  0.00     0.015 C 
ATOM     20  O   UNL d   1      12.769  12.726  -5.811  0.00  0.00    -0.287 OA
ENDROOT
BRANCH   8  21
ATOM     21  N   UNL d   1      15.382  13.271  -0.017  0.00  0.00    -0.131 NA
ATOM     22  N   UNL d   1      15.403  14.100  -0.015  0.00  0.00    -0.023 N 
ENDBRANCH   8  21
TORSDOF 1
ENDMDL
