MODEL 1
REMARK VINA RESULT:      87.1      0.000      0.000
REMARK  5 active torsions:
REMARK  status: ('A' for Active; 'I' for Inactive)
REMARK    1  A    between atoms: C_15  and  C_4 
REMARK    2  A    between atoms: S_10  and  C_5 
REMARK    3  A    between atoms: C_17  and  S_10 
REMARK    4  A    between atoms: C_11  and  C_14 
REMARK    5  A    between atoms: C_14  and  C_17 
ROOT
ATOM      1  N   UNL d   1     -56.299 -99.842 -43.486  0.00  0.00    -0.206 N 
ATOM      2  C   UNL d   1     -56.679 -99.657 -44.195  0.00  0.00     0.166 A 
ATOM      3  N   UNL d   1     -57.389 -99.314 -42.771  0.00  0.00    -0.163 NA
ATOM      4  C   UNL d   1     -57.407 -99.304 -44.193  0.00  0.00     0.055 A 
ATOM      5  C   UNL d   1     -55.574-100.193 -43.510  0.00  0.00     0.116 A 
ATOM      6  C   UNL d   1     -57.762 -99.133 -43.469  0.00  0.00     0.104 A 
ATOM      7  N   UNL d   1     -56.323 -99.829 -44.910  0.00  0.00    -0.227 NA
ATOM      8  C   UNL d   1     -55.204-100.372 -44.215  0.00  0.00     0.045 A 
ATOM      9  C   UNL d   1     -55.582-100.188 -44.920  0.00  0.00     0.085 A 
ATOM     10  C   UNL d   1     -58.488 -98.781 -43.470  0.00  0.00     0.023 C 
ATOM     11  C   UNL d   1     -55.210-100.368 -45.666  0.00  0.00     0.021 C 
ENDROOT
BRANCH   5  12
ATOM     12  S   UNL d   1     -55.182-100.383 -42.779  0.00  0.00    -0.064 SA
BRANCH  12  13
ATOM     13  C   UNL d   1     -54.711-100.781 -42.203  0.00  0.00     0.079 C 
BRANCH  13  14
ATOM     14  C   UNL d   1     -54.752-100.542 -41.389  0.00  0.00     0.202 C 
ATOM     15  O   UNL d   1     -54.715 -99.721 -41.193  0.00  0.00    -0.286 OA
BRANCH  14  16
ATOM     16  C   UNL d   1     -54.829-101.118 -40.783  0.00  0.00     0.043 A 
ATOM     17  C   UNL d   1     -54.732-100.902 -39.971  0.00  0.00     0.049 A 
ATOM     18  C   UNL d   1     -54.811-101.491 -39.360  0.00  0.00     0.234 A 
ATOM     19  O   UNL d   1     -54.712-101.272 -38.542  0.00  0.00    -0.283 OA
ATOM     20  C   UNL d   1     -54.986-102.289 -39.565  0.00  0.00     0.234 A 
ATOM     21  C   UNL d   1     -55.085-102.513 -40.372  0.00  0.00     0.045 A 
ATOM     22  O   UNL d   1     -55.065-102.877 -38.965  0.00  0.00    -0.283 OA
ATOM     23  C   UNL d   1     -55.006-101.925 -40.982  0.00  0.00     0.007 A 
ENDBRANCH  14  16
ENDBRANCH  13  14
ENDBRANCH  12  13
ENDBRANCH   5  12
BRANCH   4  24
ATOM     24  C   UNL d   1     -57.781 -99.123 -44.892  0.00  0.00     0.004 A 
ATOM     25  C   UNL d   1     -58.585 -99.116 -44.930  0.00  0.00     0.000 A 
ATOM     26  C   UNL d   1     -58.959 -98.935 -45.629  0.00  0.00     0.000 A 
ATOM     27  C   UNL d   1     -58.529 -98.760 -46.288  0.00  0.00     0.000 A 
ATOM     28  C   UNL d   1     -57.705 -98.768 -46.242  0.00  0.00     0.000 A 
ATOM     29  C   UNL d   1     -57.348 -98.948 -45.548  0.00  0.00     0.000 A 
ENDBRANCH   4  24
TORSDOF 5
ENDMDL
