MODEL 1
REMARK VINA RESULT:      23.0      0.000      0.000
REMARK  3 active torsions:
REMARK  status: ('A' for Active; 'I' for Inactive)
REMARK    1  A    between atoms: N_2  and  S_1 
REMARK    2  A    between atoms: C_5  and  S_1 
REMARK    3  A    between atoms: C_4  and  C_3 
ROOT
ATOM      1  N   UNL d   1      13.458  12.171  -1.298  0.00  0.00    -0.223 N 
ATOM      2  C   UNL d   1      14.072  12.366  -0.774  0.00  0.00     0.127 A 
ATOM      3  S   UNL d   1      13.845  12.124  -0.018  0.00  0.00    -0.065 SA
ATOM      4  C   UNL d   1      12.855  11.810  -0.865  0.00  0.00     0.099 A 
ATOM      5  C   UNL d   1      13.092  11.780  -0.076  0.00  0.00     0.057 A 
ENDROOT
BRANCH   1   6
ATOM      6  S   UNL d   1      13.452  12.315  -2.117  0.00  0.00     0.272 S 
ATOM      7  O   UNL d   1      13.819  12.979  -2.420  0.00  0.00    -0.200 OA
ATOM      8  O   UNL d   1      13.071  11.781  -2.615  0.00  0.00    -0.200 OA
BRANCH   6   9
ATOM      9  C   UNL d   1      13.422  12.421  -2.933  0.00  0.00     0.104 A 
ATOM     10  C   UNL d   1      13.513  11.780  -3.440  0.00  0.00     0.014 A 
ATOM     11  C   UNL d   1      13.483  11.888  -4.253  0.00  0.00     0.012 A 
ATOM     12  C   UNL d   1      13.362  12.645  -4.566  0.00  0.00     0.058 A 
ATOM     13  C   UNL d   1      13.271  13.293  -4.050  0.00  0.00     0.012 A 
ATOM     14 CL   UNL d   1      13.332  12.757  -5.379  0.00  0.00    -0.082 Cl
ATOM     15  C   UNL d   1      13.302  13.177  -3.236  0.00  0.00     0.014 A 
ENDBRANCH   6   9
ENDBRANCH   1   6
BRANCH   2  16
ATOM     16  C   UNL d   1      14.777  12.733  -0.971  0.00  0.00     0.123 A 
ATOM     17  O   UNL d   1      15.288  12.510  -1.581  0.00  0.00    -0.303 OA
ATOM     18  C   UNL d   1      15.928  13.029  -1.582  0.00  0.00     0.123 A 
ATOM     19  C   UNL d   1      15.817  13.576  -0.972  0.00  0.00     0.029 A 
ATOM     20  C   UNL d   1      15.104  13.391  -0.596  0.00  0.00     0.029 A 
ENDBRANCH   2  16
TORSDOF 3
ENDMDL
