MODEL 1
REMARK VINA RESULT:      57.6      0.000      0.000
REMARK  8 active torsions:
REMARK  status: ('A' for Active; 'I' for Inactive)
REMARK       I    between atoms: C_2  and  N_1 
REMARK    1  A    between atoms: C_3  and  N_1 
REMARK    2  A    between atoms: C_4  and  N_1 
REMARK    3  A    between atoms: C_6  and  C_2 
REMARK    4  A    between atoms: C_5  and  C_4 
REMARK    5  A    between atoms: C_7  and  C_5 
REMARK    6  A    between atoms: O_19  and  C_7 
REMARK    7  A    between atoms: C_9  and  O_11 
REMARK    8  A    between atoms: O_11  and  C_16 
ROOT
ATOM      1  N   UNL d   1     -57.935 -99.022 -45.232  0.00  0.00    -0.258 N 
ATOM      2  C   UNL d   1     -57.225 -99.357 -45.484  0.00  0.00     0.266 C 
ATOM      3  O   UNL d   1     -57.146 -99.622 -46.261  0.00  0.00    -0.267 OA
ENDROOT
BRANCH   1   4
ATOM      4  C   UNL d   1     -58.569 -98.952 -45.763  0.00  0.00     0.150 A 
ATOM      5  N   UNL d   1     -59.333 -98.825 -45.482  0.00  0.00    -0.227 NA
ATOM      6  C   UNL d   1     -59.959 -98.757 -46.011  0.00  0.00     0.101 A 
ATOM      7  C   UNL d   1     -59.821 -98.815 -46.828  0.00  0.00     0.021 A 
ATOM      8  C   UNL d   1     -59.058 -98.941 -47.109  0.00  0.00     0.005 A 
ATOM      9  C   UNL d   1     -58.431 -99.010 -46.579  0.00  0.00     0.037 A 
ENDBRANCH   1   4
BRANCH   1  10
ATOM     10  C   UNL d   1     -58.019 -98.757 -44.463  0.00  0.00     0.090 C 
BRANCH  10  11
ATOM     11  C   UNL d   1     -58.773 -98.755 -44.106  0.00  0.00     0.087 C 
BRANCH  11  12
ATOM     12  C   UNL d   1     -58.863 -98.992 -43.322  0.00  0.00     0.297 C 
ATOM     13  O   UNL d   1     -58.213 -99.276 -42.899  0.00  0.00    -0.259 OA
BRANCH  12  14
ATOM     14  O   UNL d   1     -59.602 -98.946 -42.961  0.00  0.00    -0.296 OA
ATOM     15  C   UNL d   1     -59.480 -99.229 -42.189  0.00  0.00     0.185 C 
ENDBRANCH  12  14
ENDBRANCH  11  12
ENDBRANCH  10  11
ENDBRANCH   1  10
BRANCH   2  16
ATOM     16  C   UNL d   1     -56.594 -99.426 -44.956  0.00  0.00     0.057 A 
ATOM     17  C   UNL d   1     -56.161 -98.756 -44.751  0.00  0.00     0.007 A 
ATOM     18  C   UNL d   1     -55.532 -98.831 -44.223  0.00  0.00     0.025 A 
ATOM     19  C   UNL d   1     -55.340 -99.567 -43.905  0.00  0.00     0.103 A 
ATOM     20  C   UNL d   1     -55.779-100.231 -44.116  0.00  0.00     0.025 A 
ATOM     21  C   UNL d   1     -56.414-100.170 -44.647  0.00  0.00     0.007 A 
BRANCH  19  22
ATOM     22  O   UNL d   1     -54.712 -99.641 -43.377  0.00  0.00    -0.273 OA
BRANCH  22  23
ATOM     23  C   UNL d   1     -54.849 -99.607 -42.565  0.00  0.00     0.300 C 
ATOM     24  O   UNL d   1     -54.962-100.301 -42.136  0.00  0.00    -0.259 OA
ATOM     25  C   UNL d   1     -54.873 -98.871 -42.180  0.00  0.00     0.074 C 
ENDBRANCH  22  23
ENDBRANCH  19  22
ENDBRANCH   2  16
TORSDOF 8
ENDMDL
