MODEL 1
REMARK VINA RESULT:      -1.3      0.000      0.000
REMARK  4 active torsions:
REMARK  status: ('A' for Active; 'I' for Inactive)
REMARK    1  A    between atoms: N_3  and  C_1 
REMARK       I    between atoms: C_7  and  N_3 
REMARK    2  A    between atoms: C_12  and  N_3 
REMARK    3  A    between atoms: C_17  and  C_12 
REMARK    4  A    between atoms: N_18  and  C_17 
ROOT
ATOM      1  C   UNL d   1     -42.124-122.968 -50.824  0.00  0.00     0.182 A 
ATOM      2  N   UNL d   1     -42.120-122.230 -51.216  0.00  0.00    -0.222 NA
ATOM      3  S   UNL d   1     -41.880-123.547 -51.368  0.00  0.00    -0.048 SA
ATOM      4  C   UNL d   1     -41.876-122.356 -51.994  0.00  0.00     0.092 A 
ATOM      5  C   UNL d   1     -41.729-123.162 -52.088  0.00  0.00     0.052 A 
ATOM      6  C   UNL d   1     -41.772-121.837 -52.618  0.00  0.00     0.046 A 
ATOM      7  C   UNL d   1     -41.475-123.445 -52.819  0.00  0.00     0.034 A 
ATOM      8  C   UNL d   1     -41.520-122.127 -53.340  0.00  0.00     0.121 A 
ATOM      9  C   UNL d   1     -41.372-122.922 -53.441  0.00  0.00     0.120 A 
ATOM     10  O   UNL d   1     -41.127-123.043 -54.225  0.00  0.00    -0.300 OA
ATOM     11  O   UNL d   1     -41.367-121.745 -54.062  0.00  0.00    -0.299 OA
ATOM     12  C   UNL d   1     -41.124-122.311 -54.611  0.00  0.00     0.304 A 
ENDROOT
BRANCH   1  13
ATOM     13  N   UNL d   1     -42.335-123.091 -50.032  0.00  0.00    -0.251 N 
ATOM     14  C   UNL d   1     -43.120-122.953 -49.801  0.00  0.00     0.267 C 
ATOM     15  O   UNL d   1     -43.675-122.699 -50.345  0.00  0.00    -0.267 OA
ATOM     16  C   UNL d   1     -43.331-123.076 -49.008  0.00  0.00     0.066 C 
BRANCH  13  17
ATOM     17  C   UNL d   1     -41.774-123.348 -49.482  0.00  0.00     0.104 C 
BRANCH  17  18
ATOM     18  C   UNL d   1     -41.389-122.801 -48.999  0.00  0.00     0.100 C 
BRANCH  18  19
ATOM     19  N   UNL d   1     -41.212-122.994 -48.214  0.00  0.00    -0.299 N 
ATOM     20  C   UNL d   1     -41.123-123.784 -47.993  0.00  0.00     0.100 C 
ATOM     21  C   UNL d   1     -41.123-122.397 -47.652  0.00  0.00     0.100 C 
ENDBRANCH  18  19
ENDBRANCH  17  18
ENDBRANCH  13  17
ENDBRANCH   1  13
TORSDOF 4
ENDMDL
MODEL 2
REMARK VINA RESULT:      -1.0      1.376      1.984
REMARK  4 active torsions:
REMARK  status: ('A' for Active; 'I' for Inactive)
REMARK    1  A    between atoms: N_3  and  C_1 
REMARK       I    between atoms: C_7  and  N_3 
REMARK    2  A    between atoms: C_12  and  N_3 
REMARK    3  A    between atoms: C_17  and  C_12 
REMARK    4  A    between atoms: N_18  and  C_17 
ROOT
ATOM      1  C   UNL d   1     -41.641-122.164 -52.121  0.00  0.00     0.182 A 
ATOM      2  N   UNL d   1     -42.249-121.757 -52.526  0.00  0.00    -0.222 NA
ATOM      3  S   UNL d   1     -41.178-122.558 -52.686  0.00  0.00    -0.048 SA
ATOM      4  C   UNL d   1     -42.159-121.901 -53.333  0.00  0.00     0.092 A 
ATOM      5  C   UNL d   1     -41.503-122.392 -53.433  0.00  0.00     0.052 A 
ATOM      6  C   UNL d   1     -42.591-121.647 -53.979  0.00  0.00     0.046 A 
ATOM      7  C   UNL d   1     -41.284-122.627 -54.191  0.00  0.00     0.034 A 
ATOM      8  C   UNL d   1     -42.366-121.884 -54.728  0.00  0.00     0.121 A 
ATOM      9  C   UNL d   1     -41.719-122.369 -54.835  0.00  0.00     0.120 A 
ATOM     10  O   UNL d   1     -41.633-122.511 -55.648  0.00  0.00    -0.300 OA
ATOM     11  O   UNL d   1     -42.688-121.720 -55.476  0.00  0.00    -0.299 OA
ATOM     12  C   UNL d   1     -42.236-122.108 -56.047  0.00  0.00     0.304 A 
ENDROOT
BRANCH   1  13
ATOM     13  N   UNL d   1     -41.529-122.167 -51.299  0.00  0.00    -0.251 N 
ATOM     14  C   UNL d   1     -41.267-121.472 -50.929  0.00  0.00     0.267 C 
ATOM     15  O   UNL d   1     -41.122-120.796 -51.366  0.00  0.00    -0.267 OA
ATOM     16  C   UNL d   1     -41.154-121.476 -50.107  0.00  0.00     0.066 C 
BRANCH  13  17
ATOM     17  C   UNL d   1     -41.674-122.850 -50.857  0.00  0.00     0.104 C 
BRANCH  17  18
ATOM     18  C   UNL d   1     -42.295-122.866 -50.314  0.00  0.00     0.100 C 
BRANCH  18  19
ATOM     19  N   UNL d   1     -42.364-123.496 -49.783  0.00  0.00    -0.299 N 
ATOM     20  C   UNL d   1     -41.689-123.817 -49.433  0.00  0.00     0.100 C 
ATOM     21  C   UNL d   1     -43.107-123.804 -49.601  0.00  0.00     0.100 C 
ENDBRANCH  18  19
ENDBRANCH  17  18
ENDBRANCH  13  17
ENDBRANCH   1  13
TORSDOF 4
ENDMDL
MODEL 3
REMARK VINA RESULT:       0.0      1.449      4.538
REMARK  4 active torsions:
REMARK  status: ('A' for Active; 'I' for Inactive)
REMARK    1  A    between atoms: N_3  and  C_1 
REMARK       I    between atoms: C_7  and  N_3 
REMARK    2  A    between atoms: C_12  and  N_3 
REMARK    3  A    between atoms: C_17  and  C_12 
REMARK    4  A    between atoms: N_18  and  C_17 
ROOT
ATOM      1  C   UNL d   1     -41.782-122.534 -51.950  0.00  0.00     0.182 A 
ATOM      2  N   UNL d   1     -42.523-122.550 -51.563  0.00  0.00    -0.222 NA
ATOM      3  S   UNL d   1     -41.190-122.564 -51.369  0.00  0.00    -0.048 SA
ATOM      4  C   UNL d   1     -42.385-122.590 -50.750  0.00  0.00     0.092 A 
ATOM      5  C   UNL d   1     -41.569-122.598 -50.630  0.00  0.00     0.052 A 
ATOM      6  C   UNL d   1     -42.900-122.618 -50.115  0.00  0.00     0.046 A 
ATOM      7  C   UNL d   1     -41.272-122.636 -49.863  0.00  0.00     0.034 A 
ATOM      8  C   UNL d   1     -42.597-122.656 -49.358  0.00  0.00     0.121 A 
ATOM      9  C   UNL d   1     -41.792-122.665 -49.230  0.00  0.00     0.120 A 
ATOM     10  O   UNL d   1     -41.659-122.705 -48.412  0.00  0.00    -0.300 OA
ATOM     11  O   UNL d   1     -42.973-122.690 -48.617  0.00  0.00    -0.299 OA
ATOM     12  C   UNL d   1     -42.394-122.721 -48.030  0.00  0.00     0.304 A 
ENDROOT
BRANCH   1  13
ATOM     13  N   UNL d   1     -41.669-122.495 -52.770  0.00  0.00    -0.251 N 
ATOM     14  C   UNL d   1     -41.336-123.147 -53.160  0.00  0.00     0.267 C 
ATOM     15  O   UNL d   1     -41.123-123.817 -52.741  0.00  0.00    -0.267 OA
ATOM     16  C   UNL d   1     -41.222-123.108 -53.980  0.00  0.00     0.066 C 
BRANCH  13  17
ATOM     17  C   UNL d   1     -41.883-121.817 -53.193  0.00  0.00     0.104 C 
BRANCH  17  18
ATOM     18  C   UNL d   1     -42.041-121.867 -54.001  0.00  0.00     0.100 C 
BRANCH  18  19
ATOM     19  N   UNL d   1     -42.389-121.229 -54.396  0.00  0.00    -0.299 N 
ATOM     20  C   UNL d   1     -42.167-120.457 -54.208  0.00  0.00     0.100 C 
ATOM     21  C   UNL d   1     -42.958-121.364 -54.977  0.00  0.00     0.100 C 
ENDBRANCH  18  19
ENDBRANCH  17  18
ENDBRANCH  13  17
ENDBRANCH   1  13
TORSDOF 4
ENDMDL
