MODEL 1
REMARK VINA RESULT:      71.6      0.000      0.000
REMARK  3 active torsions:
REMARK  status: ('A' for Active; 'I' for Inactive)
REMARK    1  A    between atoms: C_15  and  C_3 
REMARK    2  A    between atoms: C_10  and  N_4 
REMARK    3  A    between atoms: N_6  and  C_5 
ROOT
ATOM      1  C   UNL d   1      14.068  13.681  -2.620  0.00  0.00     0.070 A 
ATOM      2  C   UNL d   1      13.902  14.042  -3.331  0.00  0.00     0.152 A 
ATOM      3  C   UNL d   1      14.397  14.701  -2.205  0.00  0.00     0.023 A 
ATOM      4  N   UNL d   1      13.976  14.777  -3.527  0.00  0.00    -0.290 N 
ATOM      5  C   UNL d   1      13.947  12.881  -2.531  0.00  0.00     0.153 A 
ATOM      6  C   UNL d   1      14.235  14.998  -2.867  0.00  0.00     0.082 A 
ATOM      7  N   UNL d   1      13.615  13.605  -3.954  0.00  0.00    -0.206 NA
ATOM      8  N   UNL d   1      13.659  12.443  -3.154  0.00  0.00    -0.206 NA
ATOM      9  C   UNL d   1      13.493  12.805  -3.866  0.00  0.00     0.202 A 
ENDROOT
BRANCH   5  10
ATOM     10  N   UNL d   1      14.119  12.511  -1.796  0.00  0.00    -0.285 N 
ATOM     11  C   UNL d   1      13.499  12.329  -1.272  0.00  0.00     0.106 A 
ATOM     12  C   UNL d   1      13.660  11.967  -0.550  0.00  0.00     0.118 A 
ATOM     13  C   UNL d   1      13.039  11.780  -0.014  0.00  0.00     0.028 C 
ATOM     14  O   UNL d   1      14.460  11.779  -0.341  0.00  0.00    -0.304 OA
ATOM     15  C   UNL d   1      15.080  11.961  -0.865  0.00  0.00     0.118 A 
ATOM     16  C   UNL d   1      14.908  12.329  -1.597  0.00  0.00     0.106 A 
ATOM     17  C   UNL d   1      15.869  11.779  -0.665  0.00  0.00     0.028 C 
ENDBRANCH   5  10
BRANCH   3  18
ATOM     18  C   UNL d   1      14.680  14.979  -1.503  0.00  0.00     0.002 A 
ATOM     19  C   UNL d   1      14.397  14.689  -0.798  0.00  0.00     0.000 A 
ATOM     20  C   UNL d   1      14.684  14.970  -0.094  0.00  0.00     0.000 A 
ATOM     21  C   UNL d   1      15.264  15.551  -0.080  0.00  0.00     0.000 A 
ATOM     22  C   UNL d   1      15.550  15.844  -0.796  0.00  0.00     0.000 A 
ATOM     23  C   UNL d   1      15.260  15.559  -1.500  0.00  0.00     0.000 A 
ENDBRANCH   3  18
BRANCH   4  24
ATOM     24  C   UNL d   1      13.818  15.178  -4.235  0.00  0.00     0.066 A 
ATOM     25  C   UNL d   1      13.037  15.307  -4.496  0.00  0.00     0.020 A 
ATOM     26  C   UNL d   1      12.879  15.707  -5.205  0.00  0.00     0.031 A 
ATOM     27  C   UNL d   1      13.509  15.992  -5.676  0.00  0.00     0.140 A 
ATOM     28  C   UNL d   1      14.299  15.872  -5.431  0.00  0.00     0.031 A 
ATOM     29  F   UNL d   1      13.352  16.392  -6.384  0.00  0.00    -0.204 F 
ATOM     30  C   UNL d   1      14.452  15.465  -4.711  0.00  0.00     0.020 A 
ENDBRANCH   4  24
TORSDOF 3
ENDMDL
MODEL 2
REMARK VINA RESULT:      72.6      0.105      1.057
REMARK  3 active torsions:
REMARK  status: ('A' for Active; 'I' for Inactive)
REMARK    1  A    between atoms: C_15  and  C_3 
REMARK    2  A    between atoms: C_10  and  N_4 
REMARK    3  A    between atoms: N_6  and  C_5 
ROOT
ATOM      1  C   UNL d   1      14.064  13.685  -2.641  0.00  0.00     0.070 A 
ATOM      2  C   UNL d   1      13.890  14.045  -3.351  0.00  0.00     0.152 A 
ATOM      3  C   UNL d   1      14.357  14.713  -2.218  0.00  0.00     0.023 A 
ATOM      4  N   UNL d   1      13.941  14.783  -3.542  0.00  0.00    -0.290 N 
ATOM      5  C   UNL d   1      13.969  12.881  -2.557  0.00  0.00     0.153 A 
ATOM      6  C   UNL d   1      14.189  15.008  -2.879  0.00  0.00     0.082 A 
ATOM      7  N   UNL d   1      13.620  13.603  -3.978  0.00  0.00    -0.206 NA
ATOM      8  N   UNL d   1      13.699  12.437  -3.185  0.00  0.00    -0.206 NA
ATOM      9  C   UNL d   1      13.525  12.798  -3.895  0.00  0.00     0.202 A 
ENDROOT
BRANCH   5  10
ATOM     10  N   UNL d   1      14.149  12.513  -1.824  0.00  0.00    -0.285 N 
ATOM     11  C   UNL d   1      14.939  12.330  -1.639  0.00  0.00     0.106 A 
ATOM     12  C   UNL d   1      15.124  11.969  -0.922  0.00  0.00     0.118 A 
ATOM     13  C   UNL d   1      15.921  11.781  -0.727  0.00  0.00     0.028 C 
ATOM     14  O   UNL d   1      14.507  11.783  -0.371  0.00  0.00    -0.304 OA
ATOM     15  C   UNL d   1      13.717  11.966  -0.556  0.00  0.00     0.118 A 
ATOM     16  C   UNL d   1      13.537  12.333  -1.286  0.00  0.00     0.106 A 
ATOM     17  C   UNL d   1      13.105  11.787  -0.018  0.00  0.00     0.028 C 
ENDBRANCH   5  10
BRANCH   3  18
ATOM     18  C   UNL d   1      14.628  14.996  -1.513  0.00  0.00     0.002 A 
ATOM     19  C   UNL d   1      14.308  14.735  -0.812  0.00  0.00     0.000 A 
ATOM     20  C   UNL d   1      14.582  15.022  -0.106  0.00  0.00     0.000 A 
ATOM     21  C   UNL d   1      15.186  15.578  -0.083  0.00  0.00     0.000 A 
ATOM     22  C   UNL d   1      15.509  15.840  -0.795  0.00  0.00     0.000 A 
ATOM     23  C   UNL d   1      15.232  15.551  -1.503  0.00  0.00     0.000 A 
ENDBRANCH   3  18
BRANCH   4  24
ATOM     24  C   UNL d   1      13.774  15.182  -4.249  0.00  0.00     0.066 A 
ATOM     25  C   UNL d   1      14.352  15.276  -4.842  0.00  0.00     0.020 A 
ATOM     26  C   UNL d   1      14.185  15.675  -5.549  0.00  0.00     0.031 A 
ATOM     27  C   UNL d   1      13.423  15.995  -5.680  0.00  0.00     0.140 A 
ATOM     28  C   UNL d   1      12.830  15.912  -5.098  0.00  0.00     0.031 A 
ATOM     29  F   UNL d   1      13.256  16.394  -6.387  0.00  0.00    -0.204 F 
ATOM     30  C   UNL d   1      13.007  15.505  -4.383  0.00  0.00     0.020 A 
ENDBRANCH   4  24
TORSDOF 3
ENDMDL
