MODEL 1
REMARK VINA RESULT:      -9.8      0.000      0.000
REMARK  5 active torsions:
REMARK  status: ('A' for Active; 'I' for Inactive)
REMARK    1  A    between atoms: C_9  and  N_1 
REMARK    2  A    between atoms: C_6  and  C_2 
REMARK    3  A    between atoms: O_10  and  C_6 
REMARK    4  A    between atoms: C_13  and  C_9 
REMARK    5  A    between atoms: C_19  and  O_10 
ROOT
ATOM      1  N   UNL d   1      53.971  32.836  53.557  0.00  0.00    -0.271 N 
ATOM      2  C   UNL d   1      52.751  32.988  53.054  0.00  0.00     0.120 A 
ATOM      3  C   UNL d   1      53.430  33.395  53.286  0.00  0.00     0.177 A 
ATOM      4  C   UNL d   1      53.628  32.089  53.493  0.00  0.00     0.167 A 
ATOM      5  C   UNL d   1      52.877  32.182  53.184  0.00  0.00     0.124 A 
ATOM      6  N   UNL d   1      53.910  31.337  53.680  0.00  0.00    -0.225 NA
ATOM      7  N   UNL d   1      52.398  31.525  53.057  0.00  0.00    -0.241 NA
ATOM      8  C   UNL d   1      53.439  30.680  53.556  0.00  0.00     0.101 A 
ATOM      9  C   UNL d   1      52.682  30.777  53.244  0.00  0.00     0.099 A 
ATOM     10  N   UNL d   1      53.550  34.214  53.253  0.00  0.00    -0.128 N 
ATOM     11  C   UNL d   1      53.725  29.934  53.744  0.00  0.00     0.021 A 
ATOM     12  C   UNL d   1      52.208  30.107  53.120  0.00  0.00     0.021 A 
ATOM     13  C   UNL d   1      53.245  29.269  53.617  0.00  0.00     0.002 A 
ATOM     14  C   UNL d   1      52.496  29.365  53.308  0.00  0.00     0.002 A 
ENDROOT
BRANCH   2  15
ATOM     15  C   UNL d   1      52.060  33.334  52.744  0.00  0.00     0.300 C 
ATOM     16  O   UNL d   1      51.912  33.303  51.944  0.00  0.00    -0.259 OA
BRANCH  15  17
ATOM     17  O   UNL d   1      51.523  33.710  53.257  0.00  0.00    -0.303 OA
BRANCH  17  18
ATOM     18  C   UNL d   1      50.816  34.005  52.953  0.00  0.00     0.102 C 
ATOM     19  C   UNL d   1      50.392  33.405  53.346  0.00  0.00     0.030 C 
ATOM     20  C   UNL d   1      51.231  34.604  52.560  0.00  0.00     0.030 C 
ATOM     21  C   UNL d   1      50.104  34.306  52.645  0.00  0.00     0.030 C 
ENDBRANCH  17  18
ENDBRANCH  15  17
ENDBRANCH   2  15
BRANCH   1  22
ATOM     22  C   UNL d   1      54.726  32.998  53.843  0.00  0.00     0.108 C 
BRANCH  22  23
ATOM     23  C   UNL d   1      54.824  33.285  54.615  0.00  0.00     0.118 A 
ATOM     24  O   UNL d   1      54.460  32.983  55.291  0.00  0.00    -0.304 OA
ATOM     25  C   UNL d   1      54.715  33.439  55.937  0.00  0.00     0.123 A 
ATOM     26  C   UNL d   1      55.228  34.008  55.648  0.00  0.00     0.029 A 
ATOM     27  C   UNL d   1      55.297  33.918  54.838  0.00  0.00     0.028 A 
ENDBRANCH  22  23
ENDBRANCH   1  22
TORSDOF 5
ENDMDL
MODEL 2
REMARK VINA RESULT:      -9.5      0.948      3.120
REMARK  5 active torsions:
REMARK  status: ('A' for Active; 'I' for Inactive)
REMARK    1  A    between atoms: C_9  and  N_1 
REMARK    2  A    between atoms: C_6  and  C_2 
REMARK    3  A    between atoms: O_10  and  C_6 
REMARK    4  A    between atoms: C_13  and  C_9 
REMARK    5  A    between atoms: C_19  and  O_10 
ROOT
ATOM      1  N   UNL d   1      53.136  31.851  53.216  0.00  0.00    -0.271 N 
ATOM      2  C   UNL d   1      52.219  32.809  53.308  0.00  0.00     0.120 A 
ATOM      3  C   UNL d   1      52.377  32.069  52.978  0.00  0.00     0.177 A 
ATOM      4  C   UNL d   1      53.442  32.453  53.690  0.00  0.00     0.167 A 
ATOM      5  C   UNL d   1      52.879  33.041  53.747  0.00  0.00     0.124 A 
ATOM      6  N   UNL d   1      54.167  32.532  54.076  0.00  0.00    -0.225 NA
ATOM      7  N   UNL d   1      53.031  33.718  54.190  0.00  0.00    -0.241 NA
ATOM      8  C   UNL d   1      54.325  33.202  54.518  0.00  0.00     0.101 A 
ATOM      9  C   UNL d   1      53.753  33.795  54.573  0.00  0.00     0.099 A 
ATOM     10  N   UNL d   1      51.872  31.625  52.495  0.00  0.00    -0.128 N 
ATOM     11  C   UNL d   1      55.047  33.276  54.900  0.00  0.00     0.021 A 
ATOM     12  C   UNL d   1      53.919  34.473  55.023  0.00  0.00     0.021 A 
ATOM     13  C   UNL d   1      55.204  33.958  55.348  0.00  0.00     0.002 A 
ATOM     14  C   UNL d   1      54.640  34.543  55.402  0.00  0.00     0.002 A 
ENDROOT
BRANCH   2  15
ATOM     15  C   UNL d   1      51.514  33.242  53.212  0.00  0.00     0.300 C 
ATOM     16  O   UNL d   1      50.833  32.999  53.585  0.00  0.00    -0.259 OA
BRANCH  15  17
ATOM     17  O   UNL d   1      51.513  33.923  52.734  0.00  0.00    -0.303 OA
BRANCH  17  18
ATOM     18  C   UNL d   1      50.793  34.259  52.515  0.00  0.00     0.102 C 
ATOM     19  C   UNL d   1      50.948  34.079  51.717  0.00  0.00     0.030 C 
ATOM     20  C   UNL d   1      50.633  34.441  53.307  0.00  0.00     0.030 C 
ATOM     21  C   UNL d   1      50.065  34.599  52.298  0.00  0.00     0.030 C 
ENDBRANCH  17  18
ENDBRANCH  15  17
ENDBRANCH   2  15
BRANCH   1  22
ATOM     22  C   UNL d   1      53.521  31.152  53.015  0.00  0.00     0.108 C 
BRANCH  22  23
ATOM     23  C   UNL d   1      53.342  30.450  53.419  0.00  0.00     0.118 A 
ATOM     24  O   UNL d   1      53.556  30.275  54.197  0.00  0.00    -0.304 OA
ATOM     25  C   UNL d   1      53.264  29.518  54.372  0.00  0.00     0.123 A 
ATOM     26  C   UNL d   1      52.879  29.242  53.703  0.00  0.00     0.029 A 
ATOM     27  C   UNL d   1      52.924  29.811  53.117  0.00  0.00     0.028 A 
ENDBRANCH  22  23
ENDBRANCH   1  22
TORSDOF 5
ENDMDL
MODEL 3
REMARK VINA RESULT:      -9.2      0.695      3.375
REMARK  5 active torsions:
REMARK  status: ('A' for Active; 'I' for Inactive)
REMARK    1  A    between atoms: C_9  and  N_1 
REMARK    2  A    between atoms: C_6  and  C_2 
REMARK    3  A    between atoms: O_10  and  C_6 
REMARK    4  A    between atoms: C_13  and  C_9 
REMARK    5  A    between atoms: C_19  and  O_10 
ROOT
ATOM      1  N   UNL d   1      52.540  33.253  52.923  0.00  0.00    -0.271 N 
ATOM      2  C   UNL d   1      53.381  33.252  53.953  0.00  0.00     0.120 A 
ATOM      3  C   UNL d   1      52.944  33.740  53.451  0.00  0.00     0.177 A 
ATOM      4  C   UNL d   1      52.727  32.469  53.098  0.00  0.00     0.167 A 
ATOM      5  C   UNL d   1      53.244  32.468  53.731  0.00  0.00     0.124 A 
ATOM      6  N   UNL d   1      52.487  31.758  52.756  0.00  0.00    -0.225 NA
ATOM      7  N   UNL d   1      53.529  31.756  54.031  0.00  0.00    -0.241 NA
ATOM      8  C   UNL d   1      52.767  31.047  53.049  0.00  0.00     0.101 A 
ATOM      9  C   UNL d   1      53.288  31.050  53.689  0.00  0.00     0.099 A 
ATOM     10  N   UNL d   1      52.914  34.568  53.471  0.00  0.00    -0.128 N 
ATOM     11  C   UNL d   1      52.525  30.343  52.705  0.00  0.00     0.021 A 
ATOM     12  C   UNL d   1      53.568  30.325  53.982  0.00  0.00     0.021 A 
ATOM     13  C   UNL d   1      52.810  29.622  53.005  0.00  0.00     0.002 A 
ATOM     14  C   UNL d   1      53.325  29.625  53.637  0.00  0.00     0.002 A 
ENDROOT
BRANCH   2  15
ATOM     15  C   UNL d   1      53.873  33.509  54.573  0.00  0.00     0.300 C 
ATOM     16  O   UNL d   1      53.556  33.909  55.206  0.00  0.00    -0.259 OA
BRANCH  15  17
ATOM     17  O   UNL d   1      54.690  33.352  54.540  0.00  0.00    -0.303 OA
BRANCH  17  18
ATOM     18  C   UNL d   1      55.193  33.730  55.072  0.00  0.00     0.102 C 
ATOM     19  C   UNL d   1      55.624  34.057  54.440  0.00  0.00     0.030 C 
ATOM     20  C   UNL d   1      54.769  33.408  55.707  0.00  0.00     0.030 C 
ATOM     21  C   UNL d   1      55.699  34.109  55.613  0.00  0.00     0.030 C 
ENDBRANCH  17  18
ENDBRANCH  15  17
ENDBRANCH   2  15
BRANCH   1  22
ATOM     22  C   UNL d   1      52.037  33.507  52.323  0.00  0.00     0.108 C 
BRANCH  22  23
ATOM     23  C   UNL d   1      51.274  33.775  52.509  0.00  0.00     0.118 A 
ATOM     24  O   UNL d   1      50.770  33.441  53.070  0.00  0.00    -0.304 OA
ATOM     25  C   UNL d   1      50.068  33.885  53.072  0.00  0.00     0.123 A 
ATOM     26  C   UNL d   1      50.153  34.480  52.515  0.00  0.00     0.029 A 
ATOM     27  C   UNL d   1      50.891  34.416  52.168  0.00  0.00     0.028 A 
ENDBRANCH  22  23
ENDBRANCH   1  22
TORSDOF 5
ENDMDL
MODEL 4
REMARK VINA RESULT:      -8.9      1.134      4.045
REMARK  5 active torsions:
REMARK  status: ('A' for Active; 'I' for Inactive)
REMARK    1  A    between atoms: C_9  and  N_1 
REMARK    2  A    between atoms: C_6  and  C_2 
REMARK    3  A    between atoms: O_10  and  C_6 
REMARK    4  A    between atoms: C_13  and  C_9 
REMARK    5  A    between atoms: C_19  and  O_10 
ROOT
ATOM      1  N   UNL d   1      52.745  32.696  52.924  0.00  0.00    -0.271 N 
ATOM      2  C   UNL d   1      53.275  31.601  53.460  0.00  0.00     0.120 A 
ATOM      3  C   UNL d   1      52.756  31.873  52.879  0.00  0.00     0.177 A 
ATOM      4  C   UNL d   1      53.255  32.930  53.529  0.00  0.00     0.167 A 
ATOM      5  C   UNL d   1      53.581  32.257  53.858  0.00  0.00     0.124 A 
ATOM      6  N   UNL d   1      53.460  33.675  53.816  0.00  0.00    -0.225 NA
ATOM      7  N   UNL d   1      54.117  32.319  54.480  0.00  0.00    -0.241 NA
ATOM      8  C   UNL d   1      53.992  33.744  54.434  0.00  0.00     0.101 A 
ATOM      9  C   UNL d   1      54.319  33.063  54.765  0.00  0.00     0.099 A 
ATOM     10  N   UNL d   1      52.323  31.408  52.348  0.00  0.00    -0.128 N 
ATOM     11  C   UNL d   1      54.192  34.488  54.716  0.00  0.00     0.021 A 
ATOM     12  C   UNL d   1      54.858  33.139  55.392  0.00  0.00     0.021 A 
ATOM     13  C   UNL d   1      54.732  34.555  55.344  0.00  0.00     0.002 A 
ATOM     14  C   UNL d   1      55.055  33.881  55.671  0.00  0.00     0.002 A 
ENDROOT
BRANCH   2  15
ATOM     15  C   UNL d   1      53.457  30.804  53.615  0.00  0.00     0.300 C 
ATOM     16  O   UNL d   1      54.140  30.476  53.319  0.00  0.00    -0.259 OA
BRANCH  15  17
ATOM     17  O   UNL d   1      52.935  30.345  54.073  0.00  0.00    -0.303 OA
BRANCH  17  18
ATOM     18  C   UNL d   1      53.140  29.570  54.262  0.00  0.00     0.102 C 
ATOM     19  C   UNL d   1      53.036  29.344  53.467  0.00  0.00     0.030 C 
ATOM     20  C   UNL d   1      53.245  29.787  55.054  0.00  0.00     0.030 C 
ATOM     21  C   UNL d   1      53.348  28.788  54.457  0.00  0.00     0.030 C 
ENDBRANCH  17  18
ENDBRANCH  15  17
ENDBRANCH   2  15
BRANCH   1  22
ATOM     22  C   UNL d   1      52.301  33.198  52.446  0.00  0.00     0.108 C 
BRANCH  22  23
ATOM     23  C   UNL d   1      51.566  33.477  52.710  0.00  0.00     0.118 A 
ATOM     24  O   UNL d   1      51.040  33.066  53.195  0.00  0.00    -0.304 OA
ATOM     25  C   UNL d   1      50.379  33.553  53.317  0.00  0.00     0.123 A 
ATOM     26  C   UNL d   1      50.509  34.250  52.908  0.00  0.00     0.029 A 
ATOM     27  C   UNL d   1      51.236  34.208  52.534  0.00  0.00     0.028 A 
ENDBRANCH  22  23
ENDBRANCH   1  22
TORSDOF 5
ENDMDL
MODEL 5
REMARK VINA RESULT:      -8.7      1.028      3.230
REMARK  5 active torsions:
REMARK  status: ('A' for Active; 'I' for Inactive)
REMARK    1  A    between atoms: C_9  and  N_1 
REMARK    2  A    between atoms: C_6  and  C_2 
REMARK    3  A    between atoms: O_10  and  C_6 
REMARK    4  A    between atoms: C_13  and  C_9 
REMARK    5  A    between atoms: C_19  and  O_10 
ROOT
ATOM      1  N   UNL d   1      53.718  33.220  53.491  0.00  0.00    -0.271 N 
ATOM      2  C   UNL d   1      53.123  32.071  53.184  0.00  0.00     0.120 A 
ATOM      3  C   UNL d   1      53.845  32.410  53.399  0.00  0.00     0.177 A 
ATOM      4  C   UNL d   1      52.924  33.378  53.334  0.00  0.00     0.167 A 
ATOM      5  C   UNL d   1      52.558  32.673  53.146  0.00  0.00     0.124 A 
ATOM      6  N   UNL d   1      52.493  34.081  53.341  0.00  0.00    -0.225 NA
ATOM      7  N   UNL d   1      51.756  32.659  52.961  0.00  0.00    -0.241 NA
ATOM      8  C   UNL d   1      51.696  34.075  53.159  0.00  0.00     0.101 A 
ATOM      9  C   UNL d   1      51.329  33.361  52.969  0.00  0.00     0.099 A 
ATOM     10  N   UNL d   1      54.564  32.014  53.504  0.00  0.00    -0.128 N 
ATOM     11  C   UNL d   1      51.272  34.777  53.167  0.00  0.00     0.021 A 
ATOM     12  C   UNL d   1      50.519  33.360  52.784  0.00  0.00     0.021 A 
ATOM     13  C   UNL d   1      50.462  34.768  52.981  0.00  0.00     0.002 A 
ATOM     14  C   UNL d   1      50.100  34.062  52.794  0.00  0.00     0.002 A 
ENDROOT
BRANCH   2  15
ATOM     15  C   UNL d   1      52.993  31.263  53.034  0.00  0.00     0.300 C 
ATOM     16  O   UNL d   1      52.977  30.988  52.268  0.00  0.00    -0.259 OA
BRANCH  15  17
ATOM     17  O   UNL d   1      52.878  30.740  53.671  0.00  0.00    -0.303 OA
BRANCH  17  18
ATOM     18  C   UNL d   1      52.794  29.935  53.520  0.00  0.00     0.102 C 
ATOM     19  C   UNL d   1      53.614  29.827  53.612  0.00  0.00     0.030 C 
ATOM     20  C   UNL d   1      51.977  30.034  53.427  0.00  0.00     0.030 C 
ATOM     21  C   UNL d   1      52.704  29.121  53.367  0.00  0.00     0.030 C 
ENDBRANCH  17  18
ENDBRANCH  15  17
ENDBRANCH   2  15
BRANCH   1  22
ATOM     22  C   UNL d   1      54.288  33.774  53.704  0.00  0.00     0.108 C 
BRANCH  22  23
ATOM     23  C   UNL d   1      54.519  33.847  54.497  0.00  0.00     0.118 A 
ATOM     24  O   UNL d   1      54.046  34.126  55.113  0.00  0.00    -0.304 OA
ATOM     25  C   UNL d   1      54.500  34.103  55.808  0.00  0.00     0.123 A 
ATOM     26  C   UNL d   1      55.240  33.812  55.608  0.00  0.00     0.029 A 
ATOM     27  C   UNL d   1      55.255  33.653  54.805  0.00  0.00     0.028 A 
ENDBRANCH  22  23
ENDBRANCH   1  22
TORSDOF 5
ENDMDL
MODEL 6
REMARK VINA RESULT:      -8.1      1.103      3.920
REMARK  5 active torsions:
REMARK  status: ('A' for Active; 'I' for Inactive)
REMARK    1  A    between atoms: C_9  and  N_1 
REMARK    2  A    between atoms: C_6  and  C_2 
REMARK    3  A    between atoms: O_10  and  C_6 
REMARK    4  A    between atoms: C_13  and  C_9 
REMARK    5  A    between atoms: C_19  and  O_10 
ROOT
ATOM      1  N   UNL d   1      53.040  31.691  52.951  0.00  0.00    -0.271 N 
ATOM      2  C   UNL d   1      53.691  32.675  53.562  0.00  0.00     0.120 A 
ATOM      3  C   UNL d   1      53.749  31.888  53.323  0.00  0.00     0.177 A 
ATOM      4  C   UNL d   1      52.549  32.354  52.961  0.00  0.00     0.167 A 
ATOM      5  C   UNL d   1      52.949  32.959  53.336  0.00  0.00     0.124 A 
ATOM      6  N   UNL d   1      51.787  32.475  52.672  0.00  0.00    -0.225 NA
ATOM      7  N   UNL d   1      52.592  33.695  53.429  0.00  0.00    -0.241 NA
ATOM      8  C   UNL d   1      51.426  33.205  52.760  0.00  0.00     0.101 A 
ATOM      9  C   UNL d   1      51.833  33.814  53.141  0.00  0.00     0.099 A 
ATOM     10  N   UNL d   1      54.397  31.385  53.434  0.00  0.00    -0.128 N 
ATOM     11  C   UNL d   1      50.667  33.320  52.471  0.00  0.00     0.021 A 
ATOM     12  C   UNL d   1      51.462  34.552  53.228  0.00  0.00     0.021 A 
ATOM     13  C   UNL d   1      50.304  34.062  52.563  0.00  0.00     0.002 A 
ATOM     14  C   UNL d   1      50.706  34.663  52.938  0.00  0.00     0.002 A 
ENDROOT
BRANCH   2  15
ATOM     15  C   UNL d   1      54.281  33.106  53.962  0.00  0.00     0.300 C 
ATOM     16  O   UNL d   1      55.006  33.226  53.613  0.00  0.00    -0.259 OA
BRANCH  15  17
ATOM     17  O   UNL d   1      54.124  33.412  54.719  0.00  0.00    -0.303 OA
BRANCH  17  18
ATOM     18  C   UNL d   1      54.752  33.655  55.194  0.00  0.00     0.102 C 
ATOM     19  C   UNL d   1      54.925  34.269  54.659  0.00  0.00     0.030 C 
ATOM     20  C   UNL d   1      54.586  33.047  55.731  0.00  0.00     0.030 C 
ATOM     21  C   UNL d   1      55.386  33.897  55.676  0.00  0.00     0.030 C 
ENDBRANCH  17  18
ENDBRANCH  15  17
ENDBRANCH   2  15
BRANCH   1  22
ATOM     22  C   UNL d   1      52.856  30.958  52.625  0.00  0.00     0.108 C 
BRANCH  22  23
ATOM     23  C   UNL d   1      52.680  30.317  53.121  0.00  0.00     0.118 A 
ATOM     24  O   UNL d   1      51.938  30.144  53.438  0.00  0.00    -0.304 OA
ATOM     25  C   UNL d   1      52.017  29.458  53.899  0.00  0.00     0.123 A 
ATOM     26  C   UNL d   1      52.801  29.223  53.857  0.00  0.00     0.029 A 
ATOM     27  C   UNL d   1      53.211  29.748  53.381  0.00  0.00     0.028 A 
ENDBRANCH  22  23
ENDBRANCH   1  22
TORSDOF 5
ENDMDL
