MODEL 1
REMARK VINA RESULT:      -7.3      0.000      0.000
REMARK  3 active torsions:
REMARK  status: ('A' for Active; 'I' for Inactive)
REMARK    1  A    between atoms: N_3  and  C_1 
REMARK    2  A    between atoms: C_5  and  C_2 
REMARK       I    between atoms: C_4  and  N_3 
REMARK    3  A    between atoms: C_10  and  C_4 
ROOT
ATOM      1  N   UNL d   1     -48.897  13.695  22.544  0.00  0.00    -0.201 NA
ATOM      2  C   UNL d   1     -48.431  13.073  22.265  0.00  0.00     0.280 C 
ATOM      3  O   UNL d   1     -48.713  12.579  21.669  0.00  0.00    -0.265 OA
ENDROOT
BRANCH   1   4
ATOM      4  C   UNL d   1     -49.646  13.821  22.224  0.00  0.00     0.119 A 
ATOM      5  C   UNL d   1     -50.143  14.464  22.385  0.00  0.00     0.084 A 
ATOM      6  C   UNL d   1     -50.842  14.365  21.942  0.00  0.00     0.014 A 
ATOM      7  C   UNL d   1     -50.769  13.662  21.512  0.00  0.00     0.037 A 
ATOM      8  S   UNL d   1     -50.034  13.332  21.689  0.00  0.00    -0.067 SA
BRANCH   5   9
ATOM      9  C   UNL d   1     -49.981  15.093  22.892  0.00  0.00     0.299 C 
ATOM     10  O   UNL d   1     -49.624  15.781  22.592  0.00  0.00    -0.264 OA
ATOM     11  N   UNL d   1     -50.172  15.042  23.696  0.00  0.00    -0.102 N 
ENDBRANCH   5   9
ENDBRANCH   1   4
BRANCH   2  12
ATOM     12  C   UNL d   1     -47.685  12.951  22.587  0.00  0.00     0.058 A 
ATOM     13  C   UNL d   1     -47.038  13.357  22.278  0.00  0.00     0.005 A 
ATOM     14  C   UNL d   1     -46.288  13.230  22.608  0.00  0.00     0.000 A 
ATOM     15  C   UNL d   1     -46.191  12.706  23.235  0.00  0.00     0.000 A 
ATOM     16  C   UNL d   1     -46.845  12.305  23.537  0.00  0.00     0.000 A 
ATOM     17  C   UNL d   1     -47.596  12.426  23.214  0.00  0.00     0.005 A 
ENDBRANCH   2  12
TORSDOF 3
ENDMDL
MODEL 2
REMARK VINA RESULT:      -7.1      1.316      3.704
REMARK  3 active torsions:
REMARK  status: ('A' for Active; 'I' for Inactive)
REMARK    1  A    between atoms: N_3  and  C_1 
REMARK    2  A    between atoms: C_5  and  C_2 
REMARK       I    between atoms: C_4  and  N_3 
REMARK    3  A    between atoms: C_10  and  C_4 
ROOT
ATOM      1  N   UNL d   1     -48.356  13.820  22.967  0.00  0.00    -0.201 NA
ATOM      2  C   UNL d   1     -48.584  14.597  22.803  0.00  0.00     0.280 C 
ATOM      3  O   UNL d   1     -48.025  15.150  22.558  0.00  0.00    -0.265 OA
ENDROOT
BRANCH   1   4
ATOM      4  C   UNL d   1     -47.565  13.600  22.885  0.00  0.00     0.119 A 
ATOM      5  C   UNL d   1     -47.274  12.825  22.879  0.00  0.00     0.084 A 
ATOM      6  C   UNL d   1     -46.446  12.863  22.783  0.00  0.00     0.014 A 
ATOM      7  C   UNL d   1     -46.237  13.660  22.731  0.00  0.00     0.037 A 
ATOM      8  S   UNL d   1     -46.927  14.110  22.794  0.00  0.00    -0.067 SA
BRANCH   5   9
ATOM      9  C   UNL d   1     -47.718  12.134  22.953  0.00  0.00     0.299 C 
ATOM     10  O   UNL d   1     -48.067  11.796  22.280  0.00  0.00    -0.264 OA
ATOM     11  N   UNL d   1     -47.815  11.778  23.694  0.00  0.00    -0.102 N 
ENDBRANCH   5   9
ENDBRANCH   1   4
BRANCH   2  12
ATOM     12  C   UNL d   1     -49.373  14.811  22.886  0.00  0.00     0.058 A 
ATOM     13  C   UNL d   1     -49.909  14.628  22.289  0.00  0.00     0.005 A 
ATOM     14  C   UNL d   1     -50.704  14.847  22.379  0.00  0.00     0.000 A 
ATOM     15  C   UNL d   1     -50.953  15.243  23.057  0.00  0.00     0.000 A 
ATOM     16  C   UNL d   1     -50.408  15.421  23.649  0.00  0.00     0.000 A 
ATOM     17  C   UNL d   1     -49.614  15.206  23.566  0.00  0.00     0.005 A 
ENDBRANCH   2  12
TORSDOF 3
ENDMDL
