MODEL 1
REMARK VINA RESULT:       1.0      0.000      0.000
REMARK  7 active torsions:
REMARK  status: ('A' for Active; 'I' for Inactive)
REMARK    1  A    between atoms: C_7  and  C_1 
REMARK    2  A    between atoms: C_8  and  C_3 
REMARK    3  A    between atoms: O_17  and  C_7 
REMARK    4  A    between atoms: N_11  and  C_10 
REMARK    5  A    between atoms: C_19  and  N_11 
REMARK    6  A    between atoms: C_20  and  N_11 
REMARK    7  A    between atoms: C_21  and  O_17 
ROOT
ATOM      1  C   UNL d   1      59.064  -0.771  29.570  0.00  0.00     0.099 A 
ATOM      2  C   UNL d   1      59.699  -0.844  29.070  0.00  0.00     0.093 A 
ATOM      3  C   UNL d   1      59.075  -0.212  30.193  0.00  0.00     0.093 A 
ATOM      4  C   UNL d   1      60.371   0.196  29.804  0.00  0.00     0.369 A 
ATOM      5  N   UNL d   1      60.359  -0.362  29.181  0.00  0.00    -0.191 NA
ATOM      6  N   UNL d   1      59.721   0.265  30.307  0.00  0.00    -0.191 NA
ATOM      7  O   UNL d   1      61.044   0.682  29.910  0.00  0.00    -0.242 OA
ATOM      8  C   UNL d   1      59.688  -1.396  28.455  0.00  0.00     0.021 C 
ENDROOT
BRANCH   3   9
ATOM      9  C   UNL d   1      58.425  -0.143  30.697  0.00  0.00     0.018 A 
ATOM     10  C   UNL d   1      58.279  -0.724  31.264  0.00  0.00     0.003 A 
ATOM     11  C   UNL d   1      57.629  -0.655  31.767  0.00  0.00     0.018 A 
ATOM     12  C   UNL d   1      57.118  -0.012  31.714  0.00  0.00     0.064 A 
ATOM     13  C   UNL d   1      57.265   0.568  31.148  0.00  0.00     0.018 A 
ATOM     14  C   UNL d   1      57.914   0.500  30.645  0.00  0.00     0.003 A 
BRANCH  12  15
ATOM     15  N   UNL d   1      56.456   0.049  32.235  0.00  0.00    -0.304 N 
BRANCH  15  16
ATOM     16  C   UNL d   1      56.402   0.668  32.767  0.00  0.00     0.080 C 
ATOM     17  C   UNL d   1      56.504   0.536  33.571  0.00  0.00     0.021 C 
ENDBRANCH  15  16
BRANCH  15  18
ATOM     18  C   UNL d   1      55.873  -0.520  32.197  0.00  0.00     0.080 C 
ATOM     19  C   UNL d   1      55.662  -0.921  32.874  0.00  0.00     0.021 C 
ENDBRANCH  15  18
ENDBRANCH  12  15
ENDBRANCH   3   9
BRANCH   1  20
ATOM     20  C   UNL d   1      58.389  -1.267  29.453  0.00  0.00     0.303 C 
ATOM     21  O   UNL d   1      57.687  -0.940  29.169  0.00  0.00    -0.259 OA
BRANCH  20  22
ATOM     22  O   UNL d   1      58.430  -2.071  29.620  0.00  0.00    -0.271 OA
BRANCH  22  23
ATOM     23  C   UNL d   1      58.027  -2.613  29.146  0.00  0.00     0.126 C 
ATOM     24  C   UNL d   1      58.249  -3.408  29.146  0.00  0.00     0.029 C 
ENDBRANCH  22  23
ENDBRANCH  20  22
ENDBRANCH   1  20
TORSDOF 7
ENDMDL
MODEL 2
REMARK VINA RESULT:       2.0      1.634      4.304
REMARK  7 active torsions:
REMARK  status: ('A' for Active; 'I' for Inactive)
REMARK    1  A    between atoms: C_7  and  C_1 
REMARK    2  A    between atoms: C_8  and  C_3 
REMARK    3  A    between atoms: O_17  and  C_7 
REMARK    4  A    between atoms: N_11  and  C_10 
REMARK    5  A    between atoms: C_19  and  N_11 
REMARK    6  A    between atoms: C_20  and  N_11 
REMARK    7  A    between atoms: C_21  and  O_17 
ROOT
ATOM      1  C   UNL d   1      58.047  -0.672  30.296  0.00  0.00     0.099 A 
ATOM      2  C   UNL d   1      57.616  -0.131  30.721  0.00  0.00     0.093 A 
ATOM      3  C   UNL d   1      57.970  -1.491  30.446  0.00  0.00     0.093 A 
ATOM      4  C   UNL d   1      57.020  -1.217  31.455  0.00  0.00     0.369 A 
ATOM      5  N   UNL d   1      57.097  -0.397  31.305  0.00  0.00    -0.191 NA
ATOM      6  N   UNL d   1      57.462  -1.759  31.019  0.00  0.00    -0.191 NA
ATOM      7  O   UNL d   1      56.491  -1.479  32.050  0.00  0.00    -0.242 OA
ATOM      8  C   UNL d   1      57.692   0.678  30.573  0.00  0.00     0.021 C 
ENDROOT
BRANCH   3   9
ATOM      9  C   UNL d   1      58.413  -2.034  30.010  0.00  0.00     0.018 A 
ATOM     10  C   UNL d   1      59.111  -2.343  30.320  0.00  0.00     0.003 A 
ATOM     11  C   UNL d   1      59.553  -2.884  29.884  0.00  0.00     0.018 A 
ATOM     12  C   UNL d   1      59.309  -3.126  29.136  0.00  0.00     0.064 A 
ATOM     13  C   UNL d   1      58.610  -2.817  28.825  0.00  0.00     0.018 A 
ATOM     14  C   UNL d   1      58.168  -2.276  29.262  0.00  0.00     0.003 A 
BRANCH  12  15
ATOM     15  N   UNL d   1      59.769  -3.682  28.697  0.00  0.00    -0.304 N 
BRANCH  15  16
ATOM     16  C   UNL d   1      60.551  -3.521  28.516  0.00  0.00     0.080 C 
ATOM     17  C   UNL d   1      61.122  -4.108  28.583  0.00  0.00     0.021 C 
ENDBRANCH  15  16
BRANCH  15  18
ATOM     18  C   UNL d   1      59.421  -4.379  28.458  0.00  0.00     0.080 C 
ATOM     19  C   UNL d   1      58.615  -4.469  28.529  0.00  0.00     0.021 C 
ENDBRANCH  15  18
ENDBRANCH  12  15
ENDBRANCH   3   9
BRANCH   1  20
ATOM     20  C   UNL d   1      58.578  -0.394  29.698  0.00  0.00     0.303 C 
ATOM     21  O   UNL d   1      58.337  -0.393  28.909  0.00  0.00    -0.259 OA
BRANCH  20  22
ATOM     22  O   UNL d   1      59.329  -0.127  29.900  0.00  0.00    -0.271 OA
BRANCH  22  23
ATOM     23  C   UNL d   1      59.712   0.427  29.424  0.00  0.00     0.126 C 
ATOM     24  C   UNL d   1      60.527   0.541  29.496  0.00  0.00     0.029 C 
ENDBRANCH  22  23
ENDBRANCH  20  22
ENDBRANCH   1  20
TORSDOF 7
ENDMDL
MODEL 3
REMARK VINA RESULT:       2.3      1.369      3.852
REMARK  7 active torsions:
REMARK  status: ('A' for Active; 'I' for Inactive)
REMARK    1  A    between atoms: C_7  and  C_1 
REMARK    2  A    between atoms: C_8  and  C_3 
REMARK    3  A    between atoms: O_17  and  C_7 
REMARK    4  A    between atoms: N_11  and  C_10 
REMARK    5  A    between atoms: C_19  and  N_11 
REMARK    6  A    between atoms: C_20  and  N_11 
REMARK    7  A    between atoms: C_21  and  O_17 
ROOT
ATOM      1  C   UNL d   1      58.853  -0.468  30.120  0.00  0.00     0.099 A 
ATOM      2  C   UNL d   1      58.948   0.293  30.388  0.00  0.00     0.093 A 
ATOM      3  C   UNL d   1      59.478  -0.862  29.726  0.00  0.00     0.093 A 
ATOM      4  C   UNL d   1      60.294   0.283  29.876  0.00  0.00     0.369 A 
ATOM      5  N   UNL d   1      59.669   0.676  30.270  0.00  0.00    -0.191 NA
ATOM      6  N   UNL d   1      60.189  -0.489  29.607  0.00  0.00    -0.191 NA
ATOM      7  O   UNL d   1      61.022   0.679  29.760  0.00  0.00    -0.242 OA
ATOM      8  C   UNL d   1      58.332   0.681  30.777  0.00  0.00     0.021 C 
ENDROOT
BRANCH   3   9
ATOM      9  C   UNL d   1      59.373  -1.634  29.457  0.00  0.00     0.018 A 
ATOM     10  C   UNL d   1      59.683  -2.267  29.885  0.00  0.00     0.003 A 
ATOM     11  C   UNL d   1      59.578  -3.039  29.616  0.00  0.00     0.018 A 
ATOM     12  C   UNL d   1      59.166  -3.193  28.920  0.00  0.00     0.064 A 
ATOM     13  C   UNL d   1      58.856  -2.560  28.491  0.00  0.00     0.018 A 
ATOM     14  C   UNL d   1      58.961  -1.788  28.761  0.00  0.00     0.003 A 
BRANCH  12  15
ATOM     15  N   UNL d   1      59.064  -3.987  28.653  0.00  0.00    -0.304 N 
BRANCH  15  16
ATOM     16  C   UNL d   1      58.313  -4.297  28.548  0.00  0.00     0.080 C 
ATOM     17  C   UNL d   1      58.201  -5.109  28.499  0.00  0.00     0.021 C 
ENDBRANCH  15  16
BRANCH  15  18
ATOM     18  C   UNL d   1      59.725  -4.440  28.502  0.00  0.00     0.080 C 
ATOM     19  C   UNL d   1      59.930  -5.033  29.020  0.00  0.00     0.021 C 
ENDBRANCH  15  18
ENDBRANCH  12  15
ENDBRANCH   3   9
BRANCH   1  20
ATOM     20  C   UNL d   1      58.112  -0.857  30.244  0.00  0.00     0.303 C 
ATOM     21  O   UNL d   1      57.554  -0.872  29.637  0.00  0.00    -0.259 OA
BRANCH  20  22
ATOM     22  O   UNL d   1      57.949  -1.220  30.963  0.00  0.00    -0.271 OA
BRANCH  22  23
ATOM     23  C   UNL d   1      57.209  -1.560  31.095  0.00  0.00     0.126 C 
ATOM     24  C   UNL d   1      56.715  -1.261  31.685  0.00  0.00     0.029 C 
ENDBRANCH  22  23
ENDBRANCH  20  22
ENDBRANCH   1  20
TORSDOF 7
ENDMDL
MODEL 4
REMARK VINA RESULT:       2.3      1.401      2.515
REMARK  7 active torsions:
REMARK  status: ('A' for Active; 'I' for Inactive)
REMARK    1  A    between atoms: C_7  and  C_1 
REMARK    2  A    between atoms: C_8  and  C_3 
REMARK    3  A    between atoms: O_17  and  C_7 
REMARK    4  A    between atoms: N_11  and  C_10 
REMARK    5  A    between atoms: C_19  and  N_11 
REMARK    6  A    between atoms: C_20  and  N_11 
REMARK    7  A    between atoms: C_21  and  O_17 
ROOT
ATOM      1  C   UNL d   1      59.403  -1.868  29.259  0.00  0.00     0.099 A 
ATOM      2  C   UNL d   1      59.716  -2.438  28.772  0.00  0.00     0.093 A 
ATOM      3  C   UNL d   1      58.633  -1.955  29.575  0.00  0.00     0.093 A 
ATOM      4  C   UNL d   1      58.497  -3.192  28.906  0.00  0.00     0.369 A 
ATOM      5  N   UNL d   1      59.268  -3.105  28.590  0.00  0.00    -0.191 NA
ATOM      6  N   UNL d   1      58.187  -2.609  29.400  0.00  0.00    -0.191 NA
ATOM      7  O   UNL d   1      58.048  -3.873  28.717  0.00  0.00    -0.242 OA
ATOM      8  C   UNL d   1      60.476  -2.352  28.461  0.00  0.00     0.021 C 
ENDROOT
BRANCH   3   9
ATOM      9  C   UNL d   1      58.322  -1.371  30.069  0.00  0.00     0.018 A 
ATOM     10  C   UNL d   1      58.613  -1.280  30.835  0.00  0.00     0.003 A 
ATOM     11  C   UNL d   1      58.303  -0.697  31.328  0.00  0.00     0.018 A 
ATOM     12  C   UNL d   1      57.702  -0.198  31.069  0.00  0.00     0.064 A 
ATOM     13  C   UNL d   1      57.410  -0.289  30.303  0.00  0.00     0.018 A 
ATOM     14  C   UNL d   1      57.721  -0.872  29.810  0.00  0.00     0.003 A 
BRANCH  12  15
ATOM     15  N   UNL d   1      57.391   0.395  31.582  0.00  0.00    -0.304 N 
BRANCH  15  16
ATOM     16  C   UNL d   1      56.630   0.681  31.475  0.00  0.00     0.080 C 
ATOM     17  C   UNL d   1      56.037   0.492  32.010  0.00  0.00     0.021 C 
ENDBRANCH  15  16
BRANCH  15  18
ATOM     18  C   UNL d   1      57.860   0.679  32.185  0.00  0.00     0.080 C 
ATOM     19  C   UNL d   1      57.671   0.500  32.957  0.00  0.00     0.021 C 
ENDBRANCH  15  18
ENDBRANCH  12  15
ENDBRANCH   3   9
BRANCH   1  20
ATOM     20  C   UNL d   1      59.867  -1.185  29.443  0.00  0.00     0.303 C 
ATOM     21  O   UNL d   1      60.351  -1.189  30.111  0.00  0.00    -0.259 OA
BRANCH  20  22
ATOM     22  O   UNL d   1      59.837  -0.520  28.961  0.00  0.00    -0.271 OA
BRANCH  22  23
ATOM     23  C   UNL d   1      60.535  -0.153  28.719  0.00  0.00     0.126 C 
ATOM     24  C   UNL d   1      60.627   0.663  28.812  0.00  0.00     0.029 C 
ENDBRANCH  22  23
ENDBRANCH  20  22
ENDBRANCH   1  20
TORSDOF 7
ENDMDL
MODEL 5
REMARK VINA RESULT:       3.3      1.447      2.605
REMARK  7 active torsions:
REMARK  status: ('A' for Active; 'I' for Inactive)
REMARK    1  A    between atoms: C_7  and  C_1 
REMARK    2  A    between atoms: C_8  and  C_3 
REMARK    3  A    between atoms: O_17  and  C_7 
REMARK    4  A    between atoms: N_11  and  C_10 
REMARK    5  A    between atoms: C_19  and  N_11 
REMARK    6  A    between atoms: C_20  and  N_11 
REMARK    7  A    between atoms: C_21  and  O_17 
ROOT
ATOM      1  C   UNL d   1      58.341  -0.573  30.702  0.00  0.00     0.099 A 
ATOM      2  C   UNL d   1      58.804  -0.870  30.105  0.00  0.00     0.093 A 
ATOM      3  C   UNL d   1      57.625  -0.951  30.914  0.00  0.00     0.093 A 
ATOM      4  C   UNL d   1      57.847  -1.929  29.919  0.00  0.00     0.369 A 
ATOM      5  N   UNL d   1      58.563  -1.551  29.707  0.00  0.00    -0.191 NA
ATOM      6  N   UNL d   1      57.382  -1.621  30.526  0.00  0.00    -0.191 NA
ATOM      7  O   UNL d   1      57.609  -2.620  29.510  0.00  0.00    -0.242 OA
ATOM      8  C   UNL d   1      59.511  -0.497  29.896  0.00  0.00     0.021 C 
ENDROOT
BRANCH   3   9
ATOM      9  C   UNL d   1      57.160  -0.642  31.522  0.00  0.00     0.018 A 
ATOM     10  C   UNL d   1      56.775   0.080  31.421  0.00  0.00     0.003 A 
ATOM     11  C   UNL d   1      56.310   0.388  32.028  0.00  0.00     0.018 A 
ATOM     12  C   UNL d   1      56.222  -0.014  32.741  0.00  0.00     0.064 A 
ATOM     13  C   UNL d   1      56.608  -0.736  32.842  0.00  0.00     0.018 A 
ATOM     14  C   UNL d   1      57.072  -1.044  32.235  0.00  0.00     0.003 A 
BRANCH  12  15
ATOM     15  N   UNL d   1      55.744   0.310  33.357  0.00  0.00    -0.304 N 
BRANCH  15  16
ATOM     16  C   UNL d   1      56.091   0.650  34.017  0.00  0.00     0.080 C 
ATOM     17  C   UNL d   1      55.864   0.418  34.771  0.00  0.00     0.021 C 
ENDBRANCH  15  16
BRANCH  15  18
ATOM     18  C   UNL d   1      54.933   0.280  33.283  0.00  0.00     0.080 C 
ATOM     19  C   UNL d   1      54.471   0.268  33.953  0.00  0.00     0.021 C 
ENDBRANCH  15  18
ENDBRANCH  12  15
ENDBRANCH   3   9
BRANCH   1  20
ATOM     20  C   UNL d   1      58.592   0.126  31.108  0.00  0.00     0.303 C 
ATOM     21  O   UNL d   1      58.031   0.682  31.347  0.00  0.00    -0.259 OA
BRANCH  20  22
ATOM     22  O   UNL d   1      59.389   0.253  31.263  0.00  0.00    -0.271 OA
BRANCH  22  23
ATOM     23  C   UNL d   1      59.625   0.549  31.996  0.00  0.00     0.126 C 
ATOM     24  C   UNL d   1      60.426   0.682  32.150  0.00  0.00     0.029 C 
ENDBRANCH  22  23
ENDBRANCH  20  22
ENDBRANCH   1  20
TORSDOF 7
ENDMDL
