MODEL 1
REMARK VINA RESULT:      -3.1      0.000      0.000
REMARK  5 active torsions:
REMARK  status: ('A' for Active; 'I' for Inactive)
REMARK    1  A    between atoms: C_2  and  C_1 
REMARK    2  A    between atoms: C_6  and  C_2 
REMARK    3  A    between atoms: S_3  and  C_11 
REMARK    4  A    between atoms: N_7  and  S_3 
REMARK    5  A    between atoms: C_15  and  C_6 
ROOT
ATOM      1  C   UNL d   1     -41.437-122.317 -52.689  0.00  0.00     0.141 C 
ATOM      2  C   UNL d   1     -41.279-121.630 -52.238  0.00  0.00     0.107 C 
ATOM      3  N   UNL d   1     -41.123-120.975 -51.790  0.00  0.00    -0.191 NA
ENDROOT
BRANCH   1   4
ATOM      4  C   UNL d   1     -41.653-122.239 -53.482  0.00  0.00     0.161 A 
ATOM      5  N   UNL d   1     -42.394-121.988 -53.761  0.00  0.00    -0.287 N 
ATOM      6  C   UNL d   1     -42.378-121.988 -54.582  0.00  0.00     0.083 A 
ATOM      7  C   UNL d   1     -43.058-121.768 -53.284  0.00  0.00     0.101 C 
ATOM      8  C   UNL d   1     -42.944-121.795 -55.136  0.00  0.00     0.019 A 
ATOM      9  C   UNL d   1     -41.604-122.247 -54.819  0.00  0.00     0.099 A 
ATOM     10  C   UNL d   1     -42.749-121.856 -55.938  0.00  0.00     0.002 A 
ATOM     11  C   UNL d   1     -41.975-122.115 -56.175  0.00  0.00     0.002 A 
ATOM     12  C   UNL d   1     -41.414-122.307 -55.604  0.00  0.00     0.021 A 
ATOM     13  N   UNL d   1     -41.177-122.395 -54.133  0.00  0.00    -0.226 NA
ENDBRANCH   1   4
BRANCH   1  14
ATOM     14  C   UNL d   1     -41.378-123.059 -52.351  0.00  0.00     0.208 C 
ATOM     15  O   UNL d   1     -41.156-123.695 -52.809  0.00  0.00    -0.286 OA
BRANCH  14  16
ATOM     16  C   UNL d   1     -41.545-123.163 -51.545  0.00  0.00     0.040 A 
ATOM     17  C   UNL d   1     -41.138-122.701 -50.979  0.00  0.00     0.004 A 
ATOM     18  C   UNL d   1     -41.303-122.805 -50.177  0.00  0.00     0.013 A 
ATOM     19  C   UNL d   1     -41.861-123.355 -49.942  0.00  0.00     0.104 A 
ATOM     20  C   UNL d   1     -42.268-123.817 -50.507  0.00  0.00     0.013 A 
ATOM     21  C   UNL d   1     -42.103-123.713 -51.309  0.00  0.00     0.004 A 
BRANCH  19  22
ATOM     22  S   UNL d   1     -42.027-123.459 -49.135  0.00  0.00     0.271 S 
ATOM     23  O   UNL d   1     -42.854-123.331 -49.289  0.00  0.00    -0.200 OA
ATOM     24  O   UNL d   1     -41.221-123.584 -48.985  0.00  0.00    -0.200 OA
BRANCH  22  25
ATOM     25  N   UNL d   1     -42.193-123.562 -48.334  0.00  0.00    -0.229 N 
ATOM     26  C   UNL d   1     -41.581-123.629 -47.795  0.00  0.00     0.092 A 
ATOM     27  C   UNL d   1     -41.748-123.733 -46.988  0.00  0.00     0.020 A 
ATOM     28  C   UNL d   1     -42.525-123.770 -46.726  0.00  0.00     0.003 A 
ATOM     29  C   UNL d   1     -43.126-123.703 -47.269  0.00  0.00     0.020 A 
ATOM     30  C   UNL d   1     -42.960-123.599 -48.076  0.00  0.00     0.092 A 
ENDBRANCH  22  25
ENDBRANCH  19  22
ENDBRANCH  14  16
ENDBRANCH   1  14
TORSDOF 5
ENDMDL
