MODEL 1
REMARK VINA RESULT:      -2.5      0.000      0.000
REMARK  2 active torsions:
REMARK  status: ('A' for Active; 'I' for Inactive)
REMARK    1  A    between atoms: CA_3  and  C_1 
REMARK    2  A    between atoms: C_2  and  CA_3 
ROOT
ATOM      1  C   UNL d   1      29.784  16.420 -24.062  0.00  0.00     0.026 A 
ATOM      2  C   UNL d   1      30.369  16.930 -24.348  0.00  0.00     0.009 A 
ATOM      3  C   UNL d   1      31.152  16.835 -24.111  0.00  0.00     0.035 A 
ATOM      4 BR   UNL d   1      31.731  17.344 -24.397  0.00  0.00    -0.049 Br
ATOM      5  C   UNL d   1      29.987  15.814 -23.540  0.00  0.00     0.002 A 
ATOM      6  C   UNL d   1      30.774  15.719 -23.303  0.00  0.00     0.001 A 
ATOM      7  C   UNL d   1      31.354  16.229 -23.589  0.00  0.00     0.007 A 
ENDROOT
BRANCH   1   8
ATOM      8  CA  UNL d   1      29.001  16.519 -24.302  0.00  0.00     0.167 C 
ATOM      9  N   UNL d   1      28.742  16.189 -25.006  0.00  0.00    -0.142 N 
BRANCH   8  10
ATOM     10  C   UNL d   1      28.477  16.950 -23.834  0.00  0.00     0.231 C 
ATOM     11  O   UNL d   1      28.366  17.761 -23.972  0.00  0.00    -0.643 OA
ATOM     12  OXT UNL d   1      28.060  16.577 -23.223  0.00  0.00    -0.643 OA
ENDBRANCH   8  10
ENDBRANCH   1   8
TORSDOF 2
ENDMDL
MODEL 2
REMARK VINA RESULT:      -2.5      0.723      1.256
REMARK  2 active torsions:
REMARK  status: ('A' for Active; 'I' for Inactive)
REMARK    1  A    between atoms: CA_3  and  C_1 
REMARK    2  A    between atoms: C_2  and  CA_3 
ROOT
ATOM      1  C   UNL d   1      29.984  16.721 -24.288  0.00  0.00     0.026 A 
ATOM      2  C   UNL d   1      30.365  16.103 -23.891  0.00  0.00     0.009 A 
ATOM      3  C   UNL d   1      31.167  16.158 -23.714  0.00  0.00     0.035 A 
ATOM      4 BR   UNL d   1      31.543  15.543 -23.319  0.00  0.00    -0.049 Br
ATOM      5  C   UNL d   1      30.410  17.393 -24.507  0.00  0.00     0.002 A 
ATOM      6  C   UNL d   1      31.216  17.447 -24.329  0.00  0.00     0.001 A 
ATOM      7  C   UNL d   1      31.593  16.830 -23.933  0.00  0.00     0.007 A 
ENDROOT
BRANCH   1   8
ATOM      8  CA  UNL d   1      29.180  16.662 -24.463  0.00  0.00     0.167 C 
ATOM      9  N   UNL d   1      28.931  16.203 -25.096  0.00  0.00    -0.142 N 
BRANCH   8  10
ATOM     10  C   UNL d   1      28.627  17.063 -24.003  0.00  0.00     0.231 C 
ATOM     11  O   UNL d   1      28.237  16.670 -23.383  0.00  0.00    -0.643 OA
ATOM     12  OXT UNL d   1      28.455  17.858 -24.156  0.00  0.00    -0.643 OA
ENDBRANCH   8  10
ENDBRANCH   1   8
TORSDOF 2
ENDMDL
MODEL 3
REMARK VINA RESULT:      -2.2      1.196      1.780
REMARK  2 active torsions:
REMARK  status: ('A' for Active; 'I' for Inactive)
REMARK    1  A    between atoms: CA_3  and  C_1 
REMARK    2  A    between atoms: C_2  and  CA_3 
ROOT
ATOM      1  C   UNL d   1      30.921  16.696 -24.184  0.00  0.00     0.026 A 
ATOM      2  C   UNL d   1      31.593  16.606 -23.710  0.00  0.00     0.009 A 
ATOM      3  C   UNL d   1      32.172  17.191 -23.699  0.00  0.00     0.035 A 
ATOM      4 BR   UNL d   1      32.839  17.098 -23.227  0.00  0.00    -0.049 Br
ATOM      5  C   UNL d   1      30.832  17.374 -24.646  0.00  0.00     0.002 A 
ATOM      6  C   UNL d   1      31.415  17.961 -24.634  0.00  0.00     0.001 A 
ATOM      7  C   UNL d   1      32.083  17.868 -24.161  0.00  0.00     0.007 A 
ENDROOT
BRANCH   1   8
ATOM      8  CA  UNL d   1      30.343  16.107 -24.192  0.00  0.00     0.167 C 
ATOM      9  N   UNL d   1      30.431  15.452 -24.678  0.00  0.00    -0.142 N 
BRANCH   8  10
ATOM     10  C   UNL d   1      29.677  16.176 -23.713  0.00  0.00     0.231 C 
ATOM     11  O   UNL d   1      29.662  15.814 -22.965  0.00  0.00    -0.643 OA
ATOM     12  OXT UNL d   1      29.018  16.606 -23.973  0.00  0.00    -0.643 OA
ENDBRANCH   8  10
ENDBRANCH   1   8
TORSDOF 2
ENDMDL
