MODEL 1
REMARK VINA RESULT:      -3.7      0.000      0.000
REMARK  4 active torsions:
REMARK  status: ('A' for Active; 'I' for Inactive)
REMARK    1  A    between atoms: N_3  and  C_1 
REMARK    2  A    between atoms: N_5  and  N_2 
REMARK    3  A    between atoms: S_4  and  N_5 
REMARK    4  A    between atoms: C_13  and  S_4 
ROOT
ATOM      1  C   UNL d   1     -41.432-121.750 -52.877  0.00  0.00     0.771 A 
ATOM      2  N   UNL d   1     -41.375-122.013 -52.105  0.00  0.00    -0.026 N 
ATOM      3  N   UNL d   1     -41.320-120.932 -52.872  0.00  0.00     0.048 NA
ATOM      4  C   UNL d   1     -41.230-121.374 -51.620  0.00  0.00     0.204 A 
ATOM      5  N   UNL d   1     -41.195-120.698 -52.092  0.00  0.00    -0.112 NA
ATOM      6  C   UNL d   1     -41.134-121.389 -50.801  0.00  0.00     0.044 C 
ENDROOT
BRANCH   2   7
ATOM      7  N   UNL d   1     -41.450-122.791 -51.846  0.00  0.00    -0.056 NA
BRANCH   7   8
ATOM      8  S   UNL d   1     -41.807-122.966 -51.127  0.00  0.00     0.301 S 
ATOM      9  O   UNL d   1     -42.400-122.427 -51.278  0.00  0.00    -0.197 OA
ATOM     10  O   UNL d   1     -41.204-123.512 -50.979  0.00  0.00    -0.197 OA
BRANCH   8  11
ATOM     11  C   UNL d   1     -42.151-123.155 -50.401  0.00  0.00     0.107 A 
ATOM     12  C   UNL d   1     -42.949-122.993 -50.275  0.00  0.00     0.015 A 
ATOM     13  C   UNL d   1     -43.296-123.181 -49.549  0.00  0.00     0.030 A 
ATOM     14  C   UNL d   1     -42.839-123.532 -48.954  0.00  0.00     0.140 A 
ATOM     15  C   UNL d   1     -42.041-123.695 -49.079  0.00  0.00     0.030 A 
ATOM     16  F   UNL d   1     -43.187-123.718 -48.235  0.00  0.00    -0.204 F 
ATOM     17  C   UNL d   1     -41.693-123.507 -49.805  0.00  0.00     0.015 A 
ENDBRANCH   8  11
ENDBRANCH   7   8
ENDBRANCH   2   7
BRANCH   1  18
ATOM     18  N   UNL d   1     -41.575-122.221 -53.539  0.00  0.00    -0.056 N 
ATOM     19  N   UNL d   1     -41.123-122.866 -53.785  0.00  0.00    -0.150 NA
ATOM     20  C   UNL d   1     -41.465-123.173 -54.469  0.00  0.00     0.103 A 
ATOM     21  C   UNL d   1     -41.195-123.817 -54.899  0.00  0.00     0.022 C 
ATOM     22  C   UNL d   1     -42.130-122.719 -54.648  0.00  0.00     0.041 A 
ATOM     23  C   UNL d   1     -42.192-122.131 -54.068  0.00  0.00     0.102 A 
ATOM     24  C   UNL d   1     -42.779-121.554 -54.034  0.00  0.00     0.021 C 
ENDBRANCH   1  18
TORSDOF 4
ENDMDL
MODEL 2
REMARK VINA RESULT:      -3.0      1.966      4.163
REMARK  4 active torsions:
REMARK  status: ('A' for Active; 'I' for Inactive)
REMARK    1  A    between atoms: N_3  and  C_1 
REMARK    2  A    between atoms: N_5  and  N_2 
REMARK    3  A    between atoms: S_4  and  N_5 
REMARK    4  A    between atoms: C_13  and  S_4 
ROOT
ATOM      1  C   UNL d   1     -41.854-122.156 -50.502  0.00  0.00     0.771 A 
ATOM      2  N   UNL d   1     -41.775-122.162 -51.316  0.00  0.00    -0.026 N 
ATOM      3  N   UNL d   1     -41.457-121.489 -50.218  0.00  0.00     0.048 NA
ATOM      4  C   UNL d   1     -41.338-121.513 -51.543  0.00  0.00     0.204 A 
ATOM      5  N   UNL d   1     -41.136-121.091 -50.864  0.00  0.00    -0.112 NA
ATOM      6  C   UNL d   1     -41.127-121.305 -52.313  0.00  0.00     0.044 C 
ENDROOT
BRANCH   2   7
ATOM      7  N   UNL d   1     -42.083-122.725 -51.833  0.00  0.00    -0.056 NA
BRANCH   7   8
ATOM      8  S   UNL d   1     -41.981-122.654 -52.645  0.00  0.00     0.301 S 
ATOM      9  O   UNL d   1     -42.533-122.055 -52.674  0.00  0.00    -0.197 OA
ATOM     10  O   UNL d   1     -41.422-123.262 -52.611  0.00  0.00    -0.197 OA
BRANCH   8  11
ATOM     11  C   UNL d   1     -41.865-122.598 -53.460  0.00  0.00     0.107 A 
ATOM     12  C   UNL d   1     -41.267-123.040 -53.816  0.00  0.00     0.015 A 
ATOM     13  C   UNL d   1     -41.147-122.987 -54.632  0.00  0.00     0.030 A 
ATOM     14  C   UNL d   1     -41.630-122.489 -55.086  0.00  0.00     0.140 A 
ATOM     15  C   UNL d   1     -42.228-122.048 -54.731  0.00  0.00     0.030 A 
ATOM     16  F   UNL d   1     -41.509-122.439 -55.895  0.00  0.00    -0.204 F 
ATOM     17  C   UNL d   1     -42.349-122.100 -53.915  0.00  0.00     0.015 A 
ENDBRANCH   8  11
ENDBRANCH   7   8
ENDBRANCH   2   7
BRANCH   1  18
ATOM     18  N   UNL d   1     -42.258-122.716 -50.051  0.00  0.00    -0.056 N 
ATOM     19  N   UNL d   1     -43.063-122.887 -50.094  0.00  0.00    -0.150 NA
ATOM     20  C   UNL d   1     -43.230-123.480 -49.547  0.00  0.00     0.103 A 
ATOM     21  C   UNL d   1     -43.964-123.817 -49.405  0.00  0.00     0.022 C 
ATOM     22  C   UNL d   1     -42.526-123.678 -49.163  0.00  0.00     0.041 A 
ATOM     23  C   UNL d   1     -41.928-123.201 -49.480  0.00  0.00     0.102 A 
ATOM     24  C   UNL d   1     -41.135-123.216 -49.256  0.00  0.00     0.021 C 
ENDBRANCH   1  18
TORSDOF 4
ENDMDL
