MODEL 1
REMARK VINA RESULT:      -9.1      0.000      0.000
REMARK  4 active torsions:
REMARK  status: ('A' for Active; 'I' for Inactive)
REMARK    1  A    between atoms: S_5  and  C_3 
REMARK    2  A    between atoms: C_13  and  S_5 
REMARK    3  A    between atoms: C_23  and  N_7 
REMARK    4  A    between atoms: C_29  and  C_23 
ROOT
ATOM      1  C   UNL d   1      52.619  33.345  53.804  0.00  0.00     0.155 A 
ATOM      2  C   UNL d   1      52.468  34.143  53.766  0.00  0.00     0.092 A 
ATOM      3  C   UNL d   1      51.293  33.890  53.031  0.00  0.00     0.124 A 
ATOM      4  N   UNL d   1      53.287  33.072  54.194  0.00  0.00    -0.210 NA
ATOM      5  N   UNL d   1      53.647  34.401  54.503  0.00  0.00    -0.258 N 
ATOM      6  N   UNL d   1      52.112  32.819  53.459  0.00  0.00    -0.273 N 
ATOM      7  C   UNL d   1      53.795  33.594  54.539  0.00  0.00     0.152 A 
ATOM      8  C   UNL d   1      51.445  33.083  53.070  0.00  0.00     0.181 A 
ATOM      9  C   UNL d   1      52.982  34.675  54.115  0.00  0.00     0.269 A 
ATOM     10  C   UNL d   1      51.808  34.418  53.380  0.00  0.00     0.022 A 
ATOM     11  C   UNL d   1      54.463  33.320  54.929  0.00  0.00     0.035 A 
ATOM     12  C   UNL d   1      54.169  34.926  54.857  0.00  0.00     0.084 A 
ATOM     13  N   UNL d   1      50.930  32.542  52.718  0.00  0.00    -0.128 N 
ATOM     14  O   UNL d   1      52.833  35.492  54.079  0.00  0.00    -0.266 OA
ATOM     15  C   UNL d   1      54.830  34.651  55.243  0.00  0.00     0.019 A 
ATOM     16  C   UNL d   1      54.978  33.843  55.279  0.00  0.00     0.005 A 
ATOM     17  C   UNL d   1      54.612  32.504  54.966  0.00  0.00     0.003 C 
ENDROOT
BRANCH   3  18
ATOM     18  S   UNL d   1      50.621  34.164  52.639  0.00  0.00     0.213 S 
ATOM     19  O   UNL d   1      51.058  34.260  51.936  0.00  0.00    -0.217 OA
ATOM     20  O   UNL d   1      50.180  34.072  53.328  0.00  0.00    -0.217 OA
BRANCH  18  21
ATOM     21  C   UNL d   1      49.939  34.439  52.252  0.00  0.00     0.088 A 
ATOM     22  C   UNL d   1      49.828  34.288  51.448  0.00  0.00     0.014 A 
ATOM     23  C   UNL d   1      49.145  34.564  51.062  0.00  0.00     0.030 A 
ATOM     24  C   UNL d   1      48.575  34.989  51.482  0.00  0.00     0.140 A 
ATOM     25  C   UNL d   1      48.693  35.138  52.297  0.00  0.00     0.030 A 
ATOM     26  F   UNL d   1      47.893  35.266  51.105  0.00  0.00    -0.204 F 
ATOM     27  C   UNL d   1      49.373  34.863  52.680  0.00  0.00     0.014 A 
ENDBRANCH  18  21
ENDBRANCH   3  18
BRANCH   6  28
ATOM     28  C   UNL d   1      52.266  31.999  53.499  0.00  0.00     0.083 C 
BRANCH  28  29
ATOM     29  C   UNL d   1      52.466  31.584  52.804  0.00  0.00     0.019 C 
ATOM     30  C   UNL d   1      52.633  30.770  52.833  0.00  0.00     0.002 C 
ENDBRANCH  28  29
ENDBRANCH   6  28
TORSDOF 4
ENDMDL
MODEL 2
REMARK VINA RESULT:      -8.9      1.091      2.426
REMARK  4 active torsions:
REMARK  status: ('A' for Active; 'I' for Inactive)
REMARK    1  A    between atoms: S_5  and  C_3 
REMARK    2  A    between atoms: C_13  and  S_5 
REMARK    3  A    between atoms: C_23  and  N_7 
REMARK    4  A    between atoms: C_29  and  C_23 
ROOT
ATOM      1  C   UNL d   1      52.510  33.427  53.325  0.00  0.00     0.155 A 
ATOM      2  C   UNL d   1      51.942  32.919  53.042  0.00  0.00     0.092 A 
ATOM      3  C   UNL d   1      51.079  34.007  52.809  0.00  0.00     0.124 A 
ATOM      4  N   UNL d   1      53.231  33.134  53.584  0.00  0.00    -0.210 NA
ATOM      5  N   UNL d   1      52.807  31.824  53.274  0.00  0.00    -0.258 N 
ATOM      6  N   UNL d   1      52.367  34.222  53.352  0.00  0.00    -0.273 N 
ATOM      7  C   UNL d   1      53.378  32.342  53.559  0.00  0.00     0.152 A 
ATOM      8  C   UNL d   1      51.653  34.521  53.095  0.00  0.00     0.181 A 
ATOM      9  C   UNL d   1      52.088  32.114  53.015  0.00  0.00     0.269 A 
ATOM     10  C   UNL d   1      51.227  33.205  52.783  0.00  0.00     0.022 A 
ATOM     11  C   UNL d   1      54.098  32.048  53.819  0.00  0.00     0.035 A 
ATOM     12  C   UNL d   1      52.963  31.019  53.251  0.00  0.00     0.084 A 
ATOM     13  N   UNL d   1      51.511  35.335  53.125  0.00  0.00    -0.128 N 
ATOM     14  O   UNL d   1      51.511  31.591  52.726  0.00  0.00    -0.266 OA
ATOM     15  C   UNL d   1      53.679  30.732  53.509  0.00  0.00     0.019 A 
ATOM     16  C   UNL d   1      54.250  31.249  53.795  0.00  0.00     0.005 A 
ATOM     17  C   UNL d   1      54.676  32.572  54.107  0.00  0.00     0.003 C 
ENDROOT
BRANCH   3  18
ATOM     18  S   UNL d   1      50.355  34.303  52.548  0.00  0.00     0.213 S 
ATOM     19  O   UNL d   1      50.025  34.193  53.305  0.00  0.00    -0.217 OA
ATOM     20  O   UNL d   1      50.671  34.417  51.796  0.00  0.00    -0.217 OA
BRANCH  18  21
ATOM     21  C   UNL d   1      49.628  34.603  52.277  0.00  0.00     0.088 A 
ATOM     22  C   UNL d   1      49.149  35.050  52.778  0.00  0.00     0.014 A 
ATOM     23  C   UNL d   1      48.423  35.350  52.505  0.00  0.00     0.030 A 
ATOM     24  C   UNL d   1      48.179  35.200  51.730  0.00  0.00     0.140 A 
ATOM     25  C   UNL d   1      48.669  34.746  51.226  0.00  0.00     0.030 A 
ATOM     26  F   UNL d   1      47.458  35.494  51.451  0.00  0.00    -0.204 F 
ATOM     27  C   UNL d   1      49.391  34.449  51.499  0.00  0.00     0.014 A 
ENDBRANCH  18  21
ENDBRANCH   3  18
BRANCH   6  28
ATOM     28  C   UNL d   1      52.950  34.744  53.643  0.00  0.00     0.083 C 
BRANCH  28  29
ATOM     29  C   UNL d   1      52.766  35.256  54.275  0.00  0.00     0.019 C 
ATOM     30  C   UNL d   1      53.338  35.784  54.569  0.00  0.00     0.002 C 
ENDBRANCH  28  29
ENDBRANCH   6  28
TORSDOF 4
ENDMDL
MODEL 3
REMARK VINA RESULT:      -6.2      2.830      4.999
REMARK  4 active torsions:
REMARK  status: ('A' for Active; 'I' for Inactive)
REMARK    1  A    between atoms: S_5  and  C_3 
REMARK    2  A    between atoms: C_13  and  S_5 
REMARK    3  A    between atoms: C_23  and  N_7 
REMARK    4  A    between atoms: C_29  and  C_23 
ROOT
ATOM      1  C   UNL d   1      52.882  32.920  53.550  0.00  0.00     0.155 A 
ATOM      2  C   UNL d   1      52.265  32.395  53.484  0.00  0.00     0.092 A 
ATOM      3  C   UNL d   1      53.112  31.343  53.887  0.00  0.00     0.124 A 
ATOM      4  N   UNL d   1      52.765  33.714  53.379  0.00  0.00    -0.210 NA
ATOM      5  N   UNL d   1      51.412  33.447  53.079  0.00  0.00    -0.258 N 
ATOM      6  N   UNL d   1      53.612  32.663  53.783  0.00  0.00    -0.273 N 
ATOM      7  C   UNL d   1      52.039  33.974  53.147  0.00  0.00     0.152 A 
ATOM      8  C   UNL d   1      53.736  31.874  53.954  0.00  0.00     0.181 A 
ATOM      9  C   UNL d   1      51.526  32.656  53.248  0.00  0.00     0.269 A 
ATOM     10  C   UNL d   1      52.376  31.607  53.652  0.00  0.00     0.022 A 
ATOM     11  C   UNL d   1      51.921  34.768  52.976  0.00  0.00     0.035 A 
ATOM     12  C   UNL d   1      50.675  33.720  52.841  0.00  0.00     0.084 A 
ATOM     13  N   UNL d   1      54.483  31.616  54.192  0.00  0.00    -0.128 N 
ATOM     14  O   UNL d   1      50.892  32.123  53.179  0.00  0.00    -0.266 OA
ATOM     15  C   UNL d   1      50.563  34.508  52.673  0.00  0.00     0.019 A 
ATOM     16  C   UNL d   1      51.190  35.035  52.741  0.00  0.00     0.005 A 
ATOM     17  C   UNL d   1      52.555  35.301  53.045  0.00  0.00     0.003 C 
ENDROOT
BRANCH   3  18
ATOM     18  S   UNL d   1      53.230  30.546  54.059  0.00  0.00     0.213 S 
ATOM     19  O   UNL d   1      53.366  30.382  53.254  0.00  0.00    -0.217 OA
ATOM     20  O   UNL d   1      53.097  30.697  54.858  0.00  0.00    -0.217 OA
BRANCH  18  21
ATOM     21  C   UNL d   1      53.348  29.743  54.242  0.00  0.00     0.088 A 
ATOM     22  C   UNL d   1      53.272  29.478  55.019  0.00  0.00     0.014 A 
ATOM     23  C   UNL d   1      53.390  28.675  55.201  0.00  0.00     0.030 A 
ATOM     24  C   UNL d   1      53.585  28.140  54.603  0.00  0.00     0.140 A 
ATOM     25  C   UNL d   1      53.661  28.415  53.815  0.00  0.00     0.030 A 
ATOM     26  F   UNL d   1      53.704  27.341  54.775  0.00  0.00    -0.204 F 
ATOM     27  C   UNL d   1      53.543  29.214  53.636  0.00  0.00     0.014 A 
ENDBRANCH  18  21
ENDBRANCH   3  18
BRANCH   6  28
ATOM     28  C   UNL d   1      54.246  33.202  53.850  0.00  0.00     0.083 C 
BRANCH  28  29
ATOM     29  C   UNL d   1      54.634  33.291  54.582  0.00  0.00     0.019 C 
ATOM     30  C   UNL d   1      55.265  33.827  54.662  0.00  0.00     0.002 C 
ENDBRANCH  28  29
ENDBRANCH   6  28
TORSDOF 4
ENDMDL
