MODEL 1
REMARK VINA RESULT:      49.4      0.000      0.000
REMARK  9 active torsions:
REMARK  status: ('A' for Active; 'I' for Inactive)
REMARK    1  A    between atoms: N_6  and  C_1 
REMARK    2  A    between atoms: N_2  and  C_10 
REMARK    3  A    between atoms: C_3  and  N_6 
REMARK    4  A    between atoms: N_4  and  C_3 
REMARK       I    between atoms: C_7  and  N_4 
REMARK    5  A    between atoms: C_12  and  C_7 
REMARK    6  A    between atoms: C_11  and  C_8 
REMARK    7  A    between atoms: C_15  and  C_11 
REMARK    8  A    between atoms: O_21  and  C_15 
REMARK    9  A    between atoms: C_25  and  O_21 
ROOT
ATOM      1  C   UNL d   1     -48.357  28.773  34.967  0.00  0.00     0.277 C 
ATOM      2  S   UNL d   1     -47.975  28.403  35.606  0.00  0.00    -0.023 SA
ENDROOT
BRANCH   1   3
ATOM      3  N   UNL d   1     -48.922  28.356  34.536  0.00  0.00    -0.347 NA
BRANCH   3   4
ATOM      4  C   UNL d   1     -49.485  27.930  34.108  0.00  0.00     0.248 A 
ATOM      5  N   UNL d   1     -49.523  27.099  34.027  0.00  0.00    -0.210 NA
ATOM      6  C   UNL d   1     -50.175  26.921  33.551  0.00  0.00     0.096 A 
ATOM      7  C   UNL d   1     -50.537  27.631  33.340  0.00  0.00     0.059 A 
ATOM      8  S   UNL d   1     -50.116  28.252  33.680  0.00  0.00    -0.033 SA
BRANCH   6   9
ATOM      9  C   UNL d   1     -50.417  26.162  33.329  0.00  0.00     0.088 C 
BRANCH   9  10
ATOM     10  C   UNL d   1     -51.035  25.792  33.728  0.00  0.00     0.302 C 
ATOM     11  O   UNL d   1     -51.058  25.815  34.554  0.00  0.00    -0.259 OA
BRANCH  10  12
ATOM     12  O   UNL d   1     -51.626  25.400  33.306  0.00  0.00    -0.271 OA
BRANCH  12  13
ATOM     13  C   UNL d   1     -51.711  24.584  33.376  0.00  0.00     0.126 C 
ATOM     14  C   UNL d   1     -52.451  24.258  33.543  0.00  0.00     0.029 C 
ENDBRANCH  12  13
ENDBRANCH  10  12
ENDBRANCH   9  10
ENDBRANCH   6   9
ENDBRANCH   3   4
ENDBRANCH   1   3
BRANCH   1  15
ATOM     15  N   UNL d   1     -48.166  29.551  34.772  0.00  0.00    -0.168 NA
ATOM     16  C   UNL d   1     -47.781  30.038  35.318  0.00  0.00     0.282 C 
ATOM     17  O   UNL d   1     -47.585  29.745  36.066  0.00  0.00    -0.265 OA
BRANCH  16  18
ATOM     18  C   UNL d   1     -47.591  30.817  35.123  0.00  0.00     0.060 A 
ATOM     19  C   UNL d   1     -48.005  31.210  34.522  0.00  0.00     0.028 A 
ATOM     20  C   UNL d   1     -47.814  31.986  34.329  0.00  0.00     0.127 A 
ATOM     21  C   UNL d   1     -47.211  32.378  34.729  0.00  0.00     0.024 A 
ATOM     22  C   UNL d   1     -46.797  31.988  35.327  0.00  0.00     0.002 A 
ATOM     23  C   UNL d   1     -46.986  31.203  35.527  0.00  0.00     0.005 A 
BRANCH  20  24
ATOM     24  N   UNL d   1     -48.236  32.367  33.727  0.00  0.00    -0.114 N 
ATOM     25  O   UNL d   1     -48.035  33.128  33.488  0.00  0.00    -0.532 OA
ATOM     26  O   UNL d   1     -48.866  31.975  33.366  0.00  0.00    -0.532 OA
ENDBRANCH  20  24
ENDBRANCH  16  18
ENDBRANCH   1  15
TORSDOF 9
ENDMDL
