MODEL 1
REMARK VINA RESULT:     -10.7      0.000      0.000
REMARK  3 active torsions:
REMARK  status: ('A' for Active; 'I' for Inactive)
REMARK    1  A    between atoms: C_8  and  C_6 
REMARK    2  A    between atoms: C_9  and  C_8 
REMARK       I    between atoms: N_10  and  C_9 
REMARK    3  A    between atoms: C_13  and  N_10 
ROOT
ATOM      1  N   UNL d   1      53.642  33.530  54.809  0.00  0.00    -0.207 NA
ATOM      2  N   UNL d   1      52.912  32.776  53.500  0.00  0.00    -0.240 NA
ATOM      3  C   UNL d   1      53.681  32.766  54.517  0.00  0.00     0.297 A 
ATOM      4  C   UNL d   1      53.206  34.173  54.521  0.00  0.00     0.086 A 
ATOM      5  C   UNL d   1      52.591  33.520  53.411  0.00  0.00     0.083 A 
ATOM      6  C   UNL d   1      53.433  32.522  54.077  0.00  0.00     0.144 A 
ATOM      7  C   UNL d   1      52.701  34.200  53.863  0.00  0.00     0.035 A 
ATOM      8  O   UNL d   1      54.174  32.269  54.945  0.00  0.00    -0.264 OA
ATOM      9  C   UNL d   1      52.320  34.902  53.675  0.00  0.00     0.003 A 
ATOM     10  C   UNL d   1      53.322  34.853  54.981  0.00  0.00     0.019 A 
ATOM     11  C   UNL d   1      52.087  33.545  52.754  0.00  0.00     0.019 A 
ATOM     12  C   UNL d   1      51.697  34.253  52.556  0.00  0.00     0.002 A 
ATOM     13  C   UNL d   1      52.933  35.553  54.781  0.00  0.00     0.002 A 
ATOM     14  C   UNL d   1      51.814  34.930  53.017  0.00  0.00     0.000 A 
ATOM     15  C   UNL d   1      52.437  35.579  54.135  0.00  0.00     0.000 A 
ENDROOT
BRANCH   6  16
ATOM     16  C   UNL d   1      53.644  31.727  53.999  0.00  0.00     0.086 C 
BRANCH  16  17
ATOM     17  C   UNL d   1      54.168  31.503  53.394  0.00  0.00     0.281 C 
ATOM     18  N   UNL d   1      54.146  30.737  53.097  0.00  0.00    -0.208 NA
ATOM     19  O   UNL d   1      54.712  32.043  53.089  0.00  0.00    -0.265 OA
BRANCH  18  20
ATOM     20  C   UNL d   1      53.606  30.192  53.396  0.00  0.00     0.085 A 
ATOM     21  C   UNL d   1      53.804  29.722  54.045  0.00  0.00     0.019 A 
ATOM     22  C   UNL d   1      53.265  29.183  54.338  0.00  0.00     0.002 A 
ATOM     23  C   UNL d   1      53.464  28.719  54.980  0.00  0.00     0.000 C 
ATOM     24  C   UNL d   1      52.524  29.103  53.991  0.00  0.00     0.000 A 
ATOM     25  C   UNL d   1      52.323  29.575  53.339  0.00  0.00     0.002 A 
ATOM     26  C   UNL d   1      52.869  30.119  53.045  0.00  0.00     0.019 A 
ENDBRANCH  18  20
ENDBRANCH  16  17
ENDBRANCH   6  16
TORSDOF 3
ENDMDL
MODEL 2
REMARK VINA RESULT:      -9.5      0.806      1.638
REMARK  3 active torsions:
REMARK  status: ('A' for Active; 'I' for Inactive)
REMARK    1  A    between atoms: C_8  and  C_6 
REMARK    2  A    between atoms: C_9  and  C_8 
REMARK       I    between atoms: N_10  and  C_9 
REMARK    3  A    between atoms: C_13  and  N_10 
ROOT
ATOM      1  N   UNL d   1      52.558  33.412  53.299  0.00  0.00    -0.207 NA
ATOM      2  N   UNL d   1      53.665  32.495  54.163  0.00  0.00    -0.240 NA
ATOM      3  C   UNL d   1      52.770  32.622  53.264  0.00  0.00     0.297 A 
ATOM      4  C   UNL d   1      52.849  34.005  53.799  0.00  0.00     0.086 A 
ATOM      5  C   UNL d   1      53.788  33.214  54.527  0.00  0.00     0.083 A 
ATOM      6  C   UNL d   1      53.143  32.323  53.558  0.00  0.00     0.144 A 
ATOM      7  C   UNL d   1      53.430  33.943  54.389  0.00  0.00     0.035 A 
ATOM      8  O   UNL d   1      52.364  32.191  52.696  0.00  0.00    -0.264 OA
ATOM      9  C   UNL d   1      53.637  34.607  54.824  0.00  0.00     0.003 A 
ATOM     10  C   UNL d   1      52.485  34.735  53.655  0.00  0.00     0.019 A 
ATOM     11  C   UNL d   1      54.367  33.149  55.115  0.00  0.00     0.019 A 
ATOM     12  C   UNL d   1      54.583  33.818  55.561  0.00  0.00     0.002 A 
ATOM     13  C   UNL d   1      52.702  35.396  54.099  0.00  0.00     0.002 A 
ATOM     14  C   UNL d   1      54.218  34.546  55.415  0.00  0.00     0.000 A 
ATOM     15  C   UNL d   1      53.272  35.335  54.678  0.00  0.00     0.000 A 
ENDROOT
BRANCH   6  16
ATOM     16  C   UNL d   1      53.165  31.531  53.322  0.00  0.00     0.086 C 
BRANCH  16  17
ATOM     17  C   UNL d   1      53.852  31.232  52.964  0.00  0.00     0.281 C 
ATOM     18  N   UNL d   1      54.015  30.428  53.001  0.00  0.00    -0.208 NA
ATOM     19  O   UNL d   1      54.373  31.736  52.570  0.00  0.00    -0.265 OA
BRANCH  18  20
ATOM     20  C   UNL d   1      53.500  29.918  53.392  0.00  0.00     0.085 A 
ATOM     21  C   UNL d   1      53.698  29.614  54.134  0.00  0.00     0.019 A 
ATOM     22  C   UNL d   1      53.184  29.109  54.518  0.00  0.00     0.002 A 
ATOM     23  C   UNL d   1      53.382  28.810  55.252  0.00  0.00     0.000 C 
ATOM     24  C   UNL d   1      52.469  28.898  54.171  0.00  0.00     0.000 A 
ATOM     25  C   UNL d   1      52.269  29.203  53.426  0.00  0.00     0.002 A 
ATOM     26  C   UNL d   1      52.789  29.713  53.040  0.00  0.00     0.019 A 
ENDBRANCH  18  20
ENDBRANCH  16  17
ENDBRANCH   6  16
TORSDOF 3
ENDMDL
MODEL 3
REMARK VINA RESULT:      -8.6      0.862      4.290
REMARK  3 active torsions:
REMARK  status: ('A' for Active; 'I' for Inactive)
REMARK    1  A    between atoms: C_8  and  C_6 
REMARK    2  A    between atoms: C_9  and  C_8 
REMARK       I    between atoms: N_10  and  C_9 
REMARK    3  A    between atoms: C_13  and  N_10 
ROOT
ATOM      1  N   UNL d   1      53.676  31.080  55.129  0.00  0.00    -0.207 NA
ATOM      2  N   UNL d   1      53.324  31.663  53.596  0.00  0.00    -0.240 NA
ATOM      3  C   UNL d   1      53.682  31.833  54.808  0.00  0.00     0.297 A 
ATOM      4  C   UNL d   1      53.484  30.362  54.763  0.00  0.00     0.086 A 
ATOM      5  C   UNL d   1      53.188  30.870  53.463  0.00  0.00     0.083 A 
ATOM      6  C   UNL d   1      53.563  32.020  54.293  0.00  0.00     0.144 A 
ATOM      7  C   UNL d   1      53.250  30.230  53.978  0.00  0.00     0.035 A 
ATOM      8  O   UNL d   1      53.903  32.421  55.336  0.00  0.00    -0.264 OA
ATOM      9  C   UNL d   1      53.084  29.466  53.728  0.00  0.00     0.003 A 
ATOM     10  C   UNL d   1      53.549  29.723  55.287  0.00  0.00     0.019 A 
ATOM     11  C   UNL d   1      52.954  30.741  52.679  0.00  0.00     0.019 A 
ATOM     12  C   UNL d   1      52.784  29.969  52.418  0.00  0.00     0.002 A 
ATOM     13  C   UNL d   1      53.380  28.959  55.024  0.00  0.00     0.002 A 
ATOM     14  C   UNL d   1      52.850  29.333  52.943  0.00  0.00     0.000 A 
ATOM     15  C   UNL d   1      53.150  28.830  54.254  0.00  0.00     0.000 A 
ENDROOT
BRANCH   6  16
ATOM     16  C   UNL d   1      53.648  32.839  54.227  0.00  0.00     0.086 C 
BRANCH  16  17
ATOM     17  C   UNL d   1      54.210  33.149  53.701  0.00  0.00     0.281 C 
ATOM     18  N   UNL d   1      54.082  33.881  53.351  0.00  0.00    -0.208 NA
ATOM     19  O   UNL d   1      54.897  32.728  53.525  0.00  0.00    -0.265 OA
BRANCH  18  20
ATOM     20  C   UNL d   1      53.399  34.308  53.521  0.00  0.00     0.085 A 
ATOM     21  C   UNL d   1      52.730  34.231  53.044  0.00  0.00     0.019 A 
ATOM     22  C   UNL d   1      52.054  34.657  53.216  0.00  0.00     0.002 A 
ATOM     23  C   UNL d   1      51.394  34.579  52.742  0.00  0.00     0.000 C 
ATOM     24  C   UNL d   1      52.035  35.164  53.863  0.00  0.00     0.000 A 
ATOM     25  C   UNL d   1      52.707  35.242  54.344  0.00  0.00     0.002 A 
ATOM     26  C   UNL d   1      53.387  34.811  54.168  0.00  0.00     0.019 A 
ENDBRANCH  18  20
ENDBRANCH  16  17
ENDBRANCH   6  16
TORSDOF 3
ENDMDL
