MODEL 1
REMARK VINA RESULT:      -8.5      0.000      0.000
REMARK  4 active torsions:
REMARK  status: ('A' for Active; 'I' for Inactive)
REMARK    1  A    between atoms: C_8  and  C_4 
REMARK       I    between atoms: C_7  and  N_10 
REMARK    2  A    between atoms: C_16  and  C_7 
REMARK    3  A    between atoms: N_10  and  C_13 
REMARK    4  A    between atoms: C_17  and  C_16 
ROOT
ATOM      1  C   UNL d   1      51.484  34.044  52.884  0.00  0.00     0.021 A 
ATOM      2  C   UNL d   1      51.756  33.313  52.607  0.00  0.00     0.021 A 
ATOM      3  C   UNL d   1      52.502  33.044  52.820  0.00  0.00     0.085 A 
ATOM      4  C   UNL d   1      51.961  34.503  53.375  0.00  0.00     0.002 A 
ATOM      5  C   UNL d   1      52.711  34.238  53.593  0.00  0.00     0.002 A 
ATOM      6  C   UNL d   1      52.982  33.501  53.312  0.00  0.00     0.019 A 
ENDROOT
BRANCH   1   7
ATOM      7  C   UNL d   1      50.735  34.315  52.670  0.00  0.00     0.118 A 
ATOM      8  N   UNL d   1      50.388  34.237  51.931  0.00  0.00    -0.059 NA
ATOM      9  C   UNL d   1      49.643  34.585  51.966  0.00  0.00     0.735 A 
ATOM     10  N   UNL d   1      49.527  34.878  52.723  0.00  0.00    -0.136 N 
ATOM     11  N   UNL d   1      49.056  34.666  51.386  0.00  0.00    -0.059 NA
ATOM     12  C   UNL d   1      50.203  34.711  53.161  0.00  0.00     0.118 A 
ATOM     13  C   UNL d   1      48.822  35.257  52.913  0.00  0.00     0.100 A 
ATOM     14  C   UNL d   1      48.237  35.341  52.346  0.00  0.00     0.041 A 
ATOM     15  C   UNL d   1      48.353  35.048  51.589  0.00  0.00     0.119 A 
ENDBRANCH   1   7
BRANCH   3  16
ATOM     16  N   UNL d   1      52.769  32.315  52.542  0.00  0.00    -0.208 NA
ATOM     17  C   UNL d   1      52.799  31.663  53.049  0.00  0.00     0.275 C 
ATOM     18  O   UNL d   1      52.563  31.740  53.831  0.00  0.00    -0.266 OA
BRANCH  17  19
ATOM     19  C   UNL d   1      53.065  30.938  52.774  0.00  0.00     0.036 C 
BRANCH  19  20
ATOM     20  C   UNL d   1      53.108  30.302  53.291  0.00  0.00     0.023 C 
ATOM     21  C   UNL d   1      53.883  30.332  53.604  0.00  0.00     0.004 C 
ATOM     22  C   UNL d   1      52.379  29.940  53.258  0.00  0.00     0.004 C 
ATOM     23  C   UNL d   1      53.157  29.661  53.814  0.00  0.00     0.004 C 
ENDBRANCH  19  20
ENDBRANCH  17  19
ENDBRANCH   3  16
TORSDOF 4
ENDMDL
MODEL 2
REMARK VINA RESULT:      -7.9      1.162      4.890
REMARK  4 active torsions:
REMARK  status: ('A' for Active; 'I' for Inactive)
REMARK    1  A    between atoms: C_8  and  C_4 
REMARK       I    between atoms: C_7  and  N_10 
REMARK    2  A    between atoms: C_16  and  C_7 
REMARK    3  A    between atoms: N_10  and  C_13 
REMARK    4  A    between atoms: C_17  and  C_16 
ROOT
ATOM      1  C   UNL d   1      52.232  33.263  53.082  0.00  0.00     0.021 A 
ATOM      2  C   UNL d   1      51.415  33.394  53.083  0.00  0.00     0.021 A 
ATOM      3  C   UNL d   1      51.121  34.159  53.028  0.00  0.00     0.085 A 
ATOM      4  C   UNL d   1      52.753  33.899  53.026  0.00  0.00     0.002 A 
ATOM      5  C   UNL d   1      52.464  34.670  52.971  0.00  0.00     0.002 A 
ATOM      6  C   UNL d   1      51.641  34.799  52.972  0.00  0.00     0.019 A 
ENDROOT
BRANCH   1   7
ATOM      7  C   UNL d   1      52.527  32.494  53.137  0.00  0.00     0.118 A 
ATOM      8  N   UNL d   1      52.362  31.878  52.624  0.00  0.00    -0.059 NA
ATOM      9  C   UNL d   1      52.772  31.215  52.888  0.00  0.00     0.735 A 
ATOM     10  N   UNL d   1      53.190  31.419  53.563  0.00  0.00    -0.136 N 
ATOM     11  N   UNL d   1      52.809  30.445  52.584  0.00  0.00    -0.059 NA
ATOM     12  C   UNL d   1      53.040  32.212  53.719  0.00  0.00     0.118 A 
ATOM     13  C   UNL d   1      53.653  30.856  53.946  0.00  0.00     0.100 A 
ATOM     14  C   UNL d   1      53.694  30.092  53.651  0.00  0.00     0.041 A 
ATOM     15  C   UNL d   1      53.276  29.888  52.976  0.00  0.00     0.119 A 
ENDBRANCH   1   7
BRANCH   3  16
ATOM     16  N   UNL d   1      50.307  34.287  53.028  0.00  0.00    -0.208 NA
ATOM     17  C   UNL d   1      49.906  34.417  52.317  0.00  0.00     0.275 C 
ATOM     18  O   UNL d   1      50.320  34.419  51.607  0.00  0.00    -0.266 OA
BRANCH  17  19
ATOM     19  C   UNL d   1      49.097  34.543  52.316  0.00  0.00     0.036 C 
BRANCH  19  20
ATOM     20  C   UNL d   1      48.731  34.811  51.631  0.00  0.00     0.023 C 
ATOM     21  C   UNL d   1      48.413  35.556  51.835  0.00  0.00     0.004 C 
ATOM     22  C   UNL d   1      48.849  34.227  51.076  0.00  0.00     0.004 C 
ATOM     23  C   UNL d   1      48.361  35.085  50.943  0.00  0.00     0.004 C 
ENDBRANCH  19  20
ENDBRANCH  17  19
ENDBRANCH   3  16
TORSDOF 4
ENDMDL
MODEL 3
REMARK VINA RESULT:      -7.9      1.762      2.365
REMARK  4 active torsions:
REMARK  status: ('A' for Active; 'I' for Inactive)
REMARK    1  A    between atoms: C_8  and  C_4 
REMARK       I    between atoms: C_7  and  N_10 
REMARK    2  A    between atoms: C_16  and  C_7 
REMARK    3  A    between atoms: N_10  and  C_13 
REMARK    4  A    between atoms: C_17  and  C_16 
ROOT
ATOM      1  C   UNL d   1      50.482  34.444  52.653  0.00  0.00     0.021 A 
ATOM      2  C   UNL d   1      50.878  34.127  53.307  0.00  0.00     0.021 A 
ATOM      3  C   UNL d   1      51.577  33.710  53.202  0.00  0.00     0.085 A 
ATOM      4  C   UNL d   1      50.788  34.341  51.895  0.00  0.00     0.002 A 
ATOM      5  C   UNL d   1      51.491  33.922  51.783  0.00  0.00     0.002 A 
ATOM      6  C   UNL d   1      51.887  33.605  52.444  0.00  0.00     0.019 A 
ENDROOT
BRANCH   1   7
ATOM      7  C   UNL d   1      49.779  34.863  52.758  0.00  0.00     0.118 A 
ATOM      8  N   UNL d   1      49.600  35.349  53.393  0.00  0.00    -0.059 NA
ATOM      9  C   UNL d   1      48.845  35.653  53.270  0.00  0.00     0.735 A 
ATOM     10  N   UNL d   1      48.556  35.357  52.562  0.00  0.00    -0.136 N 
ATOM     11  N   UNL d   1      48.388  36.170  53.730  0.00  0.00    -0.059 NA
ATOM     12  C   UNL d   1      49.134  34.866  52.243  0.00  0.00     0.118 A 
ATOM     13  C   UNL d   1      47.806  35.572  52.302  0.00  0.00     0.100 A 
ATOM     14  C   UNL d   1      47.348  36.083  52.752  0.00  0.00     0.041 A 
ATOM     15  C   UNL d   1      47.637  36.379  53.460  0.00  0.00     0.119 A 
ENDBRANCH   1   7
BRANCH   3  16
ATOM     16  N   UNL d   1      51.969  33.396  53.856  0.00  0.00    -0.208 NA
ATOM     17  C   UNL d   1      52.725  33.666  54.056  0.00  0.00     0.275 C 
ATOM     18  O   UNL d   1      53.087  34.247  53.603  0.00  0.00    -0.266 OA
BRANCH  17  19
ATOM     19  C   UNL d   1      53.116  33.355  54.705  0.00  0.00     0.036 C 
BRANCH  19  20
ATOM     20  C   UNL d   1      53.935  33.395  54.741  0.00  0.00     0.023 C 
ATOM     21  C   UNL d   1      54.200  32.667  54.428  0.00  0.00     0.004 C 
ATOM     22  C   UNL d   1      54.106  34.124  55.063  0.00  0.00     0.004 C 
ATOM     23  C   UNL d   1      54.762  33.431  54.774  0.00  0.00     0.004 C 
ENDBRANCH  19  20
ENDBRANCH  17  19
ENDBRANCH   3  16
TORSDOF 4
ENDMDL
MODEL 4
REMARK VINA RESULT:      -7.7      1.939      5.226
REMARK  4 active torsions:
REMARK  status: ('A' for Active; 'I' for Inactive)
REMARK    1  A    between atoms: C_8  and  C_4 
REMARK       I    between atoms: C_7  and  N_10 
REMARK    2  A    between atoms: C_16  and  C_7 
REMARK    3  A    between atoms: N_10  and  C_13 
REMARK    4  A    between atoms: C_17  and  C_16 
ROOT
ATOM      1  C   UNL d   1      51.696  34.087  52.947  0.00  0.00     0.021 A 
ATOM      2  C   UNL d   1      50.919  34.171  53.219  0.00  0.00     0.021 A 
ATOM      3  C   UNL d   1      50.313  34.332  52.689  0.00  0.00     0.085 A 
ATOM      4  C   UNL d   1      51.864  34.165  52.144  0.00  0.00     0.002 A 
ATOM      5  C   UNL d   1      51.259  34.326  51.606  0.00  0.00     0.002 A 
ATOM      6  C   UNL d   1      50.477  34.411  51.883  0.00  0.00     0.019 A 
ENDROOT
BRANCH   1   7
ATOM      7  C   UNL d   1      52.305  33.925  53.480  0.00  0.00     0.118 A 
ATOM      8  N   UNL d   1      52.714  34.478  53.925  0.00  0.00    -0.059 NA
ATOM      9  C   UNL d   1      53.270  34.073  54.377  0.00  0.00     0.735 A 
ATOM     10  N   UNL d   1      53.207  33.272  54.214  0.00  0.00    -0.136 N 
ATOM     11  N   UNL d   1      53.829  34.351  54.923  0.00  0.00    -0.059 NA
ATOM     12  C   UNL d   1      52.609  33.178  53.657  0.00  0.00     0.118 A 
ATOM     13  C   UNL d   1      53.702  32.735  54.593  0.00  0.00     0.100 A 
ATOM     14  C   UNL d   1      54.257  33.002  55.134  0.00  0.00     0.041 A 
ATOM     15  C   UNL d   1      54.320  33.803  55.297  0.00  0.00     0.119 A 
ENDBRANCH   1   7
BRANCH   3  16
ATOM     16  N   UNL d   1      49.540  34.416  52.963  0.00  0.00    -0.208 NA
ATOM     17  C   UNL d   1      49.196  35.166  53.013  0.00  0.00     0.275 C 
ATOM     18  O   UNL d   1      49.624  35.830  52.789  0.00  0.00    -0.266 OA
BRANCH  17  19
ATOM     19  C   UNL d   1      48.428  35.250  53.285  0.00  0.00     0.036 C 
BRANCH  19  20
ATOM     20  C   UNL d   1      48.052  35.976  53.212  0.00  0.00     0.023 C 
ATOM     21  C   UNL d   1      47.692  35.957  52.458  0.00  0.00     0.004 C 
ATOM     22  C   UNL d   1      48.204  36.374  53.907  0.00  0.00     0.004 C 
ATOM     23  C   UNL d   1      47.670  36.708  53.134  0.00  0.00     0.004 C 
ENDBRANCH  19  20
ENDBRANCH  17  19
ENDBRANCH   3  16
TORSDOF 4
ENDMDL
MODEL 5
REMARK VINA RESULT:      -7.3      1.739      4.977
REMARK  4 active torsions:
REMARK  status: ('A' for Active; 'I' for Inactive)
REMARK    1  A    between atoms: C_8  and  C_4 
REMARK       I    between atoms: C_7  and  N_10 
REMARK    2  A    between atoms: C_16  and  C_7 
REMARK    3  A    between atoms: N_10  and  C_13 
REMARK    4  A    between atoms: C_17  and  C_16 
ROOT
ATOM      1  C   UNL d   1      53.664  32.360  54.231  0.00  0.00     0.021 A 
ATOM      2  C   UNL d   1      53.233  32.842  53.713  0.00  0.00     0.021 A 
ATOM      3  C   UNL d   1      53.326  33.657  53.736  0.00  0.00     0.085 A 
ATOM      4  C   UNL d   1      54.187  32.699  54.770  0.00  0.00     0.002 A 
ATOM      5  C   UNL d   1      54.286  33.517  54.798  0.00  0.00     0.002 A 
ATOM      6  C   UNL d   1      53.850  33.999  54.275  0.00  0.00     0.019 A 
ENDROOT
BRANCH   1   7
ATOM      7  C   UNL d   1      53.570  31.541  54.208  0.00  0.00     0.118 A 
ATOM      8  N   UNL d   1      53.476  31.049  54.857  0.00  0.00    -0.059 NA
ATOM      9  C   UNL d   1      53.402  30.279  54.578  0.00  0.00     0.735 A 
ATOM     10  N   UNL d   1      53.451  30.291  53.760  0.00  0.00    -0.136 N 
ATOM     11  N   UNL d   1      53.296  29.564  54.985  0.00  0.00    -0.059 NA
ATOM     12  C   UNL d   1      53.555  31.073  53.528  0.00  0.00     0.118 A 
ATOM     13  C   UNL d   1      53.394  29.589  53.334  0.00  0.00     0.100 A 
ATOM     14  C   UNL d   1      53.289  28.878  53.729  0.00  0.00     0.041 A 
ATOM     15  C   UNL d   1      53.240  28.866  54.548  0.00  0.00     0.119 A 
ENDBRANCH   1   7
BRANCH   3  16
ATOM     16  N   UNL d   1      52.895  34.133  53.219  0.00  0.00    -0.208 NA
ATOM     17  C   UNL d   1      52.086  34.254  53.343  0.00  0.00     0.275 C 
ATOM     18  O   UNL d   1      51.711  33.900  53.981  0.00  0.00    -0.266 OA
BRANCH  17  19
ATOM     19  C   UNL d   1      51.657  34.727  52.830  0.00  0.00     0.036 C 
BRANCH  19  20
ATOM     20  C   UNL d   1      50.909  34.486  52.590  0.00  0.00     0.023 C 
ATOM     21  C   UNL d   1      51.025  34.144  51.836  0.00  0.00     0.004 C 
ATOM     22  C   UNL d   1      50.406  34.693  53.196  0.00  0.00     0.004 C 
ATOM     23  C   UNL d   1      50.157  34.241  52.343  0.00  0.00     0.004 C 
ENDBRANCH  19  20
ENDBRANCH  17  19
ENDBRANCH   3  16
TORSDOF 4
ENDMDL
