MODEL 1
REMARK VINA RESULT:     154.7      0.000      0.000
REMARK  4 active torsions:
REMARK  status: ('A' for Active; 'I' for Inactive)
REMARK    1  A    between atoms: N_11  and  C_4 
REMARK    2  A    between atoms: C_13  and  C_17 
REMARK    3  A    between atoms: C_17  and  N_16 
REMARK    4  A    between atoms: O_29  and  C_18 
ROOT
ATOM      1  N   UNL d   1     -58.538 -98.987 -44.839  0.00  0.00    -0.195 N 
ATOM      2  C   UNL d   1     -58.014 -98.929 -45.454  0.00  0.00     0.168 A 
ATOM      3  C   UNL d   1     -58.273 -98.906 -46.209  0.00  0.00     0.073 A 
ATOM      4  C   UNL d   1     -58.261 -99.008 -44.092  0.00  0.00     0.153 A 
ATOM      5  N   UNL d   1     -59.584 -98.999 -45.732  0.00  0.00    -0.143 NA
ATOM      6  C   UNL d   1     -59.060 -98.941 -46.347  0.00  0.00     0.185 A 
ATOM      7  N   UNL d   1     -57.227 -98.894 -45.306  0.00  0.00    -0.227 NA
ATOM      8  C   UNL d   1     -57.755 -98.849 -46.818  0.00  0.00     0.007 A 
ATOM      9  N   UNL d   1     -59.338 -98.919 -47.106  0.00  0.00    -0.225 NA
ATOM     10  C   UNL d   1     -57.483 -98.974 -43.939  0.00  0.00     0.057 A 
ATOM     11  C   UNL d   1     -58.015 -98.826 -47.574  0.00  0.00     0.019 A 
ATOM     12  C   UNL d   1     -56.959 -98.916 -44.554  0.00  0.00     0.086 A 
ATOM     13  C   UNL d   1     -58.814 -98.861 -47.721  0.00  0.00     0.083 A 
ATOM     14  C   UNL d   1     -56.965 -98.814 -46.667  0.00  0.00     0.000 C 
ATOM     15  C   UNL d   1     -56.141 -98.880 -44.397  0.00  0.00     0.021 C 
ATOM     16  C   UNL d   1     -59.078 -98.839 -48.470  0.00  0.00     0.021 C 
ENDROOT
BRANCH   4  17
ATOM     17  N   UNL d   1     -58.808 -99.068 -43.463  0.00  0.00    -0.286 N 
ATOM     18  C   UNL d   1     -59.585 -99.324 -43.386  0.00  0.00     0.101 A 
ATOM     19  C   UNL d   1     -59.959 -99.299 -42.642  0.00  0.00     0.100 A 
ATOM     20  N   UNL d   1     -59.560 -99.020 -41.971  0.00  0.00    -0.300 N 
ATOM     21  C   UNL d   1     -58.759 -98.757 -42.054  0.00  0.00     0.100 A 
ATOM     22  C   UNL d   1     -58.391 -98.785 -42.804  0.00  0.00     0.101 A 
BRANCH  20  23
ATOM     23  C   UNL d   1     -59.932 -98.995 -41.229  0.00  0.00     0.082 C 
BRANCH  23  24
ATOM     24  C   UNL d   1     -59.543 -99.272 -40.557  0.00  0.00     0.042 A 
ATOM     25  C   UNL d   1     -58.975 -99.882 -40.624  0.00  0.00     0.096 A 
ATOM     26  C   UNL d   1     -58.592-100.151 -39.942  0.00  0.00     0.027 A 
ATOM     27  C   UNL d   1     -58.763 -99.827 -39.199  0.00  0.00     0.032 A 
ATOM     28  C   UNL d   1     -59.331 -99.217 -39.130  0.00  0.00     0.140 A 
ATOM     29  C   UNL d   1     -59.719 -98.942 -39.815  0.00  0.00     0.033 A 
ATOM     30  F   UNL d   1     -59.509 -98.885 -38.390  0.00  0.00    -0.204 F 
BRANCH  25  31
ATOM     31  O   UNL d   1     -58.803-100.205 -41.355  0.00  0.00    -0.328 OA
ATOM     32  C   UNL d   1     -58.927-101.017 -41.496  0.00  0.00     0.181 C 
ENDBRANCH  25  31
ENDBRANCH  23  24
ENDBRANCH  20  23
ENDBRANCH   4  17
TORSDOF 4
ENDMDL
