MODEL 1
REMARK VINA RESULT:      25.5      0.000      0.000
REMARK  1 active torsions:
REMARK  status: ('A' for Active; 'I' for Inactive)
REMARK    1  A    between atoms: C_2  and  C_1 
REMARK       I    between atoms: N_3  and  C_2 
ROOT
ATOM      1  C   UNL d   1     -56.647 -98.840 -44.439  0.00  0.00     0.109 A 
ATOM      2  C   UNL d   1     -56.555 -98.879 -43.690  0.00  0.00     0.026 A 
ATOM      3  C   UNL d   1     -56.028 -98.841 -44.797  0.00  0.00    -0.014 A 
ATOM      4  C   UNL d   1     -56.199 -98.819 -45.147  0.00  0.00    -0.014 A 
ATOM      5  C   UNL d   1     -55.738 -98.911 -43.514  0.00  0.00     0.045 A 
ATOM      6  C   UNL d   1     -55.521 -98.845 -45.018  0.00  0.00    -0.007 A 
ATOM      7  C   UNL d   1     -55.185 -98.874 -44.619  0.00  0.00    -0.007 A 
ATOM      8  C   UNL d   1     -55.096 -98.912 -43.889  0.00  0.00    -0.022 A 
ATOM      9  C   UNL d   1     -54.713 -98.853 -45.330  0.00  0.00    -0.001 A 
ATOM     10  C   UNL d   1     -55.374 -98.895 -44.063  0.00  0.00    -0.022 A 
ENDROOT
BRANCH   1  11
ATOM     11  C   UNL d   1     -57.508 -98.800 -44.758  0.00  0.00     0.248 C 
ATOM     12  N   UNL d   1     -58.241 -98.799 -44.446  0.00  0.00    -0.275 N 
ATOM     13  C   UNL d   1     -58.877 -98.755 -44.921  0.00  0.00     0.083 A 
ATOM     14  C   UNL d   1     -58.322 -98.844 -43.650  0.00  0.00     0.083 A 
ATOM     15  C   UNL d   1     -59.634 -98.756 -44.591  0.00  0.00     0.019 A 
ATOM     16  C   UNL d   1     -59.734 -98.800 -43.794  0.00  0.00     0.003 A 
ATOM     17  C   UNL d   1     -59.078 -98.844 -43.321  0.00  0.00     0.019 A 
ATOM     18  O   UNL d   1     -57.161 -98.759 -45.606  0.00  0.00    -0.271 OA
ENDBRANCH   1  11
TORSDOF 1
ENDMDL
MODEL 2
REMARK VINA RESULT:      27.6      7.386      8.335
REMARK  1 active torsions:
REMARK  status: ('A' for Active; 'I' for Inactive)
REMARK    1  A    between atoms: C_2  and  C_1 
REMARK       I    between atoms: N_3  and  C_2 
ROOT
ATOM      1  C   UNL d   1     -55.510-102.223 -36.896  0.00  0.00     0.109 A 
ATOM      2  C   UNL d   1     -55.129-102.801 -36.592  0.00  0.00     0.026 A 
ATOM      3  C   UNL d   1     -55.462-101.622 -36.511  0.00  0.00    -0.014 A 
ATOM      4  C   UNL d   1     -55.685-101.416 -36.756  0.00  0.00    -0.014 A 
ATOM      5  C   UNL d   1     -54.763-102.547 -35.885  0.00  0.00     0.045 A 
ATOM      6  C   UNL d   1     -55.388-101.191 -36.174  0.00  0.00    -0.007 A 
ATOM      7  C   UNL d   1     -55.086-101.357 -35.783  0.00  0.00    -0.007 A 
ATOM      8  C   UNL d   1     -54.714-101.921 -35.486  0.00  0.00    -0.022 A 
ATOM      9  C   UNL d   1     -55.253-100.536 -35.623  0.00  0.00    -0.001 A 
ATOM     10  C   UNL d   1     -54.892-101.912 -35.762  0.00  0.00    -0.022 A 
ENDROOT
BRANCH   1  11
ATOM     11  C   UNL d   1     -55.959-102.380 -37.683  0.00  0.00     0.248 C 
ATOM     12  N   UNL d   1     -55.762-102.541 -38.438  0.00  0.00    -0.275 N 
ATOM     13  C   UNL d   1     -56.331-102.646 -38.984  0.00  0.00     0.083 A 
ATOM     14  C   UNL d   1     -54.988-102.595 -38.634  0.00  0.00     0.083 A 
ATOM     15  C   UNL d   1     -56.121-102.813 -39.765  0.00  0.00     0.019 A 
ATOM     16  C   UNL d   1     -55.347-102.870 -39.979  0.00  0.00     0.003 A 
ATOM     17  C   UNL d   1     -54.778-102.761 -39.413  0.00  0.00     0.019 A 
ATOM     18  O   UNL d   1     -56.745-102.271 -37.223  0.00  0.00    -0.271 OA
ENDBRANCH   1  11
TORSDOF 1
ENDMDL
