MODEL 1
REMARK VINA RESULT:      62.3      0.000      0.000
REMARK  7 active torsions:
REMARK  status: ('A' for Active; 'I' for Inactive)
REMARK       I    between atoms: C_2  and  N_1 
REMARK    1  A    between atoms: C_7  and  C_2 
REMARK    2  A    between atoms: C_10  and  C_3 
REMARK       I    between atoms: C_4  and  N_6 
REMARK    3  A    between atoms: C_5  and  C_4 
REMARK       I    between atoms: N_13  and  C_5 
REMARK    4  A    between atoms: N_6  and  C_10 
REMARK    5  A    between atoms: C_23  and  N_13 
REMARK    6  A    between atoms: O_22  and  C_24 
REMARK    7  A    between atoms: C_24  and  C_23 
ROOT
ATOM      1  N   UNL d   1     -49.344  27.755  35.231  0.00  0.00    -0.250 N 
ATOM      2  C   UNL d   1     -49.398  27.602  34.419  0.00  0.00     0.266 C 
ATOM      3  C   UNL d   1     -48.872  28.326  35.592  0.00  0.00     0.190 A 
ATOM      4  O   UNL d   1     -48.953  28.039  33.885  0.00  0.00    -0.267 OA
ATOM      5  O   UNL d   1     -48.992  28.285  36.414  0.00  0.00    -0.285 OA
ATOM      6  C   UNL d   1     -49.754  27.364  35.830  0.00  0.00     0.112 A 
ATOM      7  C   UNL d   1     -49.540  27.689  36.563  0.00  0.00     0.144 A 
ENDROOT
BRANCH   3   8
ATOM      8  C   UNL d   1     -48.368  28.846  35.201  0.00  0.00     0.146 C 
BRANCH   8   9
ATOM      9  N   UNL d   1     -47.652  29.065  35.547  0.00  0.00    -0.199 NA
ATOM     10  C   UNL d   1     -47.379  29.833  35.467  0.00  0.00     0.337 C 
ATOM     11  O   UNL d   1     -46.665  30.052  35.812  0.00  0.00    -0.260 OA
BRANCH  10  12
ATOM     12  C   UNL d   1     -47.816  30.394  35.043  0.00  0.00     0.337 C 
ATOM     13  O   UNL d   1     -48.530  30.174  34.696  0.00  0.00    -0.260 OA
ATOM     14  N   UNL d   1     -47.544  31.167  34.962  0.00  0.00    -0.200 NA
BRANCH  14  15
ATOM     15  C   UNL d   1     -47.969  31.724  34.545  0.00  0.00     0.129 C 
BRANCH  15  16
ATOM     16  C   UNL d   1     -47.600  32.235  34.010  0.00  0.00     0.137 C 
BRANCH  16  17
ATOM     17  O   UNL d   1     -47.752  33.044  34.028  0.00  0.00    -0.325 OA
ATOM     18  C   UNL d   1     -48.346  33.378  33.552  0.00  0.00     0.182 C 
ENDBRANCH  16  17
ENDBRANCH  15  16
ENDBRANCH  14  15
ENDBRANCH  10  12
ENDBRANCH   8   9
ENDBRANCH   3   8
BRANCH   2  19
ATOM     19  C   UNL d   1     -49.908  26.998  34.140  0.00  0.00     0.057 A 
ATOM     20  C   UNL d   1     -49.597  26.292  33.868  0.00  0.00     0.006 A 
ATOM     21  C   UNL d   1     -50.101  25.698  33.594  0.00  0.00     0.012 A 
ATOM     22  C   UNL d   1     -50.915  25.817  33.594  0.00  0.00     0.058 A 
ATOM     23  C   UNL d   1     -51.228  26.532  33.870  0.00  0.00     0.012 A 
ATOM     24 CL   UNL d   1     -51.422  25.215  33.317  0.00  0.00    -0.082 Cl
ATOM     25  C   UNL d   1     -50.725  27.115  34.140  0.00  0.00     0.006 A 
ENDBRANCH   2  19
TORSDOF 7
ENDMDL
