MODEL 1
REMARK VINA RESULT:      -3.3      0.000      0.000
REMARK  1 active torsions:
REMARK  status: ('A' for Active; 'I' for Inactive)
REMARK    1  A    between atoms: C_11  and  C_9 
ROOT
ATOM      1  N   UNL d   1      33.046  20.489 -22.545  0.00  0.00    -0.253 N 
ATOM      2  C   UNL d   1      32.914  20.386 -21.742  0.00  0.00     0.182 A 
ATOM      3  C   UNL d   1      33.104  21.274 -22.849  0.00  0.00     0.267 A 
ATOM      4  N   UNL d   1      32.881  19.595 -21.589  0.00  0.00    -0.221 NA
ATOM      5  S   UNL d   1      32.838  21.021 -21.231  0.00  0.00    -0.050 SA
ATOM      6  C   UNL d   1      33.031  21.920 -22.358  0.00  0.00     0.068 A 
ATOM      7  C   UNL d   1      33.093  19.753 -22.880  0.00  0.00     0.086 A 
ATOM      8  C   UNL d   1      32.993  19.178 -22.304  0.00  0.00     0.100 A 
ATOM      9  C   UNL d   1      32.893  21.788 -21.523  0.00  0.00     0.037 A 
ATOM     10  O   UNL d   1      33.240  21.408 -23.681  0.00  0.00    -0.267 OA
ATOM     11  C   UNL d   1      33.221  19.516 -23.684  0.00  0.00     0.019 A 
ATOM     12  C   UNL d   1      33.015  18.388 -22.488  0.00  0.00     0.021 A 
ATOM     13  C   UNL d   1      33.241  18.717 -23.857  0.00  0.00     0.002 A 
ATOM     14  C   UNL d   1      33.142  18.160 -23.285  0.00  0.00     0.002 A 
ENDROOT
BRANCH   9  15
ATOM     15  C   UNL d   1      32.803  22.377 -20.931  0.00  0.00     0.006 A 
ATOM     16  C   UNL d   1      32.306  23.022 -21.057  0.00  0.00     0.001 A 
ATOM     17  C   UNL d   1      32.213  23.613 -20.467  0.00  0.00     0.000 A 
ATOM     18  C   UNL d   1      32.623  23.544 -19.761  0.00  0.00     0.000 A 
ATOM     19  C   UNL d   1      33.133  22.889 -19.624  0.00  0.00     0.000 A 
ATOM     20  C   UNL d   1      33.223  22.310 -20.205  0.00  0.00     0.001 A 
ENDBRANCH   9  15
TORSDOF 1
ENDMDL
MODEL 2
REMARK VINA RESULT:      -3.0      0.831      4.026
REMARK  1 active torsions:
REMARK  status: ('A' for Active; 'I' for Inactive)
REMARK    1  A    between atoms: C_11  and  C_9 
ROOT
ATOM      1  N   UNL d   1      33.125  21.832 -21.459  0.00  0.00    -0.253 N 
ATOM      2  C   UNL d   1      33.085  21.105 -21.083  0.00  0.00     0.182 A 
ATOM      3  C   UNL d   1      33.194  21.851 -22.300  0.00  0.00     0.267 A 
ATOM      4  N   UNL d   1      33.022  21.232 -20.289  0.00  0.00    -0.221 NA
ATOM      5  S   UNL d   1      33.111  20.401 -21.499  0.00  0.00    -0.050 SA
ATOM      6  C   UNL d   1      33.222  21.161 -22.734  0.00  0.00     0.068 A 
ATOM      7  C   UNL d   1      33.085  22.404 -20.887  0.00  0.00     0.086 A 
ATOM      8  C   UNL d   1      33.020  22.055 -20.148  0.00  0.00     0.100 A 
ATOM      9  C   UNL d   1      33.179  20.413 -22.319  0.00  0.00     0.037 A 
ATOM     10  O   UNL d   1      33.237  22.596 -22.715  0.00  0.00    -0.267 OA
ATOM     11  C   UNL d   1      33.099  23.250 -20.946  0.00  0.00     0.019 A 
ATOM     12  C   UNL d   1      32.970  22.503 -19.473  0.00  0.00     0.021 A 
ATOM     13  C   UNL d   1      33.048  23.690 -20.258  0.00  0.00     0.002 A 
ATOM     14  C   UNL d   1      32.985  23.339 -19.537  0.00  0.00     0.002 A 
ENDROOT
BRANCH   9  15
ATOM     15  C   UNL d   1      33.198  19.647 -22.664  0.00  0.00     0.006 A 
ATOM     16  C   UNL d   1      33.222  18.976 -22.186  0.00  0.00     0.001 A 
ATOM     17  C   UNL d   1      33.241  18.208 -22.527  0.00  0.00     0.000 A 
ATOM     18  C   UNL d   1      33.236  18.131 -23.342  0.00  0.00     0.000 A 
ATOM     19  C   UNL d   1      33.212  18.811 -23.837  0.00  0.00     0.000 A 
ATOM     20  C   UNL d   1      33.193  19.564 -23.501  0.00  0.00     0.001 A 
ENDBRANCH   9  15
TORSDOF 1
ENDMDL
MODEL 3
REMARK VINA RESULT:      -2.5      0.903      1.459
REMARK  1 active torsions:
REMARK  status: ('A' for Active; 'I' for Inactive)
REMARK    1  A    between atoms: C_11  and  C_9 
ROOT
ATOM      1  N   UNL d   1      33.210  19.423 -23.260  0.00  0.00    -0.253 N 
ATOM      2  C   UNL d   1      33.198  19.305 -22.448  0.00  0.00     0.182 A 
ATOM      3  C   UNL d   1      33.228  20.213 -23.555  0.00  0.00     0.267 A 
ATOM      4  N   UNL d   1      33.181  18.512 -22.306  0.00  0.00    -0.221 NA
ATOM      5  S   UNL d   1      33.203  19.930 -21.920  0.00  0.00    -0.050 SA
ATOM      6  C   UNL d   1      33.234  20.850 -23.046  0.00  0.00     0.068 A 
ATOM      7  C   UNL d   1      33.201  18.693 -23.611  0.00  0.00     0.086 A 
ATOM      8  C   UNL d   1      33.183  18.108 -23.037  0.00  0.00     0.100 A 
ATOM      9  C   UNL d   1      33.221  20.703 -22.203  0.00  0.00     0.037 A 
ATOM     10  O   UNL d   1      33.241  20.362 -24.395  0.00  0.00    -0.267 OA
ATOM     11  C   UNL d   1      33.206  18.471 -24.429  0.00  0.00     0.019 A 
ATOM     12  C   UNL d   1      33.171  17.321 -23.237  0.00  0.00     0.021 A 
ATOM     13  C   UNL d   1      33.194  17.675 -24.617  0.00  0.00     0.002 A 
ATOM     14  C   UNL d   1      33.176  17.107 -24.047  0.00  0.00     0.002 A 
ENDROOT
BRANCH   9  15
ATOM     15  C   UNL d   1      33.224  21.281 -21.593  0.00  0.00     0.006 A 
ATOM     16  C   UNL d   1      33.235  21.051 -20.802  0.00  0.00     0.001 A 
ATOM     17  C   UNL d   1      33.238  21.627 -20.189  0.00  0.00     0.000 A 
ATOM     18  C   UNL d   1      33.231  22.422 -20.385  0.00  0.00     0.000 A 
ATOM     19  C   UNL d   1      33.221  22.665 -21.190  0.00  0.00     0.000 A 
ATOM     20  C   UNL d   1      33.217  22.099 -21.791  0.00  0.00     0.001 A 
ENDBRANCH   9  15
TORSDOF 1
ENDMDL
MODEL 4
REMARK VINA RESULT:      -1.8      2.261      4.953
REMARK  1 active torsions:
REMARK  status: ('A' for Active; 'I' for Inactive)
REMARK    1  A    between atoms: C_11  and  C_9 
ROOT
ATOM      1  N   UNL d   1      32.937  19.536 -23.445  0.00  0.00    -0.253 N 
ATOM      2  C   UNL d   1      32.867  19.204 -24.192  0.00  0.00     0.182 A 
ATOM      3  C   UNL d   1      32.891  19.031 -22.771  0.00  0.00     0.267 A 
ATOM      4  N   UNL d   1      32.929  19.793 -24.739  0.00  0.00    -0.221 NA
ATOM      5  S   UNL d   1      32.755  18.400 -24.299  0.00  0.00    -0.050 SA
ATOM      6  C   UNL d   1      32.780  18.228 -22.855  0.00  0.00     0.068 A 
ATOM      7  C   UNL d   1      33.041  20.333 -23.543  0.00  0.00     0.086 A 
ATOM      8  C   UNL d   1      33.040  20.519 -24.341  0.00  0.00     0.100 A 
ATOM      9  C   UNL d   1      32.710  17.904 -23.644  0.00  0.00     0.037 A 
ATOM     10  O   UNL d   1      32.960  19.352 -21.983  0.00  0.00    -0.267 OA
ATOM     11  C   UNL d   1      33.144  20.953 -22.974  0.00  0.00     0.019 A 
ATOM     12  C   UNL d   1      33.135  21.283 -24.597  0.00  0.00     0.021 A 
ATOM     13  C   UNL d   1      33.239  21.720 -23.244  0.00  0.00     0.002 A 
ATOM     14  C   UNL d   1      33.236  21.892 -24.030  0.00  0.00     0.002 A 
ENDROOT
BRANCH   9  15
ATOM     15  C   UNL d   1      32.594  17.096 -23.846  0.00  0.00     0.006 A 
ATOM     16  C   UNL d   1      33.239  16.616 -24.029  0.00  0.00     0.001 A 
ATOM     17  C   UNL d   1      33.127  15.808 -24.232  0.00  0.00     0.000 A 
ATOM     18  C   UNL d   1      32.368  15.499 -24.245  0.00  0.00     0.000 A 
ATOM     19  C   UNL d   1      31.705  15.982 -24.059  0.00  0.00     0.000 A 
ATOM     20  C   UNL d   1      31.817  16.775 -23.861  0.00  0.00     0.001 A 
ENDBRANCH   9  15
TORSDOF 1
ENDMDL
MODEL 5
REMARK VINA RESULT:      -1.6      1.555      2.434
REMARK  1 active torsions:
REMARK  status: ('A' for Active; 'I' for Inactive)
REMARK    1  A    between atoms: C_11  and  C_9 
ROOT
ATOM      1  N   UNL d   1      33.001  18.637 -23.260  0.00  0.00    -0.253 N 
ATOM      2  C   UNL d   1      32.916  19.298 -23.739  0.00  0.00     0.182 A 
ATOM      3  C   UNL d   1      33.149  18.749 -22.437  0.00  0.00     0.267 A 
ATOM      4  N   UNL d   1      32.780  19.050 -24.493  0.00  0.00    -0.221 NA
ATOM      5  S   UNL d   1      32.972  20.058 -23.440  0.00  0.00    -0.050 SA
ATOM      6  C   UNL d   1      33.208  19.497 -22.120  0.00  0.00     0.068 A 
ATOM      7  C   UNL d   1      32.915  17.984 -23.731  0.00  0.00     0.086 A 
ATOM      8  C   UNL d   1      32.776  18.215 -24.506  0.00  0.00     0.100 A 
ATOM      9  C   UNL d   1      33.116  20.172 -22.638  0.00  0.00     0.037 A 
ATOM     10  O   UNL d   1      33.241  18.077 -21.918  0.00  0.00    -0.267 OA
ATOM     11  C   UNL d   1      32.946  17.158 -23.545  0.00  0.00     0.019 A 
ATOM     12  C   UNL d   1      32.669  17.669 -25.096  0.00  0.00     0.021 A 
ATOM     13  C   UNL d   1      32.836  16.617 -24.149  0.00  0.00     0.002 A 
ATOM     14  C   UNL d   1      32.701  16.852 -24.906  0.00  0.00     0.002 A 
ENDROOT
BRANCH   9  15
ATOM     15  C   UNL d   1      33.158  20.982 -22.419  0.00  0.00     0.006 A 
ATOM     16  C   UNL d   1      33.177  21.570 -22.997  0.00  0.00     0.001 A 
ATOM     17  C   UNL d   1      33.218  22.381 -22.782  0.00  0.00     0.000 A 
ATOM     18  C   UNL d   1      33.240  22.585 -21.989  0.00  0.00     0.000 A 
ATOM     19  C   UNL d   1      33.220  21.992 -21.393  0.00  0.00     0.000 A 
ATOM     20  C   UNL d   1      33.180  21.196 -21.606  0.00  0.00     0.001 A 
ENDBRANCH   9  15
TORSDOF 1
ENDMDL
MODEL 6
REMARK VINA RESULT:      -0.4      2.811      4.040
REMARK  1 active torsions:
REMARK  status: ('A' for Active; 'I' for Inactive)
REMARK    1  A    between atoms: C_11  and  C_9 
ROOT
ATOM      1  N   UNL d   1      31.413  17.316 -23.791  0.00  0.00    -0.253 N 
ATOM      2  C   UNL d   1      31.211  18.068 -24.052  0.00  0.00     0.182 A 
ATOM      3  C   UNL d   1      32.042  17.235 -23.234  0.00  0.00     0.267 A 
ATOM      4  N   UNL d   1      30.602  18.000 -24.575  0.00  0.00    -0.221 NA
ATOM      5  S   UNL d   1      31.602  18.736 -23.787  0.00  0.00    -0.050 SA
ATOM      6  C   UNL d   1      32.444  17.888 -22.958  0.00  0.00     0.068 A 
ATOM      7  C   UNL d   1      30.920  16.791 -24.161  0.00  0.00     0.086 A 
ATOM      8  C   UNL d   1      30.405  17.193 -24.656  0.00  0.00     0.100 A 
ATOM      9  C   UNL d   1      32.216  18.663 -23.244  0.00  0.00     0.037 A 
ATOM     10  O   UNL d   1      32.270  16.464 -22.948  0.00  0.00    -0.267 OA
ATOM     11  C   UNL d   1      30.870  15.946 -24.109  0.00  0.00     0.019 A 
ATOM     12  C   UNL d   1      29.849  16.799 -25.096  0.00  0.00     0.021 A 
ATOM     13  C   UNL d   1      30.305  15.560 -24.558  0.00  0.00     0.002 A 
ATOM     14  C   UNL d   1      29.803  15.963 -25.041  0.00  0.00     0.002 A 
ENDROOT
BRANCH   9  15
ATOM     15  C   UNL d   1      32.560  19.398 -23.028  0.00  0.00     0.006 A 
ATOM     16  C   UNL d   1      32.841  19.913 -23.607  0.00  0.00     0.001 A 
ATOM     17  C   UNL d   1      33.185  20.649 -23.394  0.00  0.00     0.000 A 
ATOM     18  C   UNL d   1      33.240  20.853 -22.603  0.00  0.00     0.000 A 
ATOM     19  C   UNL d   1      32.956  20.334 -22.006  0.00  0.00     0.000 A 
ATOM     20  C   UNL d   1      32.618  19.611 -22.216  0.00  0.00     0.001 A 
ENDBRANCH   9  15
TORSDOF 1
ENDMDL
