MODEL 1
REMARK VINA RESULT:      -4.1      0.000      0.000
REMARK  0 active torsions:
REMARK  status: ('A' for Active; 'I' for Inactive)
ROOT
ATOM      1  C   UNL d   1      55.607   0.040  33.178  0.00  0.00     0.221 A 
ATOM      2  N   UNL d   1      56.130   0.327  32.607  0.00  0.00    -0.217 NA
ATOM      3  N   UNL d   1      55.514  -0.774  33.291  0.00  0.00    -0.216 NA
ATOM      4  S   UNL d   1      55.161   0.544  33.654  0.00  0.00    -0.037 SA
ATOM      5  C   UNL d   1      56.564  -0.199  32.145  0.00  0.00     0.085 A 
ATOM      6  C   UNL d   1      55.954  -1.300  32.823  0.00  0.00     0.103 A 
ATOM      7  C   UNL d   1      56.476  -1.013  32.252  0.00  0.00     0.040 A 
ATOM      8  C   UNL d   1      57.081   0.107  31.579  0.00  0.00     0.021 C 
ENDROOT
TORSDOF 0
ENDMDL
MODEL 2
REMARK VINA RESULT:      -4.1      1.187      1.753
REMARK  0 active torsions:
REMARK  status: ('A' for Active; 'I' for Inactive)
ROOT
ATOM      1  C   UNL d   1      56.610  -0.070  32.106  0.00  0.00     0.221 A 
ATOM      2  N   UNL d   1      56.114   0.353  32.612  0.00  0.00    -0.217 NA
ATOM      3  N   UNL d   1      56.608  -0.898  32.112  0.00  0.00    -0.216 NA
ATOM      4  S   UNL d   1      57.121   0.305  31.580  0.00  0.00    -0.037 SA
ATOM      5  C   UNL d   1      55.613  -0.048  33.128  0.00  0.00     0.085 A 
ATOM      6  C   UNL d   1      56.101  -1.297  32.633  0.00  0.00     0.103 A 
ATOM      7  C   UNL d   1      55.605  -0.874  33.139  0.00  0.00     0.040 A 
ATOM      8  C   UNL d   1      55.125   0.393  33.626  0.00  0.00     0.021 C 
ENDROOT
TORSDOF 0
ENDMDL
MODEL 3
REMARK VINA RESULT:      -3.3      1.311      2.210
REMARK  0 active torsions:
REMARK  status: ('A' for Active; 'I' for Inactive)
ROOT
ATOM      1  C   UNL d   1      56.113  -0.572  33.059  0.00  0.00     0.221 A 
ATOM      2  N   UNL d   1      55.351  -0.381  33.313  0.00  0.00    -0.217 NA
ATOM      3  N   UNL d   1      56.765  -0.139  33.326  0.00  0.00    -0.216 NA
ATOM      4  S   UNL d   1      56.256  -1.194  32.537  0.00  0.00    -0.037 SA
ATOM      5  C   UNL d   1      55.236   0.245  33.836  0.00  0.00     0.085 A 
ATOM      6  C   UNL d   1      56.644   0.491  33.853  0.00  0.00     0.103 A 
ATOM      7  C   UNL d   1      55.883   0.682  34.106  0.00  0.00     0.040 A 
ATOM      8  C   UNL d   1      54.467   0.420  34.078  0.00  0.00     0.021 C 
ENDROOT
TORSDOF 0
ENDMDL
MODEL 4
REMARK VINA RESULT:      -3.2      8.065      8.610
REMARK  0 active torsions:
REMARK  status: ('A' for Active; 'I' for Inactive)
ROOT
ATOM      1  C   UNL d   1      60.555  -6.224  36.193  0.00  0.00     0.221 A 
ATOM      2  N   UNL d   1      60.714  -7.023  36.327  0.00  0.00    -0.217 NA
ATOM      3  N   UNL d   1      59.812  -5.984  35.920  0.00  0.00    -0.216 NA
ATOM      4  S   UNL d   1      61.121  -5.639  36.323  0.00  0.00    -0.037 SA
ATOM      5  C   UNL d   1      60.130  -7.587  36.190  0.00  0.00     0.085 A 
ATOM      6  C   UNL d   1      59.228  -6.556  35.782  0.00  0.00     0.103 A 
ATOM      7  C   UNL d   1      59.386  -7.355  35.917  0.00  0.00     0.040 A 
ATOM      8  C   UNL d   1      60.308  -8.381  36.330  0.00  0.00     0.021 C 
ENDROOT
TORSDOF 0
ENDMDL
MODEL 5
REMARK VINA RESULT:      -3.1      1.130      1.527
REMARK  0 active torsions:
REMARK  status: ('A' for Active; 'I' for Inactive)
ROOT
ATOM      1  C   UNL d   1      56.414  -0.649  32.672  0.00  0.00     0.221 A 
ATOM      2  N   UNL d   1      56.705  -0.610  31.901  0.00  0.00    -0.217 NA
ATOM      3  N   UNL d   1      56.642  -0.087  33.236  0.00  0.00    -0.216 NA
ATOM      4  S   UNL d   1      55.890  -1.238  32.912  0.00  0.00    -0.037 SA
ATOM      5  C   UNL d   1      57.227  -0.010  31.687  0.00  0.00     0.085 A 
ATOM      6  C   UNL d   1      57.168   0.516  33.015  0.00  0.00     0.103 A 
ATOM      7  C   UNL d   1      57.459   0.554  32.244  0.00  0.00     0.040 A 
ATOM      8  C   UNL d   1      57.507   0.012  30.912  0.00  0.00     0.021 C 
ENDROOT
TORSDOF 0
ENDMDL
MODEL 6
REMARK VINA RESULT:      -2.9      8.723      9.234
REMARK  0 active torsions:
REMARK  status: ('A' for Active; 'I' for Inactive)
ROOT
ATOM      1  C   UNL d   1      60.430  -8.325  35.327  0.00  0.00     0.221 A 
ATOM      2  N   UNL d   1      60.459  -7.513  35.470  0.00  0.00    -0.217 NA
ATOM      3  N   UNL d   1      59.847  -8.794  35.681  0.00  0.00    -0.216 NA
ATOM      4  S   UNL d   1      60.971  -8.701  34.831  0.00  0.00    -0.037 SA
ATOM      5  C   UNL d   1      59.906  -7.163  35.970  0.00  0.00     0.085 A 
ATOM      6  C   UNL d   1      59.292  -8.436  36.184  0.00  0.00     0.103 A 
ATOM      7  C   UNL d   1      59.321  -7.624  36.328  0.00  0.00     0.040 A 
ATOM      8  C   UNL d   1      59.951  -6.350  36.100  0.00  0.00     0.021 C 
ENDROOT
TORSDOF 0
ENDMDL
MODEL 7
REMARK VINA RESULT:      -2.7      8.840      9.327
REMARK  0 active torsions:
REMARK  status: ('A' for Active; 'I' for Inactive)
ROOT
ATOM      1  C   UNL d   1      59.639  -7.695  35.839  0.00  0.00     0.221 A 
ATOM      2  N   UNL d   1      60.008  -7.937  35.142  0.00  0.00    -0.217 NA
ATOM      3  N   UNL d   1      59.262  -8.246  36.328  0.00  0.00    -0.216 NA
ATOM      4  S   UNL d   1      59.628  -6.906  36.077  0.00  0.00    -0.037 SA
ATOM      5  C   UNL d   1      60.004  -8.732  34.928  0.00  0.00     0.085 A 
ATOM      6  C   UNL d   1      59.261  -9.047  36.108  0.00  0.00     0.103 A 
ATOM      7  C   UNL d   1      59.630  -9.289  35.411  0.00  0.00     0.040 A 
ATOM      8  C   UNL d   1      60.379  -8.954  34.227  0.00  0.00     0.021 C 
ENDROOT
TORSDOF 0
ENDMDL
MODEL 8
REMARK VINA RESULT:      -2.5      8.912      9.353
REMARK  0 active torsions:
REMARK  status: ('A' for Active; 'I' for Inactive)
ROOT
ATOM      1  C   UNL d   1      59.897  -7.744  35.577  0.00  0.00     0.221 A 
ATOM      2  N   UNL d   1      59.486  -8.298  35.125  0.00  0.00    -0.217 NA
ATOM      3  N   UNL d   1      60.723  -7.708  35.548  0.00  0.00    -0.216 NA
ATOM      4  S   UNL d   1      59.510  -7.209  36.071  0.00  0.00    -0.037 SA
ATOM      5  C   UNL d   1      59.897  -8.820  34.639  0.00  0.00     0.085 A 
ATOM      6  C   UNL d   1      61.133  -8.237  35.058  0.00  0.00     0.103 A 
ATOM      7  C   UNL d   1      60.722  -8.791  34.605  0.00  0.00     0.040 A 
ATOM      8  C   UNL d   1      59.468  -9.367  34.195  0.00  0.00     0.021 C 
ENDROOT
TORSDOF 0
ENDMDL
MODEL 9
REMARK VINA RESULT:      -1.9      3.035      3.769
REMARK  0 active torsions:
REMARK  status: ('A' for Active; 'I' for Inactive)
ROOT
ATOM      1  C   UNL d   1      57.788   0.013  30.426  0.00  0.00     0.221 A 
ATOM      2  N   UNL d   1      58.129  -0.699  30.185  0.00  0.00    -0.217 NA
ATOM      3  N   UNL d   1      57.822   0.681  29.939  0.00  0.00    -0.216 NA
ATOM      4  S   UNL d   1      57.405   0.090  31.152  0.00  0.00    -0.037 SA
ATOM      5  C   UNL d   1      58.506  -0.748  29.455  0.00  0.00     0.085 A 
ATOM      6  C   UNL d   1      58.204   0.626  29.204  0.00  0.00     0.103 A 
ATOM      7  C   UNL d   1      58.544  -0.086  28.963  0.00  0.00     0.040 A 
ATOM      8  C   UNL d   1      58.841  -1.469  29.231  0.00  0.00     0.021 C 
ENDROOT
TORSDOF 0
ENDMDL
