MODEL 1
REMARK VINA RESULT:      60.3      0.000      0.000
REMARK  7 active torsions:
REMARK  status: ('A' for Active; 'I' for Inactive)
REMARK    1  A    between atoms: C_3  and  S_1 
REMARK    2  A    between atoms: N_8  and  S_1 
REMARK    3  A    between atoms: C_4  and  N_2 
REMARK    4  A    between atoms: N_5  and  C_19 
REMARK    5  A    between atoms: C_14  and  N_8 
REMARK    6  A    between atoms: O_21  and  C_11 
REMARK    7  A    between atoms: C_19  and  C_14 
ROOT
ATOM      1  N   UNL d   1      58.611  49.703  51.395  0.00  0.00    -0.300 N 
ATOM      2  N   UNL d   1      60.263  49.703  51.472  0.00  0.00    -0.299 N 
ATOM      3  C   UNL d   1      59.056  49.702  50.702  0.00  0.00     0.100 A 
ATOM      4  C   UNL d   1      58.993  49.703  52.134  0.00  0.00     0.100 A 
ATOM      5  C   UNL d   1      59.880  49.702  50.740  0.00  0.00     0.100 A 
ATOM      6  C   UNL d   1      59.814  49.703  52.172  0.00  0.00     0.100 A 
ENDROOT
BRANCH   2   7
ATOM      7  C   UNL d   1      61.087  49.703  51.510  0.00  0.00     0.102 C 
BRANCH   7   8
ATOM      8  C   UNL d   1      61.525  49.094  51.157  0.00  0.00     0.131 C 
BRANCH   8   9
ATOM      9  N   UNL d   1      61.269  48.745  50.466  0.00  0.00    -0.155 NA
BRANCH   9  10
ATOM     10  S   UNL d   1      61.400  47.944  50.334  0.00  0.00     0.285 S 
ATOM     11  O   UNL d   1      60.637  47.776  50.606  0.00  0.00    -0.198 OA
ATOM     12  O   UNL d   1      62.163  48.110  50.063  0.00  0.00    -0.198 OA
BRANCH  10  13
ATOM     13  C   UNL d   1      61.522  47.140  50.206  0.00  0.00     0.105 A 
ATOM     14  C   UNL d   1      62.116  46.890  49.690  0.00  0.00     0.013 A 
ATOM     15  C   UNL d   1      62.245  46.088  49.556  0.00  0.00     0.001 A 
ATOM     16  C   UNL d   1      61.770  45.532  49.947  0.00  0.00     0.000 A 
ATOM     17  C   UNL d   1      61.178  45.785  50.462  0.00  0.00     0.001 A 
ATOM     18  C   UNL d   1      61.900  44.733  49.812  0.00  0.00     0.000 C 
ATOM     19  C   UNL d   1      61.059  46.591  50.587  0.00  0.00     0.013 A 
ENDBRANCH  10  13
ENDBRANCH   9  10
ENDBRANCH   8   9
ENDBRANCH   7   8
ENDBRANCH   2   7
BRANCH   1  20
ATOM     20  C   UNL d   1      57.787  49.703  51.357  0.00  0.00     0.086 A 
ATOM     21  C   UNL d   1      57.399  49.704  50.625  0.00  0.00     0.110 A 
ATOM     22  C   UNL d   1      56.571  49.704  50.587  0.00  0.00     0.026 A 
ATOM     23  C   UNL d   1      56.139  49.703  51.281  0.00  0.00     0.002 A 
ATOM     24  C   UNL d   1      56.517  49.702  52.019  0.00  0.00     0.002 A 
ATOM     25  C   UNL d   1      57.333  49.702  52.057  0.00  0.00     0.019 A 
BRANCH  21  26
ATOM     26  O   UNL d   1      57.853  49.705  49.921  0.00  0.00    -0.327 OA
ATOM     27  C   UNL d   1      57.479  49.534  49.201  0.00  0.00     0.181 C 
ENDBRANCH  21  26
ENDBRANCH   1  20
TORSDOF 7
ENDMDL
