MODEL 1
REMARK VINA RESULT:      61.3      0.000      0.000
REMARK  6 active torsions:
REMARK  status: ('A' for Active; 'I' for Inactive)
REMARK       I    between atoms: N_3  and  C_1 
REMARK    1  A    between atoms: O_5  and  C_1 
REMARK    2  A    between atoms: C_6  and  C_2 
REMARK    3  A    between atoms: C_4  and  O_5 
REMARK    4  A    between atoms: C_7  and  C_6 
REMARK    5  A    between atoms: C_9  and  C_7 
REMARK    6  A    between atoms: C_8  and  C_9 
ROOT
ATOM      1  C   UNL d   1     -57.367 -98.855 -44.470  0.00  0.00     0.063 A 
ATOM      2  C   UNL d   1     -56.647 -98.876 -44.892  0.00  0.00     0.108 A 
ATOM      3  C   UNL d   1     -58.078 -98.816 -44.886  0.00  0.00     0.017 A 
ATOM      4  C   UNL d   1     -56.656 -98.858 -45.712  0.00  0.00     0.026 A 
ATOM      5  C   UNL d   1     -58.079 -98.798 -45.707  0.00  0.00     0.058 A 
ATOM      6  C   UNL d   1     -57.365 -98.819 -46.124  0.00  0.00     0.013 A 
ATOM      7 CL   UNL d   1     -58.794 -98.759 -46.121  0.00  0.00    -0.082 Cl
ENDROOT
BRANCH   1   8
ATOM      8  C   UNL d   1     -57.364 -98.873 -43.646  0.00  0.00     0.198 C 
ATOM      9  O   UNL d   1     -56.646 -98.925 -43.239  0.00  0.00    -0.286 OA
BRANCH   8  10
ATOM     10  C   UNL d   1     -58.073 -98.839 -43.229  0.00  0.00     0.043 C 
BRANCH  10  11
ATOM     11  C   UNL d   1     -58.068 -98.756 -42.409  0.00  0.00     0.010 C 
BRANCH  11  12
ATOM     12  C   UNL d   1     -58.745 -98.946 -41.965  0.00  0.00     0.030 A 
ATOM     13  S   UNL d   1     -59.421 -99.324 -42.258  0.00  0.00    -0.086 SA
ATOM     14  C   UNL d   1     -59.954 -99.399 -41.619  0.00  0.00     0.035 A 
ATOM     15  C   UNL d   1     -59.602 -99.069 -40.951  0.00  0.00     0.007 A 
ATOM     16  C   UNL d   1     -58.857 -98.791 -41.168  0.00  0.00     0.007 A 
ENDBRANCH  11  12
ENDBRANCH  10  11
ENDBRANCH   8  10
ENDBRANCH   1   8
BRANCH   2  17
ATOM     17  O   UNL d   1     -55.938 -98.915 -44.480  0.00  0.00    -0.259 OA
BRANCH  17  18
ATOM     18  C   UNL d   1     -55.337 -99.417 -44.747  0.00  0.00     0.378 C 
ATOM     19  N   UNL d   1     -55.325-100.208 -44.511  0.00  0.00    -0.247 N 
ATOM     20  C   UNL d   1     -54.727-100.707 -44.777  0.00  0.00     0.112 A 
ATOM     21  C   UNL d   1     -55.918-100.500 -44.003  0.00  0.00     0.112 A 
ATOM     22  C   UNL d   1     -54.719-101.507 -44.535  0.00  0.00     0.142 A 
ATOM     23  O   UNL d   1     -55.313-101.791 -44.029  0.00  0.00    -0.300 OA
ATOM     24  C   UNL d   1     -55.911-101.286 -43.765  0.00  0.00     0.142 A 
ATOM     25  O   UNL d   1     -54.744 -99.134 -45.252  0.00  0.00    -0.237 OA
ENDBRANCH  17  18
ENDBRANCH   2  17
TORSDOF 6
ENDMDL
MODEL 2
REMARK VINA RESULT:      62.6      1.655      3.075
REMARK  6 active torsions:
REMARK  status: ('A' for Active; 'I' for Inactive)
REMARK       I    between atoms: N_3  and  C_1 
REMARK    1  A    between atoms: O_5  and  C_1 
REMARK    2  A    between atoms: C_6  and  C_2 
REMARK    3  A    between atoms: C_4  and  O_5 
REMARK    4  A    between atoms: C_7  and  C_6 
REMARK    5  A    between atoms: C_9  and  C_7 
REMARK    6  A    between atoms: C_8  and  C_9 
ROOT
ATOM      1  C   UNL d   1     -57.793 -98.987 -44.299  0.00  0.00     0.063 A 
ATOM      2  C   UNL d   1     -57.013 -99.082 -44.016  0.00  0.00     0.108 A 
ATOM      3  C   UNL d   1     -58.409 -98.879 -43.761  0.00  0.00     0.017 A 
ATOM      4  C   UNL d   1     -56.870 -99.066 -43.208  0.00  0.00     0.026 A 
ATOM      5  C   UNL d   1     -58.257 -98.864 -42.954  0.00  0.00     0.058 A 
ATOM      6  C   UNL d   1     -57.484 -98.958 -42.674  0.00  0.00     0.013 A 
ATOM      7 CL   UNL d   1     -58.876 -98.756 -42.417  0.00  0.00    -0.082 Cl
ENDROOT
BRANCH   1   8
ATOM      8  C   UNL d   1     -57.944 -99.002 -45.110  0.00  0.00     0.198 C 
ATOM      9  O   UNL d   1     -57.313 -99.050 -45.643  0.00  0.00    -0.286 OA
BRANCH   8  10
ATOM     10  C   UNL d   1     -58.717 -98.970 -45.387  0.00  0.00     0.043 C 
BRANCH  10  11
ATOM     11  C   UNL d   1     -58.868 -98.763 -46.172  0.00  0.00     0.010 C 
BRANCH  11  12
ATOM     12  C   UNL d   1     -59.283 -99.284 -46.669  0.00  0.00     0.030 A 
ATOM     13  S   UNL d   1     -59.579-100.026 -46.448  0.00  0.00    -0.086 SA
ATOM     14  C   UNL d   1     -59.952-100.349 -47.121  0.00  0.00     0.035 A 
ATOM     15  C   UNL d   1     -59.881 -99.808 -47.740  0.00  0.00     0.007 A 
ATOM     16  C   UNL d   1     -59.467 -99.153 -47.456  0.00  0.00     0.007 A 
ENDBRANCH  11  12
ENDBRANCH  10  11
ENDBRANCH   8  10
ENDBRANCH   1   8
BRANCH   2  17
ATOM     17  O   UNL d   1     -56.399 -99.190 -44.551  0.00  0.00    -0.259 OA
BRANCH  17  18
ATOM     18  C   UNL d   1     -55.704 -99.563 -44.303  0.00  0.00     0.378 C 
ATOM     19  N   UNL d   1     -55.564-100.350 -44.506  0.00  0.00    -0.247 N 
ATOM     20  C   UNL d   1     -54.872-100.722 -44.260  0.00  0.00     0.112 A 
ATOM     21  C   UNL d   1     -56.123-100.769 -44.961  0.00  0.00     0.112 A 
ATOM     22  C   UNL d   1     -54.735-101.520 -44.469  0.00  0.00     0.142 A 
ATOM     23  O   UNL d   1     -55.297-101.930 -44.922  0.00  0.00    -0.300 OA
ATOM     24  C   UNL d   1     -55.990-101.553 -45.166  0.00  0.00     0.142 A 
ATOM     25  O   UNL d   1     -55.143 -99.154 -43.851  0.00  0.00    -0.237 OA
ENDBRANCH  17  18
ENDBRANCH   2  17
TORSDOF 6
ENDMDL
