MODEL 1
REMARK VINA RESULT:      -8.3      0.000      0.000
REMARK  4 active torsions:
REMARK  status: ('A' for Active; 'I' for Inactive)
REMARK    1  A    between atoms: N_4  and  C_1 
REMARK    2  A    between atoms: N_9  and  N_4 
REMARK    3  A    between atoms: C_8  and  C_7 
REMARK    4  A    between atoms: C_10  and  N_9 
ROOT
ATOM      1  N   UNL d   1     -48.017  13.665  23.297  0.00  0.00    -0.146 NA
ENDROOT
BRANCH   1   2
ATOM      2  C   UNL d   1     -47.272  13.316  23.228  0.00  0.00     0.122 A 
ATOM      3  C   UNL d   1     -46.556  13.681  23.008  0.00  0.00     0.101 A 
ATOM      4  N   UNL d   1     -45.963  13.146  23.010  0.00  0.00    -0.244 NA
ATOM      5  C   UNL d   1     -46.463  14.448  22.822  0.00  0.00     0.022 C 
ATOM      6  C   UNL d   1     -46.265  12.429  23.226  0.00  0.00     0.083 A 
ATOM      7  C   UNL d   1     -47.100  12.521  23.369  0.00  0.00     0.039 A 
ATOM      8  C   UNL d   1     -45.946  11.687  23.326  0.00  0.00     0.019 A 
ATOM      9  C   UNL d   1     -47.568  11.862  23.604  0.00  0.00     0.003 A 
ATOM     10  C   UNL d   1     -47.206  11.114  23.698  0.00  0.00     0.000 A 
ATOM     11  C   UNL d   1     -46.398  11.049  23.554  0.00  0.00     0.002 A 
ENDBRANCH   1   2
BRANCH   1  12
ATOM     12  N   UNL d   1     -48.532  13.682  22.640  0.00  0.00    -0.148 NA
BRANCH  12  13
ATOM     13  C   UNL d   1     -49.269  14.080  22.652  0.00  0.00     0.109 A 
ATOM     14  C   UNL d   1     -49.824  13.956  22.074  0.00  0.00     0.084 A 
ATOM     15  C   UNL d   1     -50.546  14.356  22.099  0.00  0.00     0.008 A 
ATOM     16  C   UNL d   1     -50.695  14.896  22.740  0.00  0.00     0.000 A 
ATOM     17  C   UNL d   1     -50.105  15.010  23.330  0.00  0.00     0.002 A 
ATOM     18  C   UNL d   1     -49.396  14.585  23.261  0.00  0.00     0.021 A 
BRANCH  14  19
ATOM     19  C   UNL d   1     -49.669  13.435  21.464  0.00  0.00     0.212 C 
ATOM     20  O   UNL d   1     -49.198  13.650  20.829  0.00  0.00    -0.644 OA
ATOM     21  O   UNL d   1     -49.978  12.666  21.458  0.00  0.00    -0.644 OA
ENDBRANCH  14  19
ENDBRANCH  12  13
ENDBRANCH   1  12
TORSDOF 4
ENDMDL
MODEL 2
REMARK VINA RESULT:      -8.0      0.817      1.551
REMARK  4 active torsions:
REMARK  status: ('A' for Active; 'I' for Inactive)
REMARK    1  A    between atoms: N_4  and  C_1 
REMARK    2  A    between atoms: N_9  and  N_4 
REMARK    3  A    between atoms: C_8  and  C_7 
REMARK    4  A    between atoms: C_10  and  N_9 
ROOT
ATOM      1  N   UNL d   1     -48.564  13.454  23.466  0.00  0.00    -0.146 NA
ENDROOT
BRANCH   1   2
ATOM      2  C   UNL d   1     -47.908  12.972  23.329  0.00  0.00     0.122 A 
ATOM      3  C   UNL d   1     -47.849  12.148  23.438  0.00  0.00     0.101 A 
ATOM      4  N   UNL d   1     -47.117  11.897  23.241  0.00  0.00    -0.244 NA
ATOM      5  C   UNL d   1     -48.429  11.670  23.698  0.00  0.00     0.022 C 
ATOM      6  C   UNL d   1     -46.683  12.534  23.002  0.00  0.00     0.083 A 
ATOM      7  C   UNL d   1     -47.175  13.228  23.053  0.00  0.00     0.039 A 
ATOM      8  C   UNL d   1     -45.918  12.632  22.740  0.00  0.00     0.019 A 
ATOM      9  C   UNL d   1     -46.869  13.983  22.838  0.00  0.00     0.003 A 
ATOM     10  C   UNL d   1     -46.079  14.048  22.573  0.00  0.00     0.000 A 
ATOM     11  C   UNL d   1     -45.623  13.362  22.533  0.00  0.00     0.002 A 
ENDBRANCH   1   2
BRANCH   1  12
ATOM     12  N   UNL d   1     -49.159  13.525  22.884  0.00  0.00    -0.148 NA
BRANCH  12  13
ATOM     13  C   UNL d   1     -49.786  14.078  22.941  0.00  0.00     0.109 A 
ATOM     14  C   UNL d   1     -50.363  14.119  22.373  0.00  0.00     0.084 A 
ATOM     15  C   UNL d   1     -50.975  14.669  22.443  0.00  0.00     0.008 A 
ATOM     16  C   UNL d   1     -50.987  15.187  23.119  0.00  0.00     0.000 A 
ATOM     17  C   UNL d   1     -50.377  15.128  23.696  0.00  0.00     0.002 A 
ATOM     18  C   UNL d   1     -49.784  14.559  23.582  0.00  0.00     0.021 A 
BRANCH  14  19
ATOM     19  C   UNL d   1     -50.341  13.615  21.731  0.00  0.00     0.212 C 
ATOM     20  O   UNL d   1     -49.883  13.785  21.073  0.00  0.00    -0.644 OA
ATOM     21  O   UNL d   1     -50.778  12.912  21.712  0.00  0.00    -0.644 OA
ENDBRANCH  14  19
ENDBRANCH  12  13
ENDBRANCH   1  12
TORSDOF 4
ENDMDL
MODEL 3
REMARK VINA RESULT:      -6.1      8.501      9.775
REMARK  4 active torsions:
REMARK  status: ('A' for Active; 'I' for Inactive)
REMARK    1  A    between atoms: N_4  and  C_1 
REMARK    2  A    between atoms: N_9  and  N_4 
REMARK    3  A    between atoms: C_8  and  C_7 
REMARK    4  A    between atoms: C_10  and  N_9 
ROOT
ATOM      1  N   UNL d   1     -39.155  15.113  19.798  0.00  0.00    -0.146 NA
ENDROOT
BRANCH   1   2
ATOM      2  C   UNL d   1     -39.360  14.844  20.551  0.00  0.00     0.122 A 
ATOM      3  C   UNL d   1     -40.004  15.085  21.021  0.00  0.00     0.101 A 
ATOM      4  N   UNL d   1     -40.003  14.687  21.714  0.00  0.00    -0.244 NA
ATOM      5  C   UNL d   1     -40.548  15.629  20.822  0.00  0.00     0.022 C 
ATOM      6  C   UNL d   1     -39.371  14.183  21.719  0.00  0.00     0.083 A 
ATOM      7  C   UNL d   1     -38.951  14.273  20.983  0.00  0.00     0.039 A 
ATOM      8  C   UNL d   1     -39.080  13.646  22.256  0.00  0.00     0.019 A 
ATOM      9  C   UNL d   1     -38.261  13.815  20.828  0.00  0.00     0.003 A 
ATOM     10  C   UNL d   1     -37.990  13.271  21.403  0.00  0.00     0.000 A 
ATOM     11  C   UNL d   1     -38.413  13.203  22.107  0.00  0.00     0.002 A 
ENDBRANCH   1   2
BRANCH   1  12
ATOM     12  N   UNL d   1     -39.493  14.758  19.122  0.00  0.00    -0.148 NA
BRANCH  12  13
ATOM     13  C   UNL d   1     -39.303  14.998  18.342  0.00  0.00     0.109 A 
ATOM     14  C   UNL d   1     -39.595  14.601  17.697  0.00  0.00     0.084 A 
ATOM     15  C   UNL d   1     -39.400  14.849  16.934  0.00  0.00     0.008 A 
ATOM     16  C   UNL d   1     -38.890  15.525  16.839  0.00  0.00     0.000 A 
ATOM     17  C   UNL d   1     -38.599  15.922  17.522  0.00  0.00     0.002 A 
ATOM     18  C   UNL d   1     -38.823  15.635  18.267  0.00  0.00     0.021 A 
BRANCH  14  19
ATOM     19  C   UNL d   1     -40.083  13.955  17.802  0.00  0.00     0.212 C 
ATOM     20  O   UNL d   1     -39.780  13.195  17.844  0.00  0.00    -0.644 OA
ATOM     21  O   UNL d   1     -40.905  14.035  17.871  0.00  0.00    -0.644 OA
ENDBRANCH  14  19
ENDBRANCH  12  13
ENDBRANCH   1  12
TORSDOF 4
ENDMDL
MODEL 4
REMARK VINA RESULT:      -5.8      8.646     10.369
REMARK  4 active torsions:
REMARK  status: ('A' for Active; 'I' for Inactive)
REMARK    1  A    between atoms: N_4  and  C_1 
REMARK    2  A    between atoms: N_9  and  N_4 
REMARK    3  A    between atoms: C_8  and  C_7 
REMARK    4  A    between atoms: C_10  and  N_9 
ROOT
ATOM      1  N   UNL d   1     -39.175  15.857  18.734  0.00  0.00    -0.146 NA
ENDROOT
BRANCH   1   2
ATOM      2  C   UNL d   1     -39.306  15.876  19.548  0.00  0.00     0.122 A 
ATOM      3  C   UNL d   1     -38.736  15.885  20.157  0.00  0.00     0.101 A 
ATOM      4  N   UNL d   1     -39.096  15.903  20.869  0.00  0.00    -0.244 NA
ATOM      5  C   UNL d   1     -37.948  15.877  20.056  0.00  0.00     0.022 C 
ATOM      6  C   UNL d   1     -39.896  15.906  20.753  0.00  0.00     0.083 A 
ATOM      7  C   UNL d   1     -40.045  15.889  19.914  0.00  0.00     0.039 A 
ATOM      8  C   UNL d   1     -40.540  15.921  21.251  0.00  0.00     0.019 A 
ATOM      9  C   UNL d   1     -40.835  15.888  19.623  0.00  0.00     0.003 A 
ATOM     10  C   UNL d   1     -41.473  15.904  20.162  0.00  0.00     0.000 A 
ATOM     11  C   UNL d   1     -41.304  15.920  20.969  0.00  0.00     0.002 A 
ENDBRANCH   1   2
BRANCH   1  12
ATOM     12  N   UNL d   1     -39.050  15.128  18.348  0.00  0.00    -0.148 NA
BRANCH  12  13
ATOM     13  C   UNL d   1     -38.898  15.070  17.526  0.00  0.00     0.109 A 
ATOM     14  C   UNL d   1     -38.839  14.349  17.158  0.00  0.00     0.084 A 
ATOM     15  C   UNL d   1     -38.688  14.307  16.347  0.00  0.00     0.008 A 
ATOM     16  C   UNL d   1     -38.597  15.032  15.909  0.00  0.00     0.000 A 
ATOM     17  C   UNL d   1     -38.662  15.769  16.310  0.00  0.00     0.002 A 
ATOM     18  C   UNL d   1     -38.814  15.759  17.125  0.00  0.00     0.021 A 
BRANCH  14  19
ATOM     19  C   UNL d   1     -38.928  13.662  17.591  0.00  0.00     0.212 C 
ATOM     20  O   UNL d   1     -39.667  13.332  17.717  0.00  0.00    -0.644 OA
ATOM     21  O   UNL d   1     -38.279  13.267  17.921  0.00  0.00    -0.644 OA
ENDBRANCH  14  19
ENDBRANCH  12  13
ENDBRANCH   1  12
TORSDOF 4
ENDMDL
