MODEL 1
REMARK VINA RESULT:       9.4      0.000      0.000
REMARK  4 active torsions:
REMARK  status: ('A' for Active; 'I' for Inactive)
REMARK    1  A    between atoms: N_7  and  C_2 
REMARK    2  A    between atoms: C_6  and  C_3 
REMARK    3  A    between atoms: C_16  and  N_7 
REMARK    4  A    between atoms: C_10  and  C_16 
ROOT
ATOM      1  N   UNL d   1      46.169 -17.888  43.711  0.00  0.00    -0.222 NA
ATOM      2  C   UNL d   1      46.102 -17.710  44.512  0.00  0.00     0.172 A 
ATOM      3  C   UNL d   1      46.283 -18.711  43.641  0.00  0.00     0.090 A 
ATOM      4  S   UNL d   1      46.172 -18.405  44.932  0.00  0.00    -0.048 SA
ATOM      5  C   UNL d   1      46.283 -19.017  44.400  0.00  0.00     0.057 A 
ENDROOT
BRANCH   3   6
ATOM      6  C   UNL d   1      46.376 -19.108  42.910  0.00  0.00     0.018 A 
ATOM      7  C   UNL d   1      46.553 -18.674  42.237  0.00  0.00     0.002 A 
ATOM      8  C   UNL d   1      46.646 -19.071  41.506  0.00  0.00     0.011 A 
ATOM      9  C   UNL d   1      46.556 -19.880  41.488  0.00  0.00     0.058 A 
ATOM     10  C   UNL d   1      46.378 -20.319  42.164  0.00  0.00     0.011 A 
ATOM     11 CL   UNL d   1      46.647 -20.269  40.773  0.00  0.00    -0.082 Cl
ATOM     12  C   UNL d   1      46.286 -19.928  42.885  0.00  0.00     0.002 A 
ENDBRANCH   3   6
BRANCH   2  13
ATOM     13  N   UNL d   1      45.985 -16.974  44.850  0.00  0.00    -0.332 N 
ATOM     14  H   UNL d   1      46.144 -16.860  45.658  0.00  0.00     0.168 HD
BRANCH  13  15
ATOM     15  C   UNL d   1      45.708 -16.337  44.388  0.00  0.00     0.074 C 
BRANCH  15  16
ATOM     16  C   UNL d   1      45.558 -15.616  44.724  0.00  0.00     0.018 C 
ATOM     17  C   UNL d   1      45.418 -14.933  44.244  0.00  0.00     0.002 C 
ENDBRANCH  15  16
ENDBRANCH  13  15
ENDBRANCH   2  13
TORSDOF 4
ENDMDL
MODEL 2
REMARK VINA RESULT:       9.8      2.519      4.959
REMARK  4 active torsions:
REMARK  status: ('A' for Active; 'I' for Inactive)
REMARK    1  A    between atoms: N_7  and  C_2 
REMARK    2  A    between atoms: C_6  and  C_3 
REMARK    3  A    between atoms: C_16  and  N_7 
REMARK    4  A    between atoms: C_10  and  C_16 
ROOT
ATOM      1  N   UNL d   1      46.100 -15.851  44.208  0.00  0.00    -0.222 NA
ATOM      2  C   UNL d   1      45.910 -16.625  44.414  0.00  0.00     0.172 A 
ATOM      3  C   UNL d   1      45.529 -15.348  44.549  0.00  0.00     0.090 A 
ATOM      4  S   UNL d   1      45.237 -16.606  44.872  0.00  0.00    -0.048 SA
ATOM      5  C   UNL d   1      45.003 -15.827  44.955  0.00  0.00     0.057 A 
ENDROOT
BRANCH   3   6
ATOM      6  C   UNL d   1      45.531 -14.515  44.466  0.00  0.00     0.018 A 
ATOM      7  C   UNL d   1      46.043 -14.068  44.925  0.00  0.00     0.002 A 
ATOM      8  C   UNL d   1      46.045 -13.235  44.842  0.00  0.00     0.011 A 
ATOM      9  C   UNL d   1      45.535 -12.895  44.305  0.00  0.00     0.058 A 
ATOM     10  C   UNL d   1      45.019 -13.344  43.843  0.00  0.00     0.011 A 
ATOM     11 CL   UNL d   1      45.537 -12.080  44.224  0.00  0.00    -0.082 Cl
ATOM     12  C   UNL d   1      45.017 -14.165  43.924  0.00  0.00     0.002 A 
ENDBRANCH   3   6
BRANCH   2  13
ATOM     13  N   UNL d   1      46.312 -17.306  44.206  0.00  0.00    -0.332 N 
ATOM     14  H   UNL d   1      47.032 -17.491  44.579  0.00  0.00     0.168 HD
BRANCH  13  15
ATOM     15  C   UNL d   1      46.005 -17.816  43.623  0.00  0.00     0.074 C 
BRANCH  15  16
ATOM     16  C   UNL d   1      46.355 -18.531  43.471  0.00  0.00     0.018 C 
ATOM     17  C   UNL d   1      46.143 -18.982  42.786  0.00  0.00     0.002 C 
ENDBRANCH  15  16
ENDBRANCH  13  15
ENDBRANCH   2  13
TORSDOF 4
ENDMDL
MODEL 3
REMARK VINA RESULT:      11.3      2.258      4.562
REMARK  4 active torsions:
REMARK  status: ('A' for Active; 'I' for Inactive)
REMARK    1  A    between atoms: N_7  and  C_2 
REMARK    2  A    between atoms: C_6  and  C_3 
REMARK    3  A    between atoms: C_16  and  N_7 
REMARK    4  A    between atoms: C_10  and  C_16 
ROOT
ATOM      1  N   UNL d   1      46.090 -16.647  43.702  0.00  0.00    -0.222 NA
ATOM      2  C   UNL d   1      46.124 -17.464  43.796  0.00  0.00     0.172 A 
ATOM      3  C   UNL d   1      45.853 -16.315  44.428  0.00  0.00     0.090 A 
ATOM      4  S   UNL d   1      45.913 -17.639  44.563  0.00  0.00    -0.048 SA
ATOM      5  C   UNL d   1      45.746 -16.937  44.950  0.00  0.00     0.057 A 
ENDROOT
BRANCH   3   6
ATOM      6  C   UNL d   1      45.753 -15.494  44.556  0.00  0.00     0.018 A 
ATOM      7  C   UNL d   1      46.380 -14.987  44.409  0.00  0.00     0.002 A 
ATOM      8  C   UNL d   1      46.281 -14.166  44.537  0.00  0.00     0.011 A 
ATOM      9  C   UNL d   1      45.560 -13.897  44.805  0.00  0.00     0.058 A 
ATOM     10  C   UNL d   1      44.928 -14.406  44.954  0.00  0.00     0.011 A 
ATOM     11 CL   UNL d   1      45.463 -13.093  44.930  0.00  0.00    -0.082 Cl
ATOM     12  C   UNL d   1      45.026 -15.216  44.828  0.00  0.00     0.002 A 
ENDBRANCH   3   6
BRANCH   2  13
ATOM     13  N   UNL d   1      46.331 -18.021  43.233  0.00  0.00    -0.332 N 
ATOM     14  H   UNL d   1      46.351 -17.808  42.429  0.00  0.00     0.168 HD
BRANCH  13  15
ATOM     15  C   UNL d   1      46.522 -18.799  43.460  0.00  0.00     0.074 C 
BRANCH  15  16
ATOM     16  C   UNL d   1      46.611 -19.383  42.906  0.00  0.00     0.018 C 
ATOM     17  C   UNL d   1      46.583 -20.201  43.126  0.00  0.00     0.002 C 
ENDBRANCH  15  16
ENDBRANCH  13  15
ENDBRANCH   2  13
TORSDOF 4
ENDMDL
