MODEL 1
REMARK VINA RESULT:      44.0      0.000      0.000
REMARK  2 active torsions:
REMARK  status: ('A' for Active; 'I' for Inactive)
REMARK    1  A    between atoms: S_4  and  C_1 
REMARK    2  A    between atoms: C_9  and  S_4 
ROOT
ATOM      1  C   UNL d   1      58.915  49.705  50.502  0.00  0.00     0.107 A 
ATOM      2  C   UNL d   1      58.323  49.703  51.087  0.00  0.00     0.201 A 
ATOM      3  C   UNL d   1      58.753  49.705  49.721  0.00  0.00     0.201 A 
ATOM      4  C   UNL d   1      57.356  49.701  50.016  0.00  0.00     0.043 A 
ATOM      5  C   UNL d   1      57.532  49.701  50.840  0.00  0.00     0.020 A 
ATOM      6  C   UNL d   1      57.973  49.703  49.464  0.00  0.00     0.020 A 
ATOM      7  O   UNL d   1      59.375  49.706  49.197  0.00  0.00    -0.286 OA
ATOM      8  O   UNL d   1      58.478  49.704  51.893  0.00  0.00    -0.286 OA
ATOM      9  C   UNL d   1      56.927  49.700  49.334  0.00  0.00     0.009 C 
ATOM     10  C   UNL d   1      56.597  49.699  50.324  0.00  0.00     0.009 C 
ENDROOT
BRANCH   1  11
ATOM     11  S   UNL d   1      59.734  49.707  50.744  0.00  0.00    -0.081 SA
BRANCH  11  12
ATOM     12  C   UNL d   1      60.140  48.970  50.795  0.00  0.00     0.030 A 
ATOM     13  C   UNL d   1      59.831  48.336  51.227  0.00  0.00     0.007 A 
ATOM     14  C   UNL d   1      60.253  47.628  51.257  0.00  0.00     0.007 A 
ATOM     15  C   UNL d   1      60.970  47.548  50.866  0.00  0.00     0.035 A 
ATOM     16  C   UNL d   1      61.268  48.187  50.438  0.00  0.00     0.007 A 
ATOM     17 BR   UNL d   1      61.386  46.825  50.906  0.00  0.00    -0.049 Br
ATOM     18  C   UNL d   1      60.860  48.901  50.398  0.00  0.00     0.007 A 
ENDBRANCH  11  12
ENDBRANCH   1  11
TORSDOF 2
ENDMDL
