MODEL 1
REMARK VINA RESULT:      -2.4      0.000      0.000
REMARK  5 active torsions:
REMARK  status: ('A' for Active; 'I' for Inactive)
REMARK    1  A    between atoms: C_6  and  C_1 
REMARK    2  A    between atoms: C_3  and  C_5 
REMARK    3  A    between atoms: C_5  and  C_6 
REMARK    4  A    between atoms: C_17  and  C_13 
REMARK    5  A    between atoms: C_20  and  C_17 
ROOT
ATOM      1  C   UNL d   1      32.627  20.612 -21.847  0.00  0.00     0.201 C 
ATOM      2  O   UNL d   1      31.842  20.351 -21.883  0.00  0.00    -0.286 OA
ENDROOT
BRANCH   1   3
ATOM      3  C   UNL d   1      32.780  21.379 -21.584  0.00  0.00     0.078 A 
ATOM      4  C   UNL d   1      32.842  21.531 -20.768  0.00  0.00     0.202 A 
ATOM      5  C   UNL d   1      32.995  22.298 -20.506  0.00  0.00     0.084 A 
ATOM      6  O   UNL d   1      32.750  20.915 -20.228  0.00  0.00    -0.286 OA
ATOM      7  C   UNL d   1      33.085  22.906 -21.044  0.00  0.00     0.199 A 
ATOM      8  C   UNL d   1      33.023  22.753 -21.860  0.00  0.00     0.039 A 
ATOM      9  O   UNL d   1      33.239  23.676 -20.767  0.00  0.00    -0.286 OA
ATOM     10  C   UNL d   1      32.873  22.003 -22.111  0.00  0.00     0.010 A 
BRANCH   8  11
ATOM     11  C   UNL d   1      33.117  23.382 -22.388  0.00  0.00     0.003 C 
BRANCH  11  12
ATOM     12  C   UNL d   1      32.733  23.398 -23.117  0.00  0.00     0.000 C 
ATOM     13  C   UNL d   1      33.096  23.699 -23.789  0.00  0.00     0.000 C 
ENDBRANCH  11  12
ENDBRANCH   8  11
ENDBRANCH   1   3
BRANCH   1  14
ATOM     14  C   UNL d   1      33.241  20.103 -22.074  0.00  0.00     0.068 C 
BRANCH  14  15
ATOM     15  C   UNL d   1      33.121  19.521 -22.634  0.00  0.00     0.114 A 
ATOM     16  N   UNL d   1      32.974  19.643 -23.438  0.00  0.00    -0.238 NA
ATOM     17  C   UNL d   1      32.889  18.901 -23.789  0.00  0.00     0.088 A 
ATOM     18  C   UNL d   1      32.739  18.682 -24.564  0.00  0.00     0.020 A 
ATOM     19  C   UNL d   1      32.981  18.325 -23.213  0.00  0.00     0.049 A 
ATOM     20  C   UNL d   1      32.678  17.884 -24.776  0.00  0.00     0.002 A 
ATOM     21  C   UNL d   1      32.773  17.307 -24.183  0.00  0.00     0.001 A 
ATOM     22  C   UNL d   1      32.924  17.525 -23.408  0.00  0.00     0.008 A 
ATOM     23  S   UNL d   1      33.128  18.699 -22.481  0.00  0.00    -0.066 SA
ENDBRANCH  14  15
ENDBRANCH   1  14
TORSDOF 5
ENDMDL
MODEL 2
REMARK VINA RESULT:      -2.2      2.312      5.277
REMARK  5 active torsions:
REMARK  status: ('A' for Active; 'I' for Inactive)
REMARK    1  A    between atoms: C_6  and  C_1 
REMARK    2  A    between atoms: C_3  and  C_5 
REMARK    3  A    between atoms: C_5  and  C_6 
REMARK    4  A    between atoms: C_17  and  C_13 
REMARK    5  A    between atoms: C_20  and  C_17 
ROOT
ATOM      1  C   UNL d   1      32.566  18.185 -24.449  0.00  0.00     0.201 C 
ATOM      2  O   UNL d   1      32.509  18.820 -24.978  0.00  0.00    -0.286 OA
ENDROOT
BRANCH   1   3
ATOM      3  C   UNL d   1      32.089  17.523 -24.571  0.00  0.00     0.078 A 
ATOM      4  C   UNL d   1      32.430  16.813 -24.843  0.00  0.00     0.202 A 
ATOM      5  C   UNL d   1      31.953  16.151 -24.964  0.00  0.00     0.084 A 
ATOM      6  O   UNL d   1      33.240  16.777 -24.988  0.00  0.00    -0.286 OA
ATOM      7  C   UNL d   1      31.150  16.191 -24.818  0.00  0.00     0.199 A 
ATOM      8  C   UNL d   1      30.810  16.901 -24.547  0.00  0.00     0.039 A 
ATOM      9  O   UNL d   1      30.679  15.516 -24.944  0.00  0.00    -0.286 OA
ATOM     10  C   UNL d   1      31.280  17.544 -24.430  0.00  0.00     0.010 A 
BRANCH   8  11
ATOM     11  C   UNL d   1      29.996  16.920 -24.405  0.00  0.00     0.003 C 
BRANCH  11  12
ATOM     12  C   UNL d   1      29.611  17.614 -24.181  0.00  0.00     0.000 C 
ATOM     13  C   UNL d   1      28.792  17.655 -24.129  0.00  0.00     0.000 C 
ENDBRANCH  11  12
ENDBRANCH   8  11
ENDBRANCH   1   3
BRANCH   1  14
ATOM     14  C   UNL d   1      33.095  18.225 -23.813  0.00  0.00     0.068 C 
BRANCH  14  15
ATOM     15  C   UNL d   1      33.121  18.881 -23.326  0.00  0.00     0.114 A 
ATOM     16  N   UNL d   1      33.180  19.667 -23.574  0.00  0.00    -0.238 NA
ATOM     17  C   UNL d   1      33.188  20.139 -22.897  0.00  0.00     0.088 A 
ATOM     18  C   UNL d   1      33.238  20.951 -22.803  0.00  0.00     0.020 A 
ATOM     19  C   UNL d   1      33.135  19.654 -22.237  0.00  0.00     0.049 A 
ATOM     20  C   UNL d   1      33.235  21.292 -22.049  0.00  0.00     0.002 A 
ATOM     21  C   UNL d   1      33.180  20.792 -21.385  0.00  0.00     0.001 A 
ATOM     22  C   UNL d   1      33.131  19.979 -21.479  0.00  0.00     0.008 A 
ATOM     23  S   UNL d   1      33.092  18.860 -22.491  0.00  0.00    -0.066 SA
ENDBRANCH  14  15
ENDBRANCH   1  14
TORSDOF 5
ENDMDL
MODEL 3
REMARK VINA RESULT:      -0.9      1.238      2.205
REMARK  5 active torsions:
REMARK  status: ('A' for Active; 'I' for Inactive)
REMARK    1  A    between atoms: C_6  and  C_1 
REMARK    2  A    between atoms: C_3  and  C_5 
REMARK    3  A    between atoms: C_5  and  C_6 
REMARK    4  A    between atoms: C_17  and  C_13 
REMARK    5  A    between atoms: C_20  and  C_17 
ROOT
ATOM      1  C   UNL d   1      32.540  20.991 -21.273  0.00  0.00     0.201 C 
ATOM      2  O   UNL d   1      31.853  20.534 -21.348  0.00  0.00    -0.286 OA
ENDROOT
BRANCH   1   3
ATOM      3  C   UNL d   1      32.519  21.664 -20.797  0.00  0.00     0.078 A 
ATOM      4  C   UNL d   1      32.118  22.346 -21.060  0.00  0.00     0.202 A 
ATOM      5  C   UNL d   1      32.099  23.018 -20.583  0.00  0.00     0.084 A 
ATOM      6  O   UNL d   1      31.745  22.342 -21.795  0.00  0.00    -0.286 OA
ATOM      7  C   UNL d   1      32.470  23.018 -19.856  0.00  0.00     0.199 A 
ATOM      8  C   UNL d   1      32.871  22.336 -19.593  0.00  0.00     0.039 A 
ATOM      9  O   UNL d   1      32.443  23.702 -19.384  0.00  0.00    -0.286 OA
ATOM     10  C   UNL d   1      32.888  21.682 -20.062  0.00  0.00     0.010 A 
BRANCH   8  11
ATOM     11  C   UNL d   1      33.241  22.356 -18.854  0.00  0.00     0.003 C 
BRANCH  11  12
ATOM     12  C   UNL d   1      32.807  22.377 -18.152  0.00  0.00     0.000 C 
ATOM     13  C   UNL d   1      33.176  22.407 -17.419  0.00  0.00     0.000 C 
ENDBRANCH  11  12
ENDBRANCH   8  11
ENDBRANCH   1   3
BRANCH   1  14
ATOM     14  C   UNL d   1      33.230  20.767 -21.674  0.00  0.00     0.068 C 
BRANCH  14  15
ATOM     15  C   UNL d   1      33.227  20.144 -22.201  0.00  0.00     0.114 A 
ATOM     16  N   UNL d   1      33.241  20.205 -23.025  0.00  0.00    -0.238 NA
ATOM     17  C   UNL d   1      33.233  19.438 -23.331  0.00  0.00     0.088 A 
ATOM     18  C   UNL d   1      33.240  19.162 -24.102  0.00  0.00     0.020 A 
ATOM     19  C   UNL d   1      33.215  18.907 -22.706  0.00  0.00     0.049 A 
ATOM     20  C   UNL d   1      33.229  18.350 -24.261  0.00  0.00     0.002 A 
ATOM     21  C   UNL d   1      33.211  17.818 -23.620  0.00  0.00     0.001 A 
ATOM     22  C   UNL d   1      33.204  18.094 -22.849  0.00  0.00     0.008 A 
ATOM     23  S   UNL d   1      33.211  19.335 -21.989  0.00  0.00    -0.066 SA
ENDBRANCH  14  15
ENDBRANCH   1  14
TORSDOF 5
ENDMDL
MODEL 4
REMARK VINA RESULT:      -0.7      1.528      2.481
REMARK  5 active torsions:
REMARK  status: ('A' for Active; 'I' for Inactive)
REMARK    1  A    between atoms: C_6  and  C_1 
REMARK    2  A    between atoms: C_3  and  C_5 
REMARK    3  A    between atoms: C_5  and  C_6 
REMARK    4  A    between atoms: C_17  and  C_13 
REMARK    5  A    between atoms: C_20  and  C_17 
ROOT
ATOM      1  C   UNL d   1      32.911  19.574 -23.677  0.00  0.00     0.201 C 
ATOM      2  O   UNL d   1      33.241  19.321 -24.393  0.00  0.00    -0.286 OA
ENDROOT
BRANCH   1   3
ATOM      3  C   UNL d   1      32.994  20.366 -23.459  0.00  0.00     0.078 A 
ATOM      4  C   UNL d   1      33.000  20.958 -24.045  0.00  0.00     0.202 A 
ATOM      5  C   UNL d   1      33.082  21.749 -23.826  0.00  0.00     0.084 A 
ATOM      6  O   UNL d   1      32.923  20.749 -24.839  0.00  0.00    -0.286 OA
ATOM      7  C   UNL d   1      33.158  21.952 -23.039  0.00  0.00     0.199 A 
ATOM      8  C   UNL d   1      33.152  21.360 -22.453  0.00  0.00     0.039 A 
ATOM      9  O   UNL d   1      33.241  22.753 -22.831  0.00  0.00    -0.286 OA
ATOM     10  C   UNL d   1      33.071  20.589 -22.671  0.00  0.00     0.010 A 
BRANCH   8  11
ATOM     11  C   UNL d   1      33.230  21.586 -21.662  0.00  0.00     0.003 C 
BRANCH  11  12
ATOM     12  C   UNL d   1      33.050  21.071 -21.044  0.00  0.00     0.000 C 
ATOM     13  C   UNL d   1      33.038  21.323 -20.262  0.00  0.00     0.000 C 
ENDBRANCH  11  12
ENDBRANCH   8  11
ENDBRANCH   1   3
BRANCH   1  14
ATOM     14  C   UNL d   1      32.507  19.034 -23.195  0.00  0.00     0.068 C 
BRANCH  14  15
ATOM     15  C   UNL d   1      32.473  18.241 -23.386  0.00  0.00     0.114 A 
ATOM     16  N   UNL d   1      32.080  17.915 -24.036  0.00  0.00    -0.238 NA
ATOM     17  C   UNL d   1      32.194  17.098 -24.009  0.00  0.00     0.088 A 
ATOM     18  C   UNL d   1      31.935  16.499 -24.504  0.00  0.00     0.020 A 
ATOM     19  C   UNL d   1      32.651  16.918 -23.353  0.00  0.00     0.049 A 
ATOM     20  C   UNL d   1      32.130  15.709 -24.351  0.00  0.00     0.002 A 
ATOM     21  C   UNL d   1      32.595  15.536 -23.682  0.00  0.00     0.001 A 
ATOM     22  C   UNL d   1      32.853  16.135 -23.187  0.00  0.00     0.008 A 
ATOM     23  S   UNL d   1      32.835  17.626 -22.951  0.00  0.00    -0.066 SA
ENDBRANCH  14  15
ENDBRANCH   1  14
TORSDOF 5
ENDMDL
MODEL 5
REMARK VINA RESULT:      -0.1      1.923      5.342
REMARK  5 active torsions:
REMARK  status: ('A' for Active; 'I' for Inactive)
REMARK    1  A    between atoms: C_6  and  C_1 
REMARK    2  A    between atoms: C_3  and  C_5 
REMARK    3  A    between atoms: C_5  and  C_6 
REMARK    4  A    between atoms: C_17  and  C_13 
REMARK    5  A    between atoms: C_20  and  C_17 
ROOT
ATOM      1  C   UNL d   1      32.460  18.610 -23.778  0.00  0.00     0.201 C 
ATOM      2  O   UNL d   1      31.938  19.213 -23.999  0.00  0.00    -0.286 OA
ENDROOT
BRANCH   1   3
ATOM      3  C   UNL d   1      32.300  17.837 -24.017  0.00  0.00     0.078 A 
ATOM      4  C   UNL d   1      31.716  17.695 -24.594  0.00  0.00     0.202 A 
ATOM      5  C   UNL d   1      31.557  16.922 -24.833  0.00  0.00     0.084 A 
ATOM      6  O   UNL d   1      31.302  18.328 -24.921  0.00  0.00    -0.286 OA
ATOM      7  C   UNL d   1      31.969  16.297 -24.506  0.00  0.00     0.199 A 
ATOM      8  C   UNL d   1      32.554  16.439 -23.930  0.00  0.00     0.039 A 
ATOM      9  O   UNL d   1      31.800  15.522 -24.756  0.00  0.00    -0.286 OA
ATOM     10  C   UNL d   1      32.706  17.196 -23.699  0.00  0.00     0.010 A 
BRANCH   8  11
ATOM     11  C   UNL d   1      32.960  15.793 -23.611  0.00  0.00     0.003 C 
BRANCH  11  12
ATOM     12  C   UNL d   1      32.739  15.454 -22.893  0.00  0.00     0.000 C 
ATOM     13  C   UNL d   1      33.237  15.468 -22.239  0.00  0.00     0.000 C 
ENDBRANCH  11  12
ENDBRANCH   8  11
ENDBRANCH   1   3
BRANCH   1  14
ATOM     14  C   UNL d   1      33.129  18.790 -23.323  0.00  0.00     0.068 C 
BRANCH  14  15
ATOM     15  C   UNL d   1      33.123  19.411 -22.792  0.00  0.00     0.114 A 
ATOM     16  N   UNL d   1      33.014  19.350 -21.975  0.00  0.00    -0.238 NA
ATOM     17  C   UNL d   1      33.050  20.113 -21.663  0.00  0.00     0.088 A 
ATOM     18  C   UNL d   1      32.980  20.388 -20.894  0.00  0.00     0.020 A 
ATOM     19  C   UNL d   1      33.179  20.642 -22.276  0.00  0.00     0.049 A 
ATOM     20  C   UNL d   1      33.038  21.196 -20.726  0.00  0.00     0.002 A 
ATOM     21  C   UNL d   1      33.170  21.726 -21.356  0.00  0.00     0.001 A 
ATOM     22  C   UNL d   1      33.239  21.451 -22.124  0.00  0.00     0.008 A 
ATOM     23  S   UNL d   1      33.228  20.216 -22.992  0.00  0.00    -0.066 SA
ENDBRANCH  14  15
ENDBRANCH   1  14
TORSDOF 5
ENDMDL
MODEL 6
REMARK VINA RESULT:       0.1      3.110      4.900
REMARK  5 active torsions:
REMARK  status: ('A' for Active; 'I' for Inactive)
REMARK    1  A    between atoms: C_6  and  C_1 
REMARK    2  A    between atoms: C_3  and  C_5 
REMARK    3  A    between atoms: C_5  and  C_6 
REMARK    4  A    between atoms: C_17  and  C_13 
REMARK    5  A    between atoms: C_20  and  C_17 
ROOT
ATOM      1  C   UNL d   1      32.070  16.553 -23.560  0.00  0.00     0.201 C 
ATOM      2  O   UNL d   1      32.291  16.306 -22.802  0.00  0.00    -0.286 OA
ENDROOT
BRANCH   1   3
ATOM      3  C   UNL d   1      32.361  17.271 -23.845  0.00  0.00     0.078 A 
ATOM      4  C   UNL d   1      32.664  17.317 -24.620  0.00  0.00     0.202 A 
ATOM      5  C   UNL d   1      32.954  18.034 -24.904  0.00  0.00     0.084 A 
ATOM      6  O   UNL d   1      32.670  16.644 -25.097  0.00  0.00    -0.286 OA
ATOM      7  C   UNL d   1      32.945  18.698 -24.428  0.00  0.00     0.199 A 
ATOM      8  C   UNL d   1      32.643  18.653 -23.653  0.00  0.00     0.039 A 
ATOM      9  O   UNL d   1      33.241  19.417 -24.726  0.00  0.00    -0.286 OA
ATOM     10  C   UNL d   1      32.360  17.949 -23.381  0.00  0.00     0.010 A 
BRANCH   8  11
ATOM     11  C   UNL d   1      32.643  19.336 -23.188  0.00  0.00     0.003 C 
BRANCH  11  12
ATOM     12  C   UNL d   1      32.832  19.314 -22.386  0.00  0.00     0.000 C 
ATOM     13  C   UNL d   1      32.604  19.914 -21.873  0.00  0.00     0.000 C 
ENDBRANCH  11  12
ENDBRANCH   8  11
ENDBRANCH   1   3
BRANCH   1  14
ATOM     14  C   UNL d   1      31.566  16.081 -24.017  0.00  0.00     0.068 C 
BRANCH  14  15
ATOM     15  C   UNL d   1      30.793  15.945 -23.789  0.00  0.00     0.114 A 
ATOM     16  N   UNL d   1      30.534  15.791 -23.020  0.00  0.00    -0.238 NA
ATOM     17  C   UNL d   1      29.716  15.691 -23.050  0.00  0.00     0.088 A 
ATOM     18  C   UNL d   1      29.168  15.528 -22.463  0.00  0.00     0.020 A 
ATOM     19  C   UNL d   1      29.468  15.780 -23.827  0.00  0.00     0.049 A 
ATOM     20  C   UNL d   1      28.363  15.453 -22.643  0.00  0.00     0.002 A 
ATOM     21  C   UNL d   1      28.122  15.545 -23.435  0.00  0.00     0.001 A 
ATOM     22  C   UNL d   1      28.669  15.708 -24.022  0.00  0.00     0.008 A 
ATOM     23  S   UNL d   1      30.134  15.941 -24.304  0.00  0.00    -0.066 SA
ENDBRANCH  14  15
ENDBRANCH   1  14
TORSDOF 5
ENDMDL
