MODEL 1
REMARK VINA RESULT:      -4.5      0.000      0.000
REMARK  3 active torsions:
REMARK  status: ('A' for Active; 'I' for Inactive)
REMARK    1  A    between atoms: C_4  and  N_1 
REMARK    2  A    between atoms: C_6  and  C_4 
REMARK       I    between atoms: N_8  and  C_6 
REMARK    3  A    between atoms: C_10  and  N_8 
ROOT
ATOM      1  C   UNL d   1      58.129  -0.152  30.159  0.00  0.00     0.165 C 
ENDROOT
BRANCH   1   2
ATOM      2  N   UNL d   1      58.836  -0.421  29.818  0.00  0.00    -0.204 N 
ATOM      3  N   UNL d   1      59.516   0.038  29.684  0.00  0.00    -0.059 NA
ATOM      4  N   UNL d   1      60.087  -0.447  29.337  0.00  0.00    -0.129 NA
ATOM      5  C   UNL d   1      59.767  -1.205  29.253  0.00  0.00     0.122 A 
ATOM      6  C   UNL d   1      58.989  -1.189  29.552  0.00  0.00     0.104 A 
ATOM      7  C   UNL d   1      60.076  -1.903  28.947  0.00  0.00     0.022 A 
ATOM      8  C   UNL d   1      58.530  -1.871  29.542  0.00  0.00     0.021 A 
ATOM      9  C   UNL d   1      58.839  -2.570  29.235  0.00  0.00     0.002 A 
ATOM     10  C   UNL d   1      59.608  -2.586  28.939  0.00  0.00     0.002 A 
ENDBRANCH   1   2
BRANCH   1  11
ATOM     11  C   UNL d   1      57.587   0.418  29.910  0.00  0.00     0.299 C 
ATOM     12  N   UNL d   1      57.138   0.587  30.577  0.00  0.00    -0.207 NA
ATOM     13  O   UNL d   1      57.596   0.682  29.129  0.00  0.00    -0.263 OA
BRANCH  12  14
ATOM     14  C   UNL d   1      57.132   0.321  31.357  0.00  0.00     0.085 A 
ATOM     15  C   UNL d   1      56.637  -0.304  31.575  0.00  0.00     0.019 A 
ATOM     16  C   UNL d   1      56.631  -0.571  32.356  0.00  0.00     0.002 A 
ATOM     17  C   UNL d   1      56.140  -1.193  32.575  0.00  0.00     0.000 C 
ATOM     18  C   UNL d   1      57.121  -0.212  32.917  0.00  0.00     0.000 A 
ATOM     19  C   UNL d   1      57.619   0.417  32.696  0.00  0.00     0.002 A 
ATOM     20  C   UNL d   1      57.624   0.682  31.919  0.00  0.00     0.019 A 
ENDBRANCH  12  14
ENDBRANCH   1  11
TORSDOF 3
ENDMDL
MODEL 2
REMARK VINA RESULT:      -4.2      0.752      3.624
REMARK  3 active torsions:
REMARK  status: ('A' for Active; 'I' for Inactive)
REMARK    1  A    between atoms: C_4  and  N_1 
REMARK    2  A    between atoms: C_6  and  C_4 
REMARK       I    between atoms: N_8  and  C_6 
REMARK    3  A    between atoms: C_10  and  N_8 
ROOT
ATOM      1  C   UNL d   1      57.961  -0.334  30.324  0.00  0.00     0.165 C 
ENDROOT
BRANCH   1   2
ATOM      2  N   UNL d   1      57.805  -0.055  31.089  0.00  0.00    -0.204 N 
ATOM      3  N   UNL d   1      58.165   0.602  31.450  0.00  0.00    -0.059 NA
ATOM      4  N   UNL d   1      57.849   0.682  32.209  0.00  0.00    -0.129 NA
ATOM      5  C   UNL d   1      57.294   0.079  32.323  0.00  0.00     0.122 A 
ATOM      6  C   UNL d   1      57.267  -0.379  31.628  0.00  0.00     0.104 A 
ATOM      7  C   UNL d   1      56.814  -0.113  32.963  0.00  0.00     0.022 A 
ATOM      8  C   UNL d   1      56.759  -1.024  31.579  0.00  0.00     0.021 A 
ATOM      9  C   UNL d   1      56.278  -1.217  32.219  0.00  0.00     0.002 A 
ATOM     10  C   UNL d   1      56.305  -0.764  32.907  0.00  0.00     0.002 A 
ENDBRANCH   1   2
BRANCH   1  11
ATOM     11  C   UNL d   1      57.886   0.029  29.587  0.00  0.00     0.299 C 
ATOM     12  N   UNL d   1      58.378  -0.401  29.089  0.00  0.00    -0.207 NA
ATOM     13  O   UNL d   1      57.389   0.682  29.497  0.00  0.00    -0.263 OA
BRANCH  12  14
ATOM     14  C   UNL d   1      58.873  -1.053  29.183  0.00  0.00     0.085 A 
ATOM     15  C   UNL d   1      58.583  -1.814  29.043  0.00  0.00     0.019 A 
ATOM     16  C   UNL d   1      59.079  -2.467  29.138  0.00  0.00     0.002 A 
ATOM     17  C   UNL d   1      58.792  -3.225  28.999  0.00  0.00     0.000 C 
ATOM     18  C   UNL d   1      59.864  -2.357  29.371  0.00  0.00     0.000 A 
ATOM     19  C   UNL d   1      60.155  -1.591  29.511  0.00  0.00     0.002 A 
ATOM     20  C   UNL d   1      59.661  -0.941  29.418  0.00  0.00     0.019 A 
ENDBRANCH  12  14
ENDBRANCH   1  11
TORSDOF 3
ENDMDL
MODEL 3
REMARK VINA RESULT:      -4.0      1.154      3.785
REMARK  3 active torsions:
REMARK  status: ('A' for Active; 'I' for Inactive)
REMARK    1  A    between atoms: C_4  and  N_1 
REMARK    2  A    between atoms: C_6  and  C_4 
REMARK       I    between atoms: N_8  and  C_6 
REMARK    3  A    between atoms: C_10  and  N_8 
ROOT
ATOM      1  C   UNL d   1      58.246   0.061  30.244  0.00  0.00     0.165 C 
ENDROOT
BRANCH   1   2
ATOM      2  N   UNL d   1      57.727  -0.349  30.745  0.00  0.00    -0.204 N 
ATOM      3  N   UNL d   1      57.382  -1.089  30.586  0.00  0.00    -0.059 NA
ATOM      4  N   UNL d   1      56.905  -1.292  31.229  0.00  0.00    -0.129 NA
ATOM      5  C   UNL d   1      56.950  -0.683  31.787  0.00  0.00     0.122 A 
ATOM      6  C   UNL d   1      57.461  -0.097  31.486  0.00  0.00     0.104 A 
ATOM      7  C   UNL d   1      56.598  -0.583  32.524  0.00  0.00     0.022 A 
ATOM      8  C   UNL d   1      57.613   0.581  31.925  0.00  0.00     0.021 A 
ATOM      9  C   UNL d   1      57.261   0.682  32.663  0.00  0.00     0.002 A 
ATOM     10  C   UNL d   1      56.756   0.103  32.960  0.00  0.00     0.002 A 
ENDBRANCH   1   2
BRANCH   1  11
ATOM     11  C   UNL d   1      58.128   0.411  29.507  0.00  0.00     0.299 C 
ATOM     12  N   UNL d   1      58.872   0.427  29.159  0.00  0.00    -0.207 NA
ATOM     13  O   UNL d   1      57.372   0.653  29.281  0.00  0.00    -0.263 OA
BRANCH  12  14
ATOM     14  C   UNL d   1      59.626   0.184  29.388  0.00  0.00     0.085 A 
ATOM     15  C   UNL d   1      59.915  -0.550  29.142  0.00  0.00     0.019 A 
ATOM     16  C   UNL d   1      60.669  -0.793  29.371  0.00  0.00     0.002 A 
ATOM     17  C   UNL d   1      60.959  -1.524  29.128  0.00  0.00     0.000 C 
ATOM     18  C   UNL d   1      61.133  -0.302  29.847  0.00  0.00     0.000 A 
ATOM     19  C   UNL d   1      60.841   0.437  30.094  0.00  0.00     0.002 A 
ATOM     20  C   UNL d   1      60.090   0.679  29.866  0.00  0.00     0.019 A 
ENDBRANCH  12  14
ENDBRANCH   1  11
TORSDOF 3
ENDMDL
MODEL 4
REMARK VINA RESULT:      -1.8      2.100      4.607
REMARK  3 active torsions:
REMARK  status: ('A' for Active; 'I' for Inactive)
REMARK    1  A    between atoms: C_4  and  N_1 
REMARK    2  A    between atoms: C_6  and  C_4 
REMARK       I    between atoms: N_8  and  C_6 
REMARK    3  A    between atoms: C_10  and  N_8 
ROOT
ATOM      1  C   UNL d   1      56.711  -0.381  32.299  0.00  0.00     0.165 C 
ENDROOT
BRANCH   1   2
ATOM      2  N   UNL d   1      56.676  -0.092  33.076  0.00  0.00    -0.204 N 
ATOM      3  N   UNL d   1      57.325   0.012  33.586  0.00  0.00    -0.059 NA
ATOM      4  N   UNL d   1      57.042   0.311  34.302  0.00  0.00    -0.129 NA
ATOM      5  C   UNL d   1      56.221   0.394  34.241  0.00  0.00     0.122 A 
ATOM      6  C   UNL d   1      55.994   0.144  33.480  0.00  0.00     0.104 A 
ATOM      7  C   UNL d   1      55.654   0.663  34.773  0.00  0.00     0.022 A 
ATOM      8  C   UNL d   1      55.202   0.166  33.258  0.00  0.00     0.021 A 
ATOM      9  C   UNL d   1      54.634   0.434  33.790  0.00  0.00     0.002 A 
ATOM     10  C   UNL d   1      54.858   0.681  34.544  0.00  0.00     0.002 A 
ENDBRANCH   1   2
BRANCH   1  11
ATOM     11  C   UNL d   1      56.694  -1.151  32.004  0.00  0.00     0.299 C 
ATOM     12  N   UNL d   1      57.102  -1.113  31.292  0.00  0.00    -0.207 NA
ATOM     13  O   UNL d   1      56.313  -1.747  32.429  0.00  0.00    -0.263 OA
BRANCH  12  14
ATOM     14  C   UNL d   1      57.481  -0.515  30.871  0.00  0.00     0.085 A 
ATOM     15  C   UNL d   1      58.305  -0.515  30.806  0.00  0.00     0.019 A 
ATOM     16  C   UNL d   1      58.685   0.084  30.384  0.00  0.00     0.002 A 
ATOM     17  C   UNL d   1      59.505   0.085  30.319  0.00  0.00     0.000 C 
ATOM     18  C   UNL d   1      58.239   0.682  30.027  0.00  0.00     0.000 A 
ATOM     19  C   UNL d   1      57.410   0.680  30.093  0.00  0.00     0.002 A 
ATOM     20  C   UNL d   1      57.033   0.084  30.513  0.00  0.00     0.019 A 
ENDBRANCH  12  14
ENDBRANCH   1  11
TORSDOF 3
ENDMDL
