MODEL 1
REMARK VINA RESULT:      62.9      0.000      0.000
REMARK  4 active torsions:
REMARK  status: ('A' for Active; 'I' for Inactive)
REMARK    1  A    between atoms: N_2  and  S_1 
REMARK    2  A    between atoms: C_8  and  S_1 
REMARK    3  A    between atoms: C_4  and  C_3 
REMARK       I    between atoms: N_5  and  C_4 
REMARK    4  A    between atoms: C_6  and  N_5 
ROOT
ATOM      1  N   UNL d   1     -51.245  26.347  33.849  0.00  0.00    -0.226 N 
ATOM      2  C   UNL d   1     -50.436  26.181  33.800  0.00  0.00     0.133 A 
ATOM      3  C   UNL d   1     -51.337  27.156  33.964  0.00  0.00     0.092 A 
ATOM      4  C   UNL d   1     -50.027  26.893  33.885  0.00  0.00     0.025 A 
ATOM      5  C   UNL d   1     -50.586  27.491  33.986  0.00  0.00     0.021 A 
ENDROOT
BRANCH   1   6
ATOM      6  S   UNL d   1     -51.809  25.745  33.784  0.00  0.00     0.271 S 
ATOM      7  O   UNL d   1     -52.397  26.187  34.156  0.00  0.00    -0.200 OA
ATOM      8  O   UNL d   1     -51.213  25.312  33.412  0.00  0.00    -0.200 OA
BRANCH   6   9
ATOM      9  C   UNL d   1     -52.331  25.118  33.695  0.00  0.00     0.104 A 
ATOM     10  C   UNL d   1     -52.094  24.355  33.900  0.00  0.00     0.013 A 
ATOM     11  C   UNL d   1     -52.616  23.722  33.812  0.00  0.00     0.001 A 
ATOM     12  C   UNL d   1     -53.379  23.855  33.517  0.00  0.00     0.000 A 
ATOM     13  C   UNL d   1     -53.613  24.622  33.312  0.00  0.00     0.001 A 
ATOM     14  C   UNL d   1     -53.901  23.223  33.429  0.00  0.00     0.000 C 
ATOM     15  C   UNL d   1     -53.088  25.252  33.401  0.00  0.00     0.013 A 
ENDBRANCH   6   9
ENDBRANCH   1   6
BRANCH   2  16
ATOM     16  C   UNL d   1     -50.094  25.433  33.686  0.00  0.00     0.298 C 
ATOM     17  N   UNL d   1     -49.324  25.294  33.957  0.00  0.00    -0.181 NA
ATOM     18  O   UNL d   1     -50.521  24.843  33.307  0.00  0.00    -0.264 OA
BRANCH  17  19
ATOM     19  C   UNL d   1     -48.986  24.549  33.842  0.00  0.00     0.197 A 
ATOM     20  N   UNL d   1     -49.193  23.863  34.254  0.00  0.00    -0.219 NA
ATOM     21  C   UNL d   1     -48.723  23.252  33.967  0.00  0.00     0.108 A 
ATOM     22  C   UNL d   1     -48.228  23.553  33.384  0.00  0.00     0.059 A 
ATOM     23  S   UNL d   1     -48.392  24.362  33.306  0.00  0.00    -0.046 SA
ENDBRANCH  17  19
ENDBRANCH   2  16
TORSDOF 4
ENDMDL
MODEL 2
REMARK VINA RESULT:      64.6      2.224      3.238
REMARK  4 active torsions:
REMARK  status: ('A' for Active; 'I' for Inactive)
REMARK    1  A    between atoms: N_2  and  S_1 
REMARK    2  A    between atoms: C_8  and  S_1 
REMARK    3  A    between atoms: C_4  and  C_3 
REMARK       I    between atoms: N_5  and  C_4 
REMARK    4  A    between atoms: C_6  and  N_5 
ROOT
ATOM      1  N   UNL d   1     -50.712  26.835  34.615  0.00  0.00    -0.226 N 
ATOM      2  C   UNL d   1     -50.875  26.327  33.983  0.00  0.00     0.133 A 
ATOM      3  C   UNL d   1     -50.267  27.467  34.332  0.00  0.00     0.092 A 
ATOM      4  C   UNL d   1     -50.529  26.649  33.306  0.00  0.00     0.025 A 
ATOM      5  C   UNL d   1     -50.155  27.351  33.525  0.00  0.00     0.021 A 
ENDROOT
BRANCH   1   6
ATOM      6  S   UNL d   1     -50.984  26.669  35.378  0.00  0.00     0.271 S 
ATOM      7  O   UNL d   1     -51.730  26.434  35.115  0.00  0.00    -0.200 OA
ATOM      8  O   UNL d   1     -50.235  26.905  35.630  0.00  0.00    -0.200 OA
BRANCH   6   9
ATOM      9  C   UNL d   1     -51.207  26.518  36.154  0.00  0.00     0.104 A 
ATOM     10  C   UNL d   1     -51.970  26.250  36.317  0.00  0.00     0.013 A 
ATOM     11  C   UNL d   1     -52.197  26.097  37.095  0.00  0.00     0.001 A 
ATOM     12  C   UNL d   1     -51.657  26.214  37.712  0.00  0.00     0.000 A 
ATOM     13  C   UNL d   1     -50.892  26.483  37.546  0.00  0.00     0.001 A 
ATOM     14  C   UNL d   1     -51.884  26.062  38.491  0.00  0.00     0.000 C 
ATOM     15  C   UNL d   1     -50.669  26.635  36.766  0.00  0.00     0.013 A 
ENDBRANCH   6   9
ENDBRANCH   1   6
BRANCH   2  16
ATOM     16  C   UNL d   1     -51.309  25.621  34.021  0.00  0.00     0.298 C 
ATOM     17  N   UNL d   1     -51.447  25.193  33.325  0.00  0.00    -0.181 NA
ATOM     18  O   UNL d   1     -51.595  25.356  34.743  0.00  0.00    -0.264 OA
BRANCH  17  19
ATOM     19  C   UNL d   1     -51.879  24.490  33.365  0.00  0.00     0.197 A 
ATOM     20  N   UNL d   1     -52.703  24.438  33.404  0.00  0.00    -0.219 NA
ATOM     21  C   UNL d   1     -52.898  23.640  33.436  0.00  0.00     0.108 A 
ATOM     22  C   UNL d   1     -52.206  23.198  33.416  0.00  0.00     0.059 A 
ATOM     23  S   UNL d   1     -51.570  23.728  33.372  0.00  0.00    -0.046 SA
ENDBRANCH  17  19
ENDBRANCH   2  16
TORSDOF 4
ENDMDL
MODEL 3
REMARK VINA RESULT:      65.3      5.165      6.763
REMARK  4 active torsions:
REMARK  status: ('A' for Active; 'I' for Inactive)
REMARK    1  A    between atoms: N_2  and  S_1 
REMARK    2  A    between atoms: C_8  and  S_1 
REMARK    3  A    between atoms: C_4  and  C_3 
REMARK       I    between atoms: N_5  and  C_4 
REMARK    4  A    between atoms: C_6  and  N_5 
ROOT
ATOM      1  N   UNL d   1     -47.312  29.924  36.008  0.00  0.00    -0.226 N 
ATOM      2  C   UNL d   1     -47.149  30.715  35.823  0.00  0.00     0.133 A 
ATOM      3  C   UNL d   1     -46.945  29.744  36.721  0.00  0.00     0.092 A 
ATOM      4  C   UNL d   1     -46.678  31.021  36.428  0.00  0.00     0.025 A 
ATOM      5  C   UNL d   1     -46.555  30.420  36.979  0.00  0.00     0.021 A 
ENDROOT
BRANCH   1   6
ATOM      6  S   UNL d   1     -47.776  29.457  35.507  0.00  0.00     0.271 S 
ATOM      7  O   UNL d   1     -47.184  29.392  34.936  0.00  0.00    -0.200 OA
ATOM      8  O   UNL d   1     -48.361  29.528  36.085  0.00  0.00    -0.200 OA
BRANCH   6   9
ATOM      9  C   UNL d   1     -48.276  28.996  35.047  0.00  0.00     0.104 A 
ATOM     10  C   UNL d   1     -48.770  29.355  34.492  0.00  0.00     0.013 A 
ATOM     11  C   UNL d   1     -49.274  28.896  34.028  0.00  0.00     0.001 A 
ATOM     12  C   UNL d   1     -49.282  28.073  34.120  0.00  0.00     0.000 A 
ATOM     13  C   UNL d   1     -48.786  27.715  34.677  0.00  0.00     0.001 A 
ATOM     14  C   UNL d   1     -49.786  27.613  33.656  0.00  0.00     0.000 C 
ATOM     15  C   UNL d   1     -48.283  28.178  35.140  0.00  0.00     0.013 A 
ENDBRANCH   6   9
ENDBRANCH   1   6
BRANCH   2  16
ATOM     16  C   UNL d   1     -47.410  31.126  35.152  0.00  0.00     0.298 C 
ATOM     17  N   UNL d   1     -47.405  31.955  35.157  0.00  0.00    -0.181 NA
ATOM     18  O   UNL d   1     -47.670  30.710  34.493  0.00  0.00    -0.264 OA
BRANCH  17  19
ATOM     19  C   UNL d   1     -47.666  32.362  34.488  0.00  0.00     0.197 A 
ATOM     20  N   UNL d   1     -48.441  32.617  34.356  0.00  0.00    -0.219 NA
ATOM     21  C   UNL d   1     -48.455  32.996  33.626  0.00  0.00     0.108 A 
ATOM     22  C   UNL d   1     -47.699  32.978  33.306  0.00  0.00     0.059 A 
ATOM     23  S   UNL d   1     -47.206  32.583  33.843  0.00  0.00    -0.046 SA
ENDBRANCH  17  19
ENDBRANCH   2  16
TORSDOF 4
ENDMDL
MODEL 4
REMARK VINA RESULT:      65.6      5.257      7.202
REMARK  4 active torsions:
REMARK  status: ('A' for Active; 'I' for Inactive)
REMARK    1  A    between atoms: N_2  and  S_1 
REMARK    2  A    between atoms: C_8  and  S_1 
REMARK    3  A    between atoms: C_4  and  C_3 
REMARK       I    between atoms: N_5  and  C_4 
REMARK    4  A    between atoms: C_6  and  N_5 
ROOT
ATOM      1  N   UNL d   1     -47.087  30.608  35.924  0.00  0.00    -0.226 N 
ATOM      2  C   UNL d   1     -47.350  29.827  35.842  0.00  0.00     0.133 A 
ATOM      3  C   UNL d   1     -46.637  30.658  36.611  0.00  0.00     0.092 A 
ATOM      4  C   UNL d   1     -47.059  29.395  36.482  0.00  0.00     0.025 A 
ATOM      5  C   UNL d   1     -46.621  29.910  36.953  0.00  0.00     0.021 A 
ENDROOT
BRANCH   1   6
ATOM      6  S   UNL d   1     -47.285  31.186  35.367  0.00  0.00     0.271 S 
ATOM      7  O   UNL d   1     -46.914  30.788  34.747  0.00  0.00    -0.200 OA
ATOM      8  O   UNL d   1     -47.653  31.576  35.994  0.00  0.00    -0.200 OA
BRANCH   6   9
ATOM      9  C   UNL d   1     -47.506  31.787  34.853  0.00  0.00     0.104 A 
ATOM     10  C   UNL d   1     -48.297  32.018  34.809  0.00  0.00     0.013 A 
ATOM     11  C   UNL d   1     -48.523  32.622  34.294  0.00  0.00     0.001 A 
ATOM     12  C   UNL d   1     -47.954  32.995  33.822  0.00  0.00     0.000 A 
ATOM     13  C   UNL d   1     -47.162  32.761  33.869  0.00  0.00     0.001 A 
ATOM     14  C   UNL d   1     -48.180  33.599  33.307  0.00  0.00     0.000 C 
ATOM     15  C   UNL d   1     -46.939  32.157  34.385  0.00  0.00     0.013 A 
ENDBRANCH   6   9
ENDBRANCH   1   6
BRANCH   2  16
ATOM     16  C   UNL d   1     -47.821  29.531  35.226  0.00  0.00     0.298 C 
ATOM     17  N   UNL d   1     -48.364  28.926  35.387  0.00  0.00    -0.181 NA
ATOM     18  O   UNL d   1     -47.745  29.839  34.469  0.00  0.00    -0.264 OA
BRANCH  17  19
ATOM     19  C   UNL d   1     -48.832  28.633  34.773  0.00  0.00     0.197 A 
ATOM     20  N   UNL d   1     -49.325  29.087  34.289  0.00  0.00    -0.219 NA
ATOM     21  C   UNL d   1     -49.685  28.577  33.755  0.00  0.00     0.108 A 
ATOM     22  C   UNL d   1     -49.422  27.812  33.903  0.00  0.00     0.059 A 
ATOM     23  S   UNL d   1     -48.889  27.847  34.537  0.00  0.00    -0.046 SA
ENDBRANCH  17  19
ENDBRANCH   2  16
TORSDOF 4
ENDMDL
