MODEL 1
REMARK VINA RESULT:      86.3      0.000      0.000
REMARK  4 active torsions:
REMARK  status: ('A' for Active; 'I' for Inactive)
REMARK    1  A    between atoms: C_11  and  N_2 
REMARK    2  A    between atoms: C_12  and  C_6 
REMARK    3  A    between atoms: C_15  and  C_11 
REMARK    4  A    between atoms: O_29  and  C_24 
ROOT
ATOM      1  C   UNL d   1     -54.713-101.558 -41.461  0.00  0.00     0.137 A 
ATOM      2  N   UNL d   1     -54.712-101.460 -42.884  0.00  0.00    -0.256 N 
ATOM      3  C   UNL d   1     -54.712-100.732 -41.401  0.00  0.00     0.192 A 
ATOM      4  C   UNL d   1     -54.712-101.922 -42.202  0.00  0.00     0.272 A 
ATOM      5  N   UNL d   1     -54.712-100.271 -42.079  0.00  0.00    -0.204 NA
ATOM      6  C   UNL d   1     -54.712-100.635 -42.828  0.00  0.00     0.152 A 
ATOM      7  C   UNL d   1     -54.713-102.019 -40.775  0.00  0.00     0.205 A 
ATOM      8  C   UNL d   1     -54.713-101.663 -40.043  0.00  0.00     0.062 A 
ATOM      9  O   UNL d   1     -54.712-100.377 -40.661  0.00  0.00    -0.289 OA
ATOM     10  C   UNL d   1     -54.713-100.841 -39.980  0.00  0.00     0.107 A 
ATOM     11  C   UNL d   1     -54.713-100.479 -39.230  0.00  0.00     0.049 A 
ATOM     12  C   UNL d   1     -54.713-102.128 -39.358  0.00  0.00     0.007 A 
ATOM     13  O   UNL d   1     -54.713-102.743 -42.257  0.00  0.00    -0.266 OA
ATOM     14  O   UNL d   1     -54.713-102.839 -40.839  0.00  0.00    -0.286 OA
ATOM     15  C   UNL d   1     -54.713-100.944 -38.553  0.00  0.00     0.096 A 
ATOM     16  C   UNL d   1     -54.713-101.764 -38.617  0.00  0.00     0.024 A 
ENDROOT
BRANCH   6  17
ATOM     17  C   UNL d   1     -54.712-100.169 -43.509  0.00  0.00     0.035 A 
ATOM     18  C   UNL d   1     -54.711-100.526 -44.251  0.00  0.00     0.003 A 
ATOM     19  C   UNL d   1     -54.711-100.051 -44.922  0.00  0.00     0.000 A 
ATOM     20  C   UNL d   1     -54.712 -99.231 -44.859  0.00  0.00     0.000 A 
ATOM     21  C   UNL d   1     -54.713 -98.880 -44.110  0.00  0.00     0.000 A 
ATOM     22  C   UNL d   1     -54.712 -98.764 -45.537  0.00  0.00     0.000 C 
ATOM     23  C   UNL d   1     -54.713 -99.348 -43.434  0.00  0.00     0.003 A 
ENDBRANCH   6  17
BRANCH   2  24
ATOM     24  C   UNL d   1     -54.712-101.824 -43.624  0.00  0.00     0.109 C 
BRANCH  24  25
ATOM     25  C   UNL d   1     -55.409-102.178 -43.920  0.00  0.00     0.118 A 
ATOM     26  O   UNL d   1     -56.155-102.143 -43.572  0.00  0.00    -0.304 OA
ATOM     27  C   UNL d   1     -56.682-102.571 -44.053  0.00  0.00     0.123 A 
ATOM     28  C   UNL d   1     -56.252-102.871 -44.704  0.00  0.00     0.029 A 
ATOM     29  C   UNL d   1     -55.457-102.624 -44.618  0.00  0.00     0.028 A 
ENDBRANCH  24  25
ENDBRANCH   2  24
BRANCH  15  30
ATOM     30  O   UNL d   1     -54.713-100.596 -37.813  0.00  0.00    -0.328 OA
ATOM     31  C   UNL d   1     -54.888 -99.796 -37.741  0.00  0.00     0.181 C 
ENDBRANCH  15  30
TORSDOF 4
ENDMDL
