MODEL 1
REMARK VINA RESULT:      51.1      0.000      0.000
REMARK  5 active torsions:
REMARK  status: ('A' for Active; 'I' for Inactive)
REMARK    1  A    between atoms: N_2  and  S_1 
REMARK    2  A    between atoms: C_5  and  S_1 
REMARK    3  A    between atoms: C_3  and  N_2 
REMARK    4  A    between atoms: C_4  and  C_3 
REMARK       I    between atoms: N_8  and  C_4 
REMARK    5  A    between atoms: C_12  and  N_8 
ROOT
ATOM      1  N   UNL d   1      59.970  49.640  50.961  0.00  0.00    -0.223 N 
ATOM      2  C   UNL d   1      59.533  49.707  51.660  0.00  0.00     0.112 C 
ENDROOT
BRANCH   1   3
ATOM      3  S   UNL d   1      60.786  49.528  51.003  0.00  0.00     0.272 S 
ATOM      4  O   UNL d   1      61.216  49.370  50.316  0.00  0.00    -0.200 OA
ATOM      5  O   UNL d   1      60.195  49.690  51.552  0.00  0.00    -0.200 OA
BRANCH   3   6
ATOM      6  C   UNL d   1      61.176  49.573  51.731  0.00  0.00     0.104 A 
ATOM      7  C   UNL d   1      61.999  49.656  51.760  0.00  0.00     0.013 A 
ATOM      8  C   UNL d   1      62.384  49.701  52.496  0.00  0.00     0.001 A 
ATOM      9  C   UNL d   1      61.948  49.663  53.195  0.00  0.00     0.000 A 
ATOM     10  C   UNL d   1      61.125  49.580  53.166  0.00  0.00     0.001 A 
ATOM     11  C   UNL d   1      62.333  49.708  53.923  0.00  0.00     0.000 C 
ATOM     12  C   UNL d   1      60.740  49.536  52.438  0.00  0.00     0.013 A 
ENDBRANCH   3   6
ENDBRANCH   1   3
BRANCH   1  13
ATOM     13  C   UNL d   1      59.590  49.685  50.231  0.00  0.00     0.154 C 
BRANCH  13  14
ATOM     14  C   UNL d   1      58.781  49.536  50.178  0.00  0.00     0.298 C 
ATOM     15  N   UNL d   1      58.460  49.262  49.467  0.00  0.00    -0.207 NA
ATOM     16  O   UNL d   1      58.293  49.661  50.835  0.00  0.00    -0.264 OA
BRANCH  15  17
ATOM     17  C   UNL d   1      57.650  49.113  49.415  0.00  0.00     0.085 A 
ATOM     18  C   UNL d   1      57.356  48.375  49.613  0.00  0.00     0.019 A 
ATOM     19  C   UNL d   1      56.546  48.226  49.560  0.00  0.00     0.002 A 
ATOM     20  C   UNL d   1      56.034  48.821  49.309  0.00  0.00     0.000 A 
ATOM     21  C   UNL d   1      56.335  49.565  49.110  0.00  0.00     0.002 A 
ATOM     22  C   UNL d   1      57.142  49.707  49.164  0.00  0.00     0.019 A 
ENDBRANCH  15  17
ENDBRANCH  13  14
ENDBRANCH   1  13
TORSDOF 5
ENDMDL
