MODEL 1
REMARK VINA RESULT:      49.1      0.000      0.000
REMARK  3 active torsions:
REMARK  status: ('A' for Active; 'I' for Inactive)
REMARK    1  A    between atoms: N_5  and  C_1 
REMARK    2  A    between atoms: C_8  and  C_2 
REMARK       I    between atoms: C_7  and  N_5 
REMARK    3  A    between atoms: C_9  and  C_7 
ROOT
ATOM      1  C   UNL d   1     -56.526 -99.778 -44.233  0.00  0.00     0.119 A 
ATOM      2  C   UNL d   1     -55.999-100.401 -44.403  0.00  0.00     0.084 A 
ATOM      3  S   UNL d   1     -56.210 -99.346 -43.614  0.00  0.00    -0.068 SA
ATOM      4  C   UNL d   1     -55.362-100.344 -43.882  0.00  0.00     0.013 A 
ATOM      5  C   UNL d   1     -55.494 -99.687 -43.391  0.00  0.00     0.031 A 
ATOM      6  C   UNL d   1     -54.711-100.844 -43.850  0.00  0.00     0.001 C 
ATOM      7  C   UNL d   1     -54.994 -99.430 -42.792  0.00  0.00     0.007 C 
ENDROOT
BRANCH   1   8
ATOM      8  N   UNL d   1     -57.234 -99.629 -44.622  0.00  0.00    -0.200 NA
ATOM      9  C   UNL d   1     -57.793 -99.132 -44.275  0.00  0.00     0.302 C 
ATOM     10  O   UNL d   1     -57.649 -98.781 -43.542  0.00  0.00    -0.263 OA
BRANCH   9  11
ATOM     11  C   UNL d   1     -58.507 -98.986 -44.674  0.00  0.00     0.158 A 
ATOM     12  O   UNL d   1     -58.593 -98.911 -45.492  0.00  0.00    -0.300 OA
ATOM     13  C   UNL d   1     -59.405 -98.767 -45.652  0.00  0.00     0.123 A 
ATOM     14  C   UNL d   1     -59.799 -98.756 -44.935  0.00  0.00     0.029 A 
ATOM     15  C   UNL d   1     -59.259 -98.890 -44.321  0.00  0.00     0.032 A 
ENDBRANCH   9  11
ENDBRANCH   1   8
BRANCH   2  16
ATOM     16  C   UNL d   1     -56.100-100.970 -44.987  0.00  0.00     0.299 C 
ATOM     17  O   UNL d   1     -55.772-100.851 -45.743  0.00  0.00    -0.264 OA
ATOM     18  N   UNL d   1     -56.525-101.665 -44.833  0.00  0.00    -0.102 N 
ENDBRANCH   2  16
TORSDOF 3
ENDMDL
