MODEL 1
REMARK VINA RESULT:      -2.0      0.000      0.000
REMARK  8 active torsions:
REMARK  status: ('A' for Active; 'I' for Inactive)
REMARK    1  A    between atoms: N_3  and  C_1 
REMARK    2  A    between atoms: C_20  and  N_2 
REMARK       I    between atoms: C_7  and  N_3 
REMARK    3  A    between atoms: C_10  and  C_7 
REMARK    4  A    between atoms: C_9  and  C_10 
REMARK    5  A    between atoms: C_15  and  C_9 
REMARK       I    between atoms: C_12  and  N_13 
REMARK    6  A    between atoms: N_13  and  C_14 
REMARK    7  A    between atoms: C_26  and  C_20 
REMARK    8  A    between atoms: O_22  and  C_26 
ROOT
ATOM      1  C   UNL d   1      33.080  19.838 -22.742  0.00  0.00     0.182 A 
ATOM      2  N   UNL d   1      33.084  19.827 -23.563  0.00  0.00    -0.283 N 
ATOM      3  S   UNL d   1      32.900  19.077 -22.479  0.00  0.00    -0.048 SA
ATOM      4  C   UNL d   1      32.792  18.595 -23.144  0.00  0.00     0.050 A 
ATOM      5  C   UNL d   1      32.906  19.061 -23.817  0.00  0.00     0.072 A 
ATOM      6  C   UNL d   1      32.605  17.796 -23.222  0.00  0.00     0.027 A 
ATOM      7  C   UNL d   1      32.833  18.727 -24.567  0.00  0.00     0.020 A 
ATOM      8  C   UNL d   1      32.532  17.462 -23.972  0.00  0.00     0.085 A 
ATOM      9  C   UNL d   1      32.647  17.928 -24.645  0.00  0.00     0.021 A 
ENDROOT
BRANCH   1  10
ATOM     10  N   UNL d   1      33.232  20.498 -22.269  0.00  0.00    -0.184 NA
ATOM     11  C   UNL d   1      32.962  20.510 -21.491  0.00  0.00     0.281 C 
ATOM     12  O   UNL d   1      32.544  19.866 -21.191  0.00  0.00    -0.265 OA
BRANCH  11  13
ATOM     13  C   UNL d   1      33.109  21.167 -21.012  0.00  0.00     0.063 C 
BRANCH  13  14
ATOM     14  C   UNL d   1      32.526  21.733 -20.896  0.00  0.00     0.006 C 
BRANCH  14  15
ATOM     15  C   UNL d   1      32.633  22.347 -20.366  0.00  0.00     0.011 A 
ATOM     16  C   UNL d   1      32.249  23.072 -20.489  0.00  0.00     0.058 A 
ATOM     17 CL   UNL d   1      31.754  23.169 -21.155  0.00  0.00    -0.082 Cl
ATOM     18  C   UNL d   1      32.358  23.702 -19.945  0.00  0.00     0.011 A 
ATOM     19  C   UNL d   1      32.840  23.614 -19.294  0.00  0.00     0.001 A 
ATOM     20  C   UNL d   1      33.225  22.891 -19.168  0.00  0.00     0.000 A 
ATOM     21  C   UNL d   1      33.118  22.266 -19.705  0.00  0.00     0.001 A 
ENDBRANCH  14  15
ENDBRANCH  13  14
ENDBRANCH  11  13
ENDBRANCH   1  10
BRANCH   2  22
ATOM     22  C   UNL d   1      33.239  20.470 -24.060  0.00  0.00     0.108 C 
BRANCH  22  23
ATOM     23  C   UNL d   1      32.722  20.659 -24.673  0.00  0.00     0.135 C 
BRANCH  23  24
ATOM     24  O   UNL d   1      32.818  21.358 -25.095  0.00  0.00    -0.325 OA
ATOM     25  C   UNL d   1      32.233  21.945 -25.080  0.00  0.00     0.182 C 
ENDBRANCH  23  24
ENDBRANCH  22  23
ENDBRANCH   2  22
BRANCH   8  26
ATOM     26  N   UNL d   1      32.343  16.651 -24.053  0.00  0.00    -0.208 NA
ATOM     27  C   UNL d   1      31.587  16.431 -24.273  0.00  0.00     0.279 C 
ATOM     28  O   UNL d   1      31.401  15.632 -24.352  0.00  0.00    -0.265 OA
ATOM     29  C   UNL d   1      31.004  16.999 -24.416  0.00  0.00     0.068 C 
ENDBRANCH   8  26
TORSDOF 8
ENDMDL
MODEL 2
REMARK VINA RESULT:      -1.1      1.739      5.530
REMARK  8 active torsions:
REMARK  status: ('A' for Active; 'I' for Inactive)
REMARK    1  A    between atoms: N_3  and  C_1 
REMARK    2  A    between atoms: C_20  and  N_2 
REMARK       I    between atoms: C_7  and  N_3 
REMARK    3  A    between atoms: C_10  and  C_7 
REMARK    4  A    between atoms: C_9  and  C_10 
REMARK    5  A    between atoms: C_15  and  C_9 
REMARK       I    between atoms: C_12  and  N_13 
REMARK    6  A    between atoms: N_13  and  C_14 
REMARK    7  A    between atoms: C_26  and  C_20 
REMARK    8  A    between atoms: O_22  and  C_26 
ROOT
ATOM      1  C   UNL d   1      33.123  20.080 -22.577  0.00  0.00     0.182 A 
ATOM      2  N   UNL d   1      33.184  20.881 -22.745  0.00  0.00    -0.283 N 
ATOM      3  S   UNL d   1      33.080  19.995 -21.758  0.00  0.00    -0.048 SA
ATOM      4  C   UNL d   1      33.116  20.750 -21.420  0.00  0.00     0.050 A 
ATOM      5  C   UNL d   1      33.181  21.300 -22.033  0.00  0.00     0.072 A 
ATOM      6  C   UNL d   1      33.098  21.005 -20.636  0.00  0.00     0.027 A 
ATOM      7  C   UNL d   1      33.227  22.105 -21.862  0.00  0.00     0.020 A 
ATOM      8  C   UNL d   1      33.145  21.810 -20.465  0.00  0.00     0.085 A 
ATOM      9  C   UNL d   1      33.209  22.360 -21.078  0.00  0.00     0.021 A 
ENDROOT
BRANCH   1  10
ATOM     10  N   UNL d   1      33.106  19.471 -23.136  0.00  0.00    -0.184 NA
ATOM     11  C   UNL d   1      32.974  18.697 -22.889  0.00  0.00     0.281 C 
ATOM     12  O   UNL d   1      32.860  18.535 -22.088  0.00  0.00    -0.265 OA
BRANCH  11  13
ATOM     13  C   UNL d   1      32.957  18.083 -23.441  0.00  0.00     0.063 C 
BRANCH  13  14
ATOM     14  C   UNL d   1      32.267  17.920 -23.856  0.00  0.00     0.006 C 
BRANCH  14  15
ATOM     15  C   UNL d   1      32.146  17.189 -24.203  0.00  0.00     0.011 A 
ATOM     16  C   UNL d   1      31.424  17.023 -24.577  0.00  0.00     0.058 A 
ATOM     17 CL   UNL d   1      30.825  17.605 -24.596  0.00  0.00    -0.082 Cl
ATOM     18  C   UNL d   1      31.299  16.273 -24.932  0.00  0.00     0.011 A 
ATOM     19  C   UNL d   1      31.879  15.700 -24.917  0.00  0.00     0.001 A 
ATOM     20  C   UNL d   1      32.601  15.863 -24.545  0.00  0.00     0.000 A 
ATOM     21  C   UNL d   1      32.727  16.605 -24.192  0.00  0.00     0.001 A 
ENDBRANCH  14  15
ENDBRANCH  13  14
ENDBRANCH  11  13
ENDBRANCH   1  10
BRANCH   2  22
ATOM     22  C   UNL d   1      33.241  21.221 -23.498  0.00  0.00     0.108 C 
BRANCH  22  23
ATOM     23  C   UNL d   1      32.582  21.565 -23.852  0.00  0.00     0.135 C 
BRANCH  23  24
ATOM     24  O   UNL d   1      32.623  21.834 -24.628  0.00  0.00    -0.325 OA
ATOM     25  C   UNL d   1      32.382  22.604 -24.821  0.00  0.00     0.182 C 
ENDBRANCH  23  24
ENDBRANCH  22  23
ENDBRANCH   2  22
BRANCH   8  26
ATOM     26  N   UNL d   1      33.127  22.071 -19.669  0.00  0.00    -0.208 NA
ATOM     27  C   UNL d   1      33.004  22.862 -19.506  0.00  0.00     0.279 C 
ATOM     28  O   UNL d   1      32.987  23.118 -18.721  0.00  0.00    -0.265 OA
ATOM     29  C   UNL d   1      32.897  23.411 -20.114  0.00  0.00     0.068 C 
ENDBRANCH   8  26
TORSDOF 8
ENDMDL
