MODEL 1
REMARK VINA RESULT:       9.9      0.000      0.000
REMARK  2 active torsions:
REMARK  status: ('A' for Active; 'I' for Inactive)
REMARK    1  A    between atoms: C_6  and  C_3 
REMARK    2  A    between atoms: C_9  and  C_6 
ROOT
ATOM      1  C   UNL d   1      13.499  11.779  -3.290  0.00  0.00     0.011 C 
ENDROOT
BRANCH   1   2
ATOM      2  C   UNL d   1      13.288  12.458  -3.732  0.00  0.00     0.092 A 
ATOM      3  C   UNL d   1      12.985  12.499  -4.469  0.00  0.00     0.288 A 
ATOM      4  N   UNL d   1      12.872  13.267  -4.662  0.00  0.00    -0.163 NA
ATOM      5  O   UNL d   1      12.812  11.813  -4.963  0.00  0.00    -0.265 OA
ATOM      6  C   UNL d   1      13.127  13.708  -3.993  0.00  0.00     0.313 A 
ATOM      7  S   UNL d   1      13.376  13.175  -3.443  0.00  0.00    -0.021 SA
ATOM      8  O   UNL d   1      13.115  14.550  -3.935  0.00  0.00    -0.258 OA
ENDBRANCH   1   2
BRANCH   1   9
ATOM      9  C   UNL d   1      13.654  11.786  -2.479  0.00  0.00     0.001 A 
ATOM     10  C   UNL d   1      13.067  11.780  -1.900  0.00  0.00     0.001 A 
ATOM     11  C   UNL d   1      13.259  11.787  -1.121  0.00  0.00     0.011 A 
ATOM     12  C   UNL d   1      14.070  11.802  -0.875  0.00  0.00     0.058 A 
ATOM     13  C   UNL d   1      14.658  11.808  -1.454  0.00  0.00     0.011 A 
ATOM     14 CL   UNL d   1      14.285  11.810  -0.077  0.00  0.00    -0.082 Cl
ATOM     15  C   UNL d   1      14.451  11.801  -2.269  0.00  0.00     0.001 A 
ENDBRANCH   1   9
TORSDOF 2
ENDMDL
MODEL 2
REMARK VINA RESULT:      10.4      2.667      3.489
REMARK  2 active torsions:
REMARK  status: ('A' for Active; 'I' for Inactive)
REMARK    1  A    between atoms: C_6  and  C_3 
REMARK    2  A    between atoms: C_9  and  C_6 
ROOT
ATOM      1  C   UNL d   1      13.319  11.782  -1.990  0.00  0.00     0.011 C 
ENDROOT
BRANCH   1   2
ATOM      2  C   UNL d   1      13.984  11.795  -1.481  0.00  0.00     0.092 A 
ATOM      3  C   UNL d   1      14.002  11.823  -0.684  0.00  0.00     0.288 A 
ATOM      4  N   UNL d   1      14.763  11.827  -0.440  0.00  0.00    -0.163 NA
ATOM      5  O   UNL d   1      13.300  11.845  -0.182  0.00  0.00    -0.265 OA
ATOM      6  C   UNL d   1      15.225  11.799  -1.143  0.00  0.00     0.313 A 
ATOM      7  S   UNL d   1      14.710  11.781  -1.760  0.00  0.00    -0.021 SA
ATOM      8  O   UNL d   1      16.069  11.793  -1.166  0.00  0.00    -0.258 OA
ENDBRANCH   1   2
BRANCH   1   9
ATOM      9  C   UNL d   1      13.292  12.158  -2.725  0.00  0.00     0.001 A 
ATOM     10  C   UNL d   1      13.683  12.865  -2.891  0.00  0.00     0.001 A 
ATOM     11  C   UNL d   1      13.632  13.200  -3.619  0.00  0.00     0.011 A 
ATOM     12  C   UNL d   1      13.176  12.834  -4.233  0.00  0.00     0.058 A 
ATOM     13  C   UNL d   1      12.785  12.127  -4.066  0.00  0.00     0.011 A 
ATOM     14 CL   UNL d   1      13.113  13.165  -4.988  0.00  0.00    -0.082 Cl
ATOM     15  C   UNL d   1      12.841  11.780  -3.302  0.00  0.00     0.001 A 
ENDBRANCH   1   9
TORSDOF 2
ENDMDL
