MODEL 1
REMARK VINA RESULT:      64.0      0.000      0.000
REMARK  6 active torsions:
REMARK  status: ('A' for Active; 'I' for Inactive)
REMARK       I    between atoms: C_3  and  N_1 
REMARK    1  A    between atoms: C_8  and  C_3 
REMARK    2  A    between atoms: S_4  and  N_9 
REMARK    3  A    between atoms: C_24  and  S_4 
REMARK    4  A    between atoms: C_10  and  C_5 
REMARK    5  A    between atoms: C_11  and  C_6 
REMARK    6  A    between atoms: N_9  and  C_23 
ROOT
ATOM      1  N   UNL d   1      13.920  13.171  -3.538  0.00  0.00    -0.193 N 
ATOM      2  N   UNL d   1      13.887  13.804  -4.092  0.00  0.00    -0.163 NA
ATOM      3  C   UNL d   1      13.750  12.381  -3.701  0.00  0.00     0.303 C 
ATOM      4  C   UNL d   1      14.146  13.460  -2.824  0.00  0.00     0.088 A 
ATOM      5  C   UNL d   1      14.100  14.488  -3.688  0.00  0.00     0.103 A 
ATOM      6  C   UNL d   1      14.264  14.285  -2.898  0.00  0.00     0.040 A 
ATOM      7  O   UNL d   1      13.804  11.819  -3.108  0.00  0.00    -0.263 OA
ENDROOT
BRANCH   5   8
ATOM      8  C   UNL d   1      14.153  15.250  -3.983  0.00  0.00     0.019 A 
ATOM      9  C   UNL d   1      14.151  15.889  -3.456  0.00  0.00     0.003 A 
ATOM     10  C   UNL d   1      14.203  16.649  -3.743  0.00  0.00     0.020 A 
ATOM     11  C   UNL d   1      14.257  16.787  -4.557  0.00  0.00     0.094 A 
ATOM     12  C   UNL d   1      14.258  16.150  -5.080  0.00  0.00     0.020 A 
ATOM     13  C   UNL d   1      14.206  15.380  -4.794  0.00  0.00     0.003 A 
BRANCH  11  14
ATOM     14  N   UNL d   1      14.310  17.558  -4.860  0.00  0.00    -0.158 NA
BRANCH  14  15
ATOM     15  S   UNL d   1      15.037  17.869  -5.053  0.00  0.00     0.286 S 
ATOM     16  O   UNL d   1      15.394  17.411  -4.458  0.00  0.00    -0.198 OA
ATOM     17  O   UNL d   1      15.783  18.195  -5.259  0.00  0.00    -0.198 OA
BRANCH  15  18
ATOM     18  C   UNL d   1      14.682  18.329  -5.649  0.00  0.00     0.117 C 
ATOM     19  C   UNL d   1      14.782  19.142  -5.663  0.00  0.00     0.014 C 
ENDBRANCH  15  18
ENDBRANCH  14  15
ENDBRANCH  11  14
ENDBRANCH   5   8
BRANCH   4  20
ATOM     20  C   UNL d   1      14.252  13.055  -2.132  0.00  0.00     0.018 A 
ATOM     21  C   UNL d   1      14.841  13.273  -1.596  0.00  0.00     0.002 A 
ATOM     22  C   UNL d   1      14.950  12.858  -0.886  0.00  0.00     0.000 A 
ATOM     23  C   UNL d   1      14.453  12.211  -0.715  0.00  0.00     0.000 A 
ATOM     24  C   UNL d   1      13.860  11.990  -1.251  0.00  0.00     0.000 A 
ATOM     25  C   UNL d   1      14.550  11.790  -0.014  0.00  0.00     0.000 C 
ATOM     26  C   UNL d   1      13.759  12.408  -1.955  0.00  0.00     0.002 A 
ENDBRANCH   4  20
BRANCH   3  27
ATOM     27  C   UNL d   1      13.524  12.163  -4.464  0.00  0.00     0.158 A 
ATOM     28  O   UNL d   1      14.028  12.116  -5.116  0.00  0.00    -0.300 OA
ATOM     29  C   UNL d   1      13.579  11.880  -5.762  0.00  0.00     0.123 A 
ATOM     30  C   UNL d   1      12.797  11.781  -5.509  0.00  0.00     0.029 A 
ATOM     31  C   UNL d   1      12.770  11.958  -4.707  0.00  0.00     0.032 A 
ENDBRANCH   3  27
TORSDOF 6
ENDMDL
