MODEL 1
REMARK VINA RESULT:      -7.2      0.000      0.000
REMARK  5 active torsions:
REMARK  status: ('A' for Active; 'I' for Inactive)
REMARK    1  A    between atoms: N_12  and  C_5 
REMARK    2  A    between atoms: C_21  and  N_9 
REMARK    3  A    between atoms: C_10  and  S_20 
REMARK    4  A    between atoms: S_20  and  C_26 
REMARK    5  A    between atoms: C_26  and  C_21 
ROOT
ATOM      1  C   UNL d   1      53.525  30.639  54.092  0.00  0.00     0.191 A 
ATOM      2  C   UNL d   1      53.210  31.050  53.456  0.00  0.00     0.173 A 
ATOM      3  N   UNL d   1      53.955  31.170  54.553  0.00  0.00    -0.042 NA
ATOM      4  N   UNL d   1      53.382  29.834  54.172  0.00  0.00    -0.240 N 
ATOM      5  C   UNL d   1      53.901  31.909  54.197  0.00  0.00     0.722 A 
ATOM      6  N   UNL d   1      52.607  29.846  52.978  0.00  0.00    -0.223 N 
ATOM      7  C   UNL d   1      52.922  29.435  53.614  0.00  0.00     0.343 A 
ATOM      8  C   UNL d   1      52.751  30.657  52.896  0.00  0.00     0.288 A 
ATOM      9  N   UNL d   1      53.441  31.840  53.515  0.00  0.00    -0.132 N 
ATOM     10  O   UNL d   1      52.780  28.617  53.700  0.00  0.00    -0.245 OA
ATOM     11  O   UNL d   1      52.432  31.072  52.253  0.00  0.00    -0.265 OA
ATOM     12  C   UNL d   1      53.697  29.424  54.808  0.00  0.00     0.105 C 
ATOM     13  C   UNL d   1      52.149  29.451  52.421  0.00  0.00     0.107 C 
ENDROOT
BRANCH   9  14
ATOM     14  C   UNL d   1      53.248  32.449  52.994  0.00  0.00     0.105 C 
BRANCH  14  15
ATOM     15  C   UNL d   1      52.508  32.823  53.042  0.00  0.00     0.057 C 
BRANCH  15  16
ATOM     16  S   UNL d   1      52.352  33.486  52.563  0.00  0.00    -0.059 SA
BRANCH  16  17
ATOM     17  C   UNL d   1      51.599  33.844  52.590  0.00  0.00     0.141 A 
ATOM     18  N   UNL d   1      51.138  33.875  51.917  0.00  0.00    -0.232 NA
ATOM     19  C   UNL d   1      50.439  34.250  52.102  0.00  0.00     0.088 A 
ATOM     20  C   UNL d   1      49.777  34.432  51.639  0.00  0.00     0.020 A 
ATOM     21  C   UNL d   1      50.456  34.456  52.887  0.00  0.00     0.049 A 
ATOM     22  C   UNL d   1      49.131  34.825  51.978  0.00  0.00     0.002 A 
ATOM     23  C   UNL d   1      49.152  35.029  52.763  0.00  0.00     0.001 A 
ATOM     24  C   UNL d   1      49.817  34.845  53.224  0.00  0.00     0.008 A 
ATOM     25  S   UNL d   1      51.192  34.199  53.200  0.00  0.00    -0.060 SA
ENDBRANCH  16  17
ENDBRANCH  15  16
ENDBRANCH  14  15
ENDBRANCH   9  14
BRANCH   5  26
ATOM     26  N   UNL d   1      54.265  32.578  54.506  0.00  0.00    -0.139 N 
ATOM     27  C   UNL d   1      54.891  32.929  54.116  0.00  0.00     0.098 A 
ATOM     28  C   UNL d   1      55.260  33.607  54.430  0.00  0.00     0.020 A 
ATOM     29  C   UNL d   1      54.982  33.923  55.148  0.00  0.00     0.003 A 
ATOM     30  C   UNL d   1      54.354  33.569  55.536  0.00  0.00     0.020 A 
ATOM     31  C   UNL d   1      55.347  34.595  55.459  0.00  0.00     0.000 C 
ATOM     32  C   UNL d   1      53.997  32.897  55.216  0.00  0.00     0.098 A 
ENDBRANCH   5  26
TORSDOF 5
ENDMDL
MODEL 2
REMARK VINA RESULT:      -5.5      1.787      5.049
REMARK  5 active torsions:
REMARK  status: ('A' for Active; 'I' for Inactive)
REMARK    1  A    between atoms: N_12  and  C_5 
REMARK    2  A    between atoms: C_21  and  N_9 
REMARK    3  A    between atoms: C_10  and  S_20 
REMARK    4  A    between atoms: S_20  and  C_26 
REMARK    5  A    between atoms: C_26  and  C_21 
ROOT
ATOM      1  C   UNL d   1      52.977  34.656  54.105  0.00  0.00     0.191 A 
ATOM      2  C   UNL d   1      53.229  33.918  53.852  0.00  0.00     0.173 A 
ATOM      3  N   UNL d   1      52.276  34.837  53.711  0.00  0.00    -0.042 NA
ATOM      4  N   UNL d   1      53.416  35.071  54.662  0.00  0.00    -0.240 N 
ATOM      5  C   UNL d   1      52.099  34.206  53.215  0.00  0.00     0.722 A 
ATOM      6  N   UNL d   1      54.364  34.010  54.716  0.00  0.00    -0.223 N 
ATOM      7  C   UNL d   1      54.111  34.748  54.969  0.00  0.00     0.343 A 
ATOM      8  C   UNL d   1      53.922  33.592  54.155  0.00  0.00     0.288 A 
ATOM      9  N   UNL d   1      52.688  33.633  53.298  0.00  0.00    -0.132 N 
ATOM     10  O   UNL d   1      54.553  35.174  55.535  0.00  0.00    -0.245 OA
ATOM     11  O   UNL d   1      54.177  32.845  53.899  0.00  0.00    -0.265 OA
ATOM     12  C   UNL d   1      53.163  35.809  54.916  0.00  0.00     0.105 C 
ATOM     13  C   UNL d   1      55.055  33.687  55.020  0.00  0.00     0.107 C 
ENDROOT
BRANCH   9  14
ATOM     14  C   UNL d   1      52.725  32.912  52.901  0.00  0.00     0.105 C 
BRANCH  14  15
ATOM     15  C   UNL d   1      52.586  32.202  53.309  0.00  0.00     0.057 C 
BRANCH  15  16
ATOM     16  S   UNL d   1      52.535  31.488  52.883  0.00  0.00    -0.059 SA
BRANCH  16  17
ATOM     17  C   UNL d   1      52.781  30.777  53.244  0.00  0.00     0.141 A 
ATOM     18  N   UNL d   1      52.594  30.632  54.027  0.00  0.00    -0.232 NA
ATOM     19  C   UNL d   1      52.899  29.906  54.232  0.00  0.00     0.088 A 
ATOM     20  C   UNL d   1      52.877  29.486  54.946  0.00  0.00     0.020 A 
ATOM     21  C   UNL d   1      53.277  29.591  53.586  0.00  0.00     0.049 A 
ATOM     22  C   UNL d   1      53.242  28.743  54.999  0.00  0.00     0.002 A 
ATOM     23  C   UNL d   1      53.618  28.432  54.351  0.00  0.00     0.001 A 
ATOM     24  C   UNL d   1      53.638  28.857  53.638  0.00  0.00     0.008 A 
ATOM     25  S   UNL d   1      53.203  30.143  52.957  0.00  0.00    -0.060 SA
ENDBRANCH  16  17
ENDBRANCH  15  16
ENDBRANCH  14  15
ENDBRANCH   9  14
BRANCH   5  26
ATOM     26  N   UNL d   1      51.434  34.194  52.733  0.00  0.00    -0.139 N 
ATOM     27  C   UNL d   1      51.508  34.249  51.921  0.00  0.00     0.098 A 
ATOM     28  C   UNL d   1      50.833  34.237  51.432  0.00  0.00     0.020 A 
ATOM     29  C   UNL d   1      50.081  34.168  51.781  0.00  0.00     0.003 A 
ATOM     30  C   UNL d   1      50.011  34.112  52.595  0.00  0.00     0.020 A 
ATOM     31  C   UNL d   1      49.413  34.155  51.297  0.00  0.00     0.000 C 
ATOM     32  C   UNL d   1      50.687  34.126  53.070  0.00  0.00     0.098 A 
ENDBRANCH   5  26
TORSDOF 5
ENDMDL
MODEL 3
REMARK VINA RESULT:      -5.1      1.558      4.470
REMARK  5 active torsions:
REMARK  status: ('A' for Active; 'I' for Inactive)
REMARK    1  A    between atoms: N_12  and  C_5 
REMARK    2  A    between atoms: C_21  and  N_9 
REMARK    3  A    between atoms: C_10  and  S_20 
REMARK    4  A    between atoms: S_20  and  C_26 
REMARK    5  A    between atoms: C_26  and  C_21 
ROOT
ATOM      1  C   UNL d   1      51.416  34.548  53.472  0.00  0.00     0.191 A 
ATOM      2  C   UNL d   1      51.600  33.930  52.966  0.00  0.00     0.173 A 
ATOM      3  N   UNL d   1      52.039  34.640  54.003  0.00  0.00    -0.042 NA
ATOM      4  N   UNL d   1      50.704  34.950  53.386  0.00  0.00    -0.240 N 
ATOM      5  C   UNL d   1      52.607  34.075  53.820  0.00  0.00     0.722 A 
ATOM      6  N   UNL d   1      50.358  34.116  52.285  0.00  0.00    -0.223 N 
ATOM      7  C   UNL d   1      50.173  34.734  52.791  0.00  0.00     0.343 A 
ATOM      8  C   UNL d   1      51.074  33.711  52.371  0.00  0.00     0.288 A 
ATOM      9  N   UNL d   1      52.340  33.632  53.177  0.00  0.00    -0.132 N 
ATOM     10  O   UNL d   1      49.452  35.146  52.709  0.00  0.00    -0.245 OA
ATOM     11  O   UNL d   1      51.261  33.086  51.859  0.00  0.00    -0.265 OA
ATOM     12  C   UNL d   1      50.519  35.568  53.892  0.00  0.00     0.105 C 
ATOM     13  C   UNL d   1      49.831  33.899  51.693  0.00  0.00     0.107 C 
ENDROOT
BRANCH   9  14
ATOM     14  C   UNL d   1      52.740  33.008  52.816  0.00  0.00     0.105 C 
BRANCH  14  15
ATOM     15  C   UNL d   1      52.550  32.222  53.007  0.00  0.00     0.057 C 
BRANCH  15  16
ATOM     16  S   UNL d   1      53.007  31.602  52.692  0.00  0.00    -0.059 SA
BRANCH  16  17
ATOM     17  C   UNL d   1      53.025  30.865  53.085  0.00  0.00     0.141 A 
ATOM     18  N   UNL d   1      53.616  30.706  53.626  0.00  0.00    -0.232 NA
ATOM     19  C   UNL d   1      53.498  29.956  53.920  0.00  0.00     0.088 A 
ATOM     20  C   UNL d   1      53.924  29.515  54.477  0.00  0.00     0.020 A 
ATOM     21  C   UNL d   1      52.838  29.641  53.569  0.00  0.00     0.049 A 
ATOM     22  C   UNL d   1      53.673  28.750  54.676  0.00  0.00     0.002 A 
ATOM     23  C   UNL d   1      53.013  28.438  54.323  0.00  0.00     0.001 A 
ATOM     24  C   UNL d   1      52.589  28.884  53.765  0.00  0.00     0.008 A 
ATOM     25  S   UNL d   1      52.535  30.216  53.038  0.00  0.00    -0.060 SA
ENDBRANCH  16  17
ENDBRANCH  15  16
ENDBRANCH  14  15
ENDBRANCH   9  14
BRANCH   5  26
ATOM     26  N   UNL d   1      53.310  34.002  54.239  0.00  0.00    -0.139 N 
ATOM     27  C   UNL d   1      54.020  34.228  53.902  0.00  0.00     0.098 A 
ATOM     28  C   UNL d   1      54.734  34.154  54.326  0.00  0.00     0.020 A 
ATOM     29  C   UNL d   1      54.715  33.847  55.099  0.00  0.00     0.003 A 
ATOM     30  C   UNL d   1      54.002  33.622  55.434  0.00  0.00     0.020 A 
ATOM     31  C   UNL d   1      55.421  33.774  55.520  0.00  0.00     0.000 C 
ATOM     32  C   UNL d   1      53.301  33.700  55.004  0.00  0.00     0.098 A 
ENDBRANCH   5  26
TORSDOF 5
ENDMDL
MODEL 4
REMARK VINA RESULT:      -5.1      1.651      3.447
REMARK  5 active torsions:
REMARK  status: ('A' for Active; 'I' for Inactive)
REMARK    1  A    between atoms: N_12  and  C_5 
REMARK    2  A    between atoms: C_21  and  N_9 
REMARK    3  A    between atoms: C_10  and  S_20 
REMARK    4  A    between atoms: S_20  and  C_26 
REMARK    5  A    between atoms: C_26  and  C_21 
ROOT
ATOM      1  C   UNL d   1      53.759  33.268  54.516  0.00  0.00     0.191 A 
ATOM      2  C   UNL d   1      53.324  33.648  53.935  0.00  0.00     0.173 A 
ATOM      3  N   UNL d   1      53.691  32.455  54.398  0.00  0.00    -0.042 NA
ATOM      4  N   UNL d   1      54.162  33.708  55.081  0.00  0.00    -0.240 N 
ATOM      5  C   UNL d   1      53.212  32.338  53.740  0.00  0.00     0.722 A 
ATOM      6  N   UNL d   1      53.696  34.914  54.483  0.00  0.00    -0.223 N 
ATOM      7  C   UNL d   1      54.131  34.534  55.065  0.00  0.00     0.343 A 
ATOM      8  C   UNL d   1      53.289  34.471  53.914  0.00  0.00     0.288 A 
ATOM      9  N   UNL d   1      52.981  33.075  53.449  0.00  0.00    -0.132 N 
ATOM     10  O   UNL d   1      54.543  34.976  55.641  0.00  0.00    -0.245 OA
ATOM     11  O   UNL d   1      52.849  34.855  53.326  0.00  0.00    -0.265 OA
ATOM     12  C   UNL d   1      54.597  33.328  55.662  0.00  0.00     0.105 C 
ATOM     13  C   UNL d   1      53.664  35.735  54.466  0.00  0.00     0.107 C 
ENDROOT
BRANCH   9  14
ATOM     14  C   UNL d   1      52.498  33.211  52.795  0.00  0.00     0.105 C 
BRANCH  14  15
ATOM     15  C   UNL d   1      51.732  33.514  52.896  0.00  0.00     0.057 C 
BRANCH  15  16
ATOM     16  S   UNL d   1      51.222  33.566  52.239  0.00  0.00    -0.059 SA
BRANCH  16  17
ATOM     17  C   UNL d   1      50.521  34.015  52.299  0.00  0.00     0.141 A 
ATOM     18  N   UNL d   1      50.049  34.123  51.641  0.00  0.00    -0.232 NA
ATOM     19  C   UNL d   1      49.409  34.578  51.857  0.00  0.00     0.088 A 
ATOM     20  C   UNL d   1      48.763  34.855  51.419  0.00  0.00     0.020 A 
ATOM     21  C   UNL d   1      49.473  34.757  52.646  0.00  0.00     0.049 A 
ATOM     22  C   UNL d   1      48.181  35.316  51.788  0.00  0.00     0.002 A 
ATOM     23  C   UNL d   1      48.248  35.493  52.577  0.00  0.00     0.001 A 
ATOM     24  C   UNL d   1      48.898  35.213  53.012  0.00  0.00     0.008 A 
ATOM     25  S   UNL d   1      50.179  34.400  52.930  0.00  0.00    -0.060 SA
ENDBRANCH  16  17
ENDBRANCH  15  16
ENDBRANCH  14  15
ENDBRANCH   9  14
BRANCH   5  26
ATOM     26  N   UNL d   1      53.022  31.591  53.458  0.00  0.00    -0.139 N 
ATOM     27  C   UNL d   1      52.373  31.188  53.749  0.00  0.00     0.098 A 
ATOM     28  C   UNL d   1      52.180  30.430  53.462  0.00  0.00     0.020 A 
ATOM     29  C   UNL d   1      52.658  30.086  52.873  0.00  0.00     0.003 A 
ATOM     30  C   UNL d   1      53.308  30.493  52.584  0.00  0.00     0.020 A 
ATOM     31  C   UNL d   1      52.467  29.336  52.589  0.00  0.00     0.000 C 
ATOM     32  C   UNL d   1      53.489  31.244  52.876  0.00  0.00     0.098 A 
ENDBRANCH   5  26
TORSDOF 5
ENDMDL
