MODEL 1
REMARK VINA RESULT:      34.0      0.000      0.000
REMARK  3 active torsions:
REMARK  status: ('A' for Active; 'I' for Inactive)
REMARK    1  A    between atoms: C_4  and  C_1 
REMARK       I    between atoms: N_7  and  C_4 
REMARK    2  A    between atoms: C_14  and  N_7 
REMARK    3  A    between atoms: C_9  and  C_10 
ROOT
ATOM      1  C   UNL d   1     -51.577  24.957  33.612  0.00  0.00     0.281 C 
ATOM      2  N   UNL d   1     -51.686  25.713  33.330  0.00  0.00    -0.208 NA
ATOM      3  O   UNL d   1     -50.878  24.752  34.003  0.00  0.00    -0.265 OA
ENDROOT
BRANCH   2   4
ATOM      4  C   UNL d   1     -51.098  26.273  33.434  0.00  0.00     0.085 A 
ATOM      5  C   UNL d   1     -51.284  27.086  33.310  0.00  0.00     0.019 A 
ATOM      6  C   UNL d   1     -50.709  27.659  33.410  0.00  0.00     0.005 A 
ATOM      7  C   UNL d   1     -49.946  27.451  33.632  0.00  0.00     0.039 A 
ATOM      8  C   UNL d   1     -49.768  26.647  33.753  0.00  0.00     0.005 A 
ATOM      9  C   UNL d   1     -50.341  26.071  33.654  0.00  0.00     0.019 A 
BRANCH   7  10
ATOM     10  C   UNL d   1     -49.352  28.042  33.735  0.00  0.00     0.196 C 
ATOM     11  O   UNL d   1     -49.416  28.766  33.379  0.00  0.00    -0.287 OA
ATOM     12  C   UNL d   1     -48.679  27.881  34.216  0.00  0.00     0.045 C 
ENDBRANCH   7  10
ENDBRANCH   2   4
BRANCH   1  13
ATOM     13  C   UNL d   1     -52.158  24.369  33.519  0.00  0.00     0.076 A 
ATOM     14  C   UNL d   1     -52.045  23.583  33.382  0.00  0.00     0.092 A 
ATOM     15  S   UNL d   1     -52.785  23.188  33.325  0.00  0.00    -0.064 SA
ATOM     16 CL   UNL d   1     -51.282  23.206  33.307  0.00  0.00    -0.075 Cl
ATOM     17  C   UNL d   1     -53.340  23.729  33.426  0.00  0.00     0.088 A 
ATOM     18  C   UNL d   1     -52.975  24.475  33.549  0.00  0.00     0.024 A 
ATOM     19 CL   UNL d   1     -54.173  23.579  33.412  0.00  0.00    -0.075 Cl
ENDBRANCH   1  13
TORSDOF 3
ENDMDL
