MODEL 1
REMARK VINA RESULT:      63.3      0.000      0.000
REMARK  4 active torsions:
REMARK  status: ('A' for Active; 'I' for Inactive)
REMARK    1  A    between atoms: N_2  and  S_1 
REMARK    2  A    between atoms: C_6  and  S_1 
REMARK    3  A    between atoms: C_3  and  C_11 
REMARK       I    between atoms: N_4  and  C_3 
REMARK    4  A    between atoms: C_17  and  N_5 
ROOT
ATOM      1  C   UNL d   1      45.502 -17.165  38.645  0.00  0.00     0.104 A 
ATOM      2  C   UNL d   1      46.101 -18.393  39.616  0.00  0.00     0.057 A 
ATOM      3  C   UNL d   1      45.049 -17.869  38.781  0.00  0.00     0.013 A 
ATOM      4  C   UNL d   1      46.231 -17.118  39.003  0.00  0.00     0.013 A 
ATOM      5  C   UNL d   1      45.337 -18.471  39.255  0.00  0.00     0.005 A 
ATOM      6  C   UNL d   1      46.519 -17.726  39.480  0.00  0.00     0.005 A 
ENDROOT
BRANCH   2   7
ATOM      7  C   UNL d   1      46.367 -18.984  40.071  0.00  0.00     0.265 C 
ATOM      8  N   UNL d   1      46.353 -18.868  40.870  0.00  0.00    -0.269 N 
ATOM      9  C   UNL d   1      46.626 -19.475  41.341  0.00  0.00     0.102 A 
ATOM     10  C   UNL d   1      46.079 -18.172  41.226  0.00  0.00     0.102 A 
ATOM     11  C   UNL d   1      46.633 -19.406  42.166  0.00  0.00     0.100 A 
ATOM     12  N   UNL d   1      46.361 -18.716  42.501  0.00  0.00    -0.301 N 
ATOM     13  C   UNL d   1      46.085 -18.100  42.058  0.00  0.00     0.100 A 
ATOM     14  O   UNL d   1      46.647 -19.691  39.743  0.00  0.00    -0.267 OA
BRANCH  12  15
ATOM     15  C   UNL d   1      46.368 -18.649  43.321  0.00  0.00     0.064 A 
ATOM     16  C   UNL d   1      46.640 -19.249  43.811  0.00  0.00     0.018 A 
ATOM     17  C   UNL d   1      46.647 -19.183  44.608  0.00  0.00     0.002 A 
ATOM     18  C   UNL d   1      46.363 -18.469  44.955  0.00  0.00     0.000 A 
ATOM     19  C   UNL d   1      46.103 -17.894  44.475  0.00  0.00     0.002 A 
ATOM     20  C   UNL d   1      46.095 -17.961  43.656  0.00  0.00     0.018 A 
ENDBRANCH  12  15
ENDBRANCH   2   7
BRANCH   1  21
ATOM     21  S   UNL d   1      45.216 -16.575  38.179  0.00  0.00     0.271 S 
ATOM     22  O   UNL d   1      44.462 -16.829  38.309  0.00  0.00    -0.200 OA
ATOM     23  O   UNL d   1      46.014 -16.300  38.037  0.00  0.00    -0.200 OA
BRANCH  21  24
ATOM     24  N   UNL d   1      44.919 -15.963  37.697  0.00  0.00    -0.229 N 
ATOM     25  C   UNL d   1      44.176 -16.036  37.401  0.00  0.00     0.092 A 
ATOM     26  C   UNL d   1      43.868 -15.434  36.919  0.00  0.00     0.018 A 
ATOM     27  C   UNL d   1      43.108 -15.460  36.588  0.00  0.00     0.002 C 
ATOM     28  C   UNL d   1      44.336 -14.762  36.749  0.00  0.00     0.003 A 
ATOM     29  C   UNL d   1      45.111 -14.691  37.060  0.00  0.00     0.018 A 
ATOM     30  C   UNL d   1      45.392 -15.286  37.526  0.00  0.00     0.092 A 
ATOM     31  C   UNL d   1      45.591 -14.029  36.902  0.00  0.00     0.002 C 
ENDBRANCH  21  24
ENDBRANCH   1  21
TORSDOF 4
ENDMDL
