MODEL 1
REMARK VINA RESULT:       4.8      0.000      0.000
REMARK  7 active torsions:
REMARK  status: ('A' for Active; 'I' for Inactive)
REMARK    1  A    between atoms: C_5  and  C_1 
REMARK    2  A    between atoms: N_3  and  C_2 
REMARK    3  A    between atoms: C_14  and  C_5 
REMARK    4  A    between atoms: C_10  and  C_6 
REMARK    5  A    between atoms: O_19  and  C_10 
REMARK    6  A    between atoms: O_22  and  C_18 
REMARK    7  A    between atoms: C_26  and  O_19 
ROOT
ATOM      1  C   UNL d   1      31.543  18.191 -24.759  0.00  0.00     0.074 A 
ATOM      2  C   UNL d   1      31.203  17.432 -24.670  0.00  0.00     0.070 A 
ATOM      3  C   UNL d   1      30.388  17.328 -24.758  0.00  0.00     0.036 A 
ATOM      4  C   UNL d   1      31.060  18.837 -24.936  0.00  0.00     0.103 A 
ATOM      5  N   UNL d   1      30.236  18.726 -25.024  0.00  0.00    -0.244 NA
ATOM      6  C   UNL d   1      29.906  17.975 -24.935  0.00  0.00     0.083 A 
ATOM      7  C   UNL d   1      30.058  16.577 -24.668  0.00  0.00     0.027 A 
ATOM      8  C   UNL d   1      29.091  17.872 -25.023  0.00  0.00     0.021 A 
ATOM      9  C   UNL d   1      29.244  16.474 -24.756  0.00  0.00     0.094 A 
ATOM     10  C   UNL d   1      28.761  17.121 -24.933  0.00  0.00     0.026 A 
ENDROOT
BRANCH   2  11
ATOM     11  N   UNL d   1      31.688  16.781 -24.492  0.00  0.00    -0.303 N 
ATOM     12  C   UNL d   1      31.772  16.530 -23.711  0.00  0.00     0.086 A 
ATOM     13  C   UNL d   1      32.260  15.876 -23.532  0.00  0.00     0.081 A 
ATOM     14  C   UNL d   1      32.659  15.481 -24.136  0.00  0.00     0.008 A 
ATOM     15  C   UNL d   1      32.576  15.733 -24.917  0.00  0.00     0.019 A 
ATOM     16  C   UNL d   1      32.088  16.386 -25.096  0.00  0.00     0.080 A 
BRANCH  13  17
ATOM     17  C   UNL d   1      32.343  15.623 -22.738  0.00  0.00     0.302 C 
ATOM     18  O   UNL d   1      33.109  15.546 -22.415  0.00  0.00    -0.259 OA
BRANCH  17  19
ATOM     19  O   UNL d   1      31.674  15.453 -22.286  0.00  0.00    -0.271 OA
BRANCH  19  20
ATOM     20  C   UNL d   1      31.707  15.515 -21.465  0.00  0.00     0.126 C 
ATOM     21  C   UNL d   1      31.013  15.470 -21.021  0.00  0.00     0.029 C 
ENDBRANCH  19  20
ENDBRANCH  17  19
ENDBRANCH  13  17
ENDBRANCH   2  11
BRANCH   1  22
ATOM     22  C   UNL d   1      32.357  18.294 -24.671  0.00  0.00     0.198 C 
ATOM     23  O   UNL d   1      32.890  17.732 -24.958  0.00  0.00    -0.286 OA
BRANCH  22  24
ATOM     24  C   UNL d   1      32.646  18.966 -24.292  0.00  0.00     0.039 A 
ATOM     25  C   UNL d   1      32.893  19.616 -24.739  0.00  0.00     0.003 A 
ATOM     26  C   UNL d   1      33.186  20.300 -24.360  0.00  0.00     0.000 A 
ATOM     27  C   UNL d   1      33.224  20.314 -23.535  0.00  0.00     0.000 A 
ATOM     28  C   UNL d   1      32.977  19.666 -23.088  0.00  0.00     0.000 A 
ATOM     29  C   UNL d   1      32.688  18.991 -23.467  0.00  0.00     0.003 A 
ENDBRANCH  22  24
ENDBRANCH   1  22
BRANCH   9  30
ATOM     30  O   UNL d   1      28.916  15.720 -24.666  0.00  0.00    -0.328 OA
ATOM     31  C   UNL d   1      28.122  15.647 -24.448  0.00  0.00     0.181 C 
ENDBRANCH   9  30
TORSDOF 7
ENDMDL
MODEL 2
REMARK VINA RESULT:       5.6      2.627      5.088
REMARK  7 active torsions:
REMARK  status: ('A' for Active; 'I' for Inactive)
REMARK    1  A    between atoms: C_5  and  C_1 
REMARK    2  A    between atoms: N_3  and  C_2 
REMARK    3  A    between atoms: C_14  and  C_5 
REMARK    4  A    between atoms: C_10  and  C_6 
REMARK    5  A    between atoms: O_19  and  C_10 
REMARK    6  A    between atoms: O_22  and  C_18 
REMARK    7  A    between atoms: C_26  and  O_19 
ROOT
ATOM      1  C   UNL d   1      32.822  19.224 -23.740  0.00  0.00     0.074 A 
ATOM      2  C   UNL d   1      32.901  19.969 -23.367  0.00  0.00     0.070 A 
ATOM      3  C   UNL d   1      32.993  20.653 -23.819  0.00  0.00     0.036 A 
ATOM      4  C   UNL d   1      32.836  19.177 -24.565  0.00  0.00     0.103 A 
ATOM      5  N   UNL d   1      32.929  19.874 -25.018  0.00  0.00    -0.244 NA
ATOM      6  C   UNL d   1      33.007  20.606 -24.643  0.00  0.00     0.083 A 
ATOM      7  C   UNL d   1      33.071  21.385 -23.445  0.00  0.00     0.027 A 
ATOM      8  C   UNL d   1      33.098  21.290 -25.096  0.00  0.00     0.021 A 
ATOM      9  C   UNL d   1      33.162  22.069 -23.897  0.00  0.00     0.094 A 
ATOM     10  C   UNL d   1      33.176  22.022 -24.722  0.00  0.00     0.026 A 
ENDROOT
BRANCH   2  11
ATOM     11  N   UNL d   1      32.887  20.016 -22.537  0.00  0.00    -0.303 N 
ATOM     12  C   UNL d   1      32.521  20.655 -22.166  0.00  0.00     0.086 A 
ATOM     13  C   UNL d   1      32.507  20.703 -21.333  0.00  0.00     0.081 A 
ATOM     14  C   UNL d   1      32.859  20.111 -20.879  0.00  0.00     0.008 A 
ATOM     15  C   UNL d   1      33.226  19.472 -21.250  0.00  0.00     0.019 A 
ATOM     16  C   UNL d   1      33.240  19.425 -22.083  0.00  0.00     0.080 A 
BRANCH  13  17
ATOM     17  C   UNL d   1      32.134  21.353 -20.958  0.00  0.00     0.302 C 
ATOM     18  O   UNL d   1      31.320  21.484 -21.090  0.00  0.00    -0.259 OA
BRANCH  17  19
ATOM     19  O   UNL d   1      32.569  21.853 -20.468  0.00  0.00    -0.271 OA
BRANCH  19  20
ATOM     20  C   UNL d   1      32.181  22.328 -19.916  0.00  0.00     0.126 C 
ATOM     21  C   UNL d   1      32.024  23.118 -20.092  0.00  0.00     0.029 C 
ENDBRANCH  19  20
ENDBRANCH  17  19
ENDBRANCH  13  17
ENDBRANCH   2  11
BRANCH   1  22
ATOM     22  C   UNL d   1      32.731  18.540 -23.288  0.00  0.00     0.198 C 
ATOM     23  O   UNL d   1      33.218  18.393 -22.637  0.00  0.00    -0.286 OA
BRANCH  22  24
ATOM     24  C   UNL d   1      32.146  17.994 -23.486  0.00  0.00     0.039 A 
ATOM     25  C   UNL d   1      31.460  18.249 -23.870  0.00  0.00     0.003 A 
ATOM     26  C   UNL d   1      30.863  17.700 -24.073  0.00  0.00     0.000 A 
ATOM     27  C   UNL d   1      30.972  16.903 -23.883  0.00  0.00     0.000 A 
ATOM     28  C   UNL d   1      31.657  16.649 -23.500  0.00  0.00     0.000 A 
ATOM     29  C   UNL d   1      32.244  17.195 -23.301  0.00  0.00     0.003 A 
ENDBRANCH  22  24
ENDBRANCH   1  22
BRANCH   9  30
ATOM     30  O   UNL d   1      33.240  22.801 -23.519  0.00  0.00    -0.328 OA
ATOM     31  C   UNL d   1      33.008  23.488 -23.916  0.00  0.00     0.181 C 
ENDBRANCH   9  30
TORSDOF 7
ENDMDL
MODEL 3
REMARK VINA RESULT:       5.8      1.066      3.470
REMARK  7 active torsions:
REMARK  status: ('A' for Active; 'I' for Inactive)
REMARK    1  A    between atoms: C_5  and  C_1 
REMARK    2  A    between atoms: N_3  and  C_2 
REMARK    3  A    between atoms: C_14  and  C_5 
REMARK    4  A    between atoms: C_10  and  C_6 
REMARK    5  A    between atoms: O_19  and  C_10 
REMARK    6  A    between atoms: O_22  and  C_18 
REMARK    7  A    between atoms: C_26  and  O_19 
ROOT
ATOM      1  C   UNL d   1      29.692  16.998 -24.497  0.00  0.00     0.074 A 
ATOM      2  C   UNL d   1      30.496  17.212 -24.586  0.00  0.00     0.070 A 
ATOM      3  C   UNL d   1      30.702  17.993 -24.753  0.00  0.00     0.036 A 
ATOM      4  C   UNL d   1      29.104  17.573 -24.578  0.00  0.00     0.103 A 
ATOM      5  N   UNL d   1      29.320  18.364 -24.748  0.00  0.00    -0.244 NA
ATOM      6  C   UNL d   1      30.115  18.569 -24.834  0.00  0.00     0.083 A 
ATOM      7  C   UNL d   1      31.497  18.198 -24.839  0.00  0.00     0.027 A 
ATOM      8  C   UNL d   1      30.321  19.350 -25.001  0.00  0.00     0.021 A 
ATOM      9  C   UNL d   1      31.703  18.979 -25.007  0.00  0.00     0.094 A 
ATOM     10  C   UNL d   1      31.116  19.555 -25.087  0.00  0.00     0.026 A 
ENDROOT
BRANCH   2  11
ATOM     11  N   UNL d   1      31.086  16.633 -24.504  0.00  0.00    -0.303 N 
ATOM     12  C   UNL d   1      31.563  16.621 -23.831  0.00  0.00     0.086 A 
ATOM     13  C   UNL d   1      32.156  16.039 -23.749  0.00  0.00     0.081 A 
ATOM     14  C   UNL d   1      32.267  15.476 -24.341  0.00  0.00     0.008 A 
ATOM     15  C   UNL d   1      31.791  15.488 -25.015  0.00  0.00     0.019 A 
ATOM     16  C   UNL d   1      31.197  16.070 -25.096  0.00  0.00     0.080 A 
BRANCH  13  17
ATOM     17  C   UNL d   1      32.638  16.029 -23.065  0.00  0.00     0.302 C 
ATOM     18  O   UNL d   1      33.239  15.453 -23.001  0.00  0.00    -0.259 OA
BRANCH  17  19
ATOM     19  O   UNL d   1      32.517  16.582 -22.465  0.00  0.00    -0.271 OA
BRANCH  19  20
ATOM     20  C   UNL d   1      33.161  16.972 -22.129  0.00  0.00     0.126 C 
ATOM     21  C   UNL d   1      33.173  17.796 -22.097  0.00  0.00     0.029 C 
ENDBRANCH  19  20
ENDBRANCH  17  19
ENDBRANCH  13  17
ENDBRANCH   2  11
BRANCH   1  22
ATOM     22  C   UNL d   1      29.485  16.217 -24.330  0.00  0.00     0.198 C 
ATOM     23  O   UNL d   1      29.780  15.593 -24.784  0.00  0.00    -0.286 OA
BRANCH  22  24
ATOM     24  C   UNL d   1      28.978  16.053 -23.700  0.00  0.00     0.039 A 
ATOM     25  C   UNL d   1      28.162  16.031 -23.826  0.00  0.00     0.003 A 
ATOM     26  C   UNL d   1      27.643  15.866 -23.192  0.00  0.00     0.000 A 
ATOM     27  C   UNL d   1      27.961  15.726 -22.443  0.00  0.00     0.000 A 
ATOM     28  C   UNL d   1      28.776  15.749 -22.317  0.00  0.00     0.000 A 
ATOM     29  C   UNL d   1      29.285  15.912 -22.946  0.00  0.00     0.003 A 
ENDBRANCH  22  24
ENDBRANCH   1  22
BRANCH   9  30
ATOM     30  O   UNL d   1      32.501  19.181 -25.092  0.00  0.00    -0.328 OA
ATOM     31  C   UNL d   1      32.758  19.928 -24.847  0.00  0.00     0.181 C 
ENDBRANCH   9  30
TORSDOF 7
ENDMDL
