MODEL 1
REMARK VINA RESULT:      23.3      0.000      0.000
REMARK  5 active torsions:
REMARK  status: ('A' for Active; 'I' for Inactive)
REMARK    1  A    between atoms: C_2  and  S_1 
REMARK    2  A    between atoms: N_3  and  S_1 
REMARK    3  A    between atoms: C_4  and  N_3 
REMARK    4  A    between atoms: O_16  and  C_9 
REMARK    5  A    between atoms: O_17  and  C_14 
ROOT
ATOM      1  C   UNL d   1      46.308 -18.949  43.772  0.00  0.00     0.118 A 
ATOM      2  C   UNL d   1      46.388 -18.142  43.622  0.00  0.00     0.046 A 
ATOM      3  C   UNL d   1      45.897 -19.206  44.436  0.00  0.00     0.113 A 
ATOM      4  C   UNL d   1      45.562 -18.656  44.955  0.00  0.00     0.028 A 
ATOM      5  C   UNL d   1      46.056 -17.592  44.136  0.00  0.00     0.096 A 
ATOM      6  C   UNL d   1      45.642 -17.848  44.805  0.00  0.00     0.026 A 
ENDROOT
BRANCH   1   7
ATOM      7  N   UNL d   1      46.644 -19.513  43.253  0.00  0.00    -0.156 NA
BRANCH   7   8
ATOM      8  S   UNL d   1      46.626 -19.383  42.426  0.00  0.00     0.291 S 
ATOM      9  O   UNL d   1      46.615 -20.199  42.306  0.00  0.00    -0.198 OA
ATOM     10  O   UNL d   1      46.636 -18.568  42.554  0.00  0.00    -0.198 OA
BRANCH   8  11
ATOM     11  C   UNL d   1      46.608 -19.258  41.611  0.00  0.00     0.135 A 
ATOM     12  S   UNL d   1      46.599 -19.828  41.165  0.00  0.00    -0.073 SA
ATOM     13  C   UNL d   1      46.583 -19.704  40.451  0.00  0.00     0.036 A 
ATOM     14  C   UNL d   1      46.576 -19.031  40.191  0.00  0.00     0.008 A 
ATOM     15  C   UNL d   1      46.601 -18.591  41.350  0.00  0.00     0.020 A 
ENDBRANCH   8  11
ENDBRANCH   7   8
ENDBRANCH   1   7
BRANCH   3  16
ATOM     16  O   UNL d   1      45.817 -20.013  44.587  0.00  0.00    -0.327 OA
ATOM     17  C   UNL d   1      45.106 -20.312  44.874  0.00  0.00     0.181 C 
ENDBRANCH   3  16
BRANCH   5  18
ATOM     18  O   UNL d   1      46.136 -16.784  43.986  0.00  0.00    -0.328 OA
ATOM     19  C   UNL d   1      45.504 -16.275  44.122  0.00  0.00     0.181 C 
ENDBRANCH   5  18
TORSDOF 5
ENDMDL
MODEL 2
REMARK VINA RESULT:      24.1      6.261      7.644
REMARK  5 active torsions:
REMARK  status: ('A' for Active; 'I' for Inactive)
REMARK    1  A    between atoms: C_2  and  S_1 
REMARK    2  A    between atoms: N_3  and  S_1 
REMARK    3  A    between atoms: C_4  and  N_3 
REMARK    4  A    between atoms: O_16  and  C_9 
REMARK    5  A    between atoms: O_17  and  C_14 
ROOT
ATOM      1  C   UNL d   1      45.310 -15.681  36.730  0.00  0.00     0.118 A 
ATOM      2  C   UNL d   1      45.680 -15.037  36.370  0.00  0.00     0.046 A 
ATOM      3  C   UNL d   1      45.534 -15.915  37.486  0.00  0.00     0.113 A 
ATOM      4  C   UNL d   1      46.130 -15.506  37.887  0.00  0.00     0.028 A 
ATOM      5  C   UNL d   1      46.275 -14.628  36.767  0.00  0.00     0.096 A 
ATOM      6  C   UNL d   1      46.501 -14.863  37.527  0.00  0.00     0.026 A 
ENDROOT
BRANCH   1   7
ATOM      7  N   UNL d   1      44.705 -16.100  36.332  0.00  0.00    -0.156 NA
BRANCH   7   8
ATOM      8  S   UNL d   1      43.917 -15.820  36.355  0.00  0.00     0.291 S 
ATOM      9  O   UNL d   1      43.647 -16.599  36.330  0.00  0.00    -0.198 OA
ATOM     10  O   UNL d   1      44.194 -15.043  36.380  0.00  0.00    -0.198 OA
BRANCH   8  11
ATOM     11  C   UNL d   1      43.139 -15.546  36.378  0.00  0.00     0.135 A 
ATOM     12  S   UNL d   1      42.596 -16.024  36.380  0.00  0.00    -0.073 SA
ATOM     13  C   UNL d   1      41.916 -15.771  36.400  0.00  0.00     0.036 A 
ATOM     14  C   UNL d   1      41.786 -15.061  36.419  0.00  0.00     0.008 A 
ATOM     15  C   UNL d   1      43.006 -14.843  36.397  0.00  0.00     0.020 A 
ENDBRANCH   8  11
ENDBRANCH   7   8
ENDBRANCH   1   7
BRANCH   3  16
ATOM     16  O   UNL d   1      45.163 -16.559  37.846  0.00  0.00    -0.327 OA
ATOM     17  C   UNL d   1      45.389 -16.796  38.601  0.00  0.00     0.181 C 
ENDBRANCH   3  16
BRANCH   5  18
ATOM     18  O   UNL d   1      46.645 -13.985  36.407  0.00  0.00    -0.328 OA
ATOM     19  C   UNL d   1      46.411 -13.218  36.592  0.00  0.00     0.181 C 
ENDBRANCH   5  18
TORSDOF 5
ENDMDL
MODEL 3
REMARK VINA RESULT:      26.3      2.580      4.325
REMARK  5 active torsions:
REMARK  status: ('A' for Active; 'I' for Inactive)
REMARK    1  A    between atoms: C_2  and  S_1 
REMARK    2  A    between atoms: N_3  and  S_1 
REMARK    3  A    between atoms: C_4  and  N_3 
REMARK    4  A    between atoms: O_16  and  C_9 
REMARK    5  A    between atoms: O_17  and  C_14 
ROOT
ATOM      1  C   UNL d   1      45.525 -14.917  44.772  0.00  0.00     0.118 A 
ATOM      2  C   UNL d   1      44.746 -15.176  44.850  0.00  0.00     0.046 A 
ATOM      3  C   UNL d   1      45.689 -14.113  44.718  0.00  0.00     0.113 A 
ATOM      4  C   UNL d   1      45.072 -13.562  44.743  0.00  0.00     0.028 A 
ATOM      5  C   UNL d   1      44.130 -14.630  44.876  0.00  0.00     0.096 A 
ATOM      6  C   UNL d   1      44.293 -13.821  44.822  0.00  0.00     0.026 A 
ENDROOT
BRANCH   1   7
ATOM      7  N   UNL d   1      46.155 -15.468  44.745  0.00  0.00    -0.156 NA
BRANCH   7   8
ATOM      8  S   UNL d   1      46.061 -16.192  44.336  0.00  0.00     0.291 S 
ATOM      9  O   UNL d   1      46.524 -15.895  43.721  0.00  0.00    -0.198 OA
ATOM     10  O   UNL d   1      45.599 -16.481  44.955  0.00  0.00    -0.198 OA
BRANCH   8  11
ATOM     11  C   UNL d   1      45.970 -16.904  43.930  0.00  0.00     0.135 A 
ATOM     12  S   UNL d   1      46.197 -17.518  44.237  0.00  0.00    -0.073 SA
ATOM     13  C   UNL d   1      46.112 -18.137  43.870  0.00  0.00     0.036 A 
ATOM     14  C   UNL d   1      45.807 -18.142  43.216  0.00  0.00     0.008 A 
ATOM     15  C   UNL d   1      45.668 -16.912  43.281  0.00  0.00     0.020 A 
ENDBRANCH   8  11
ENDBRANCH   7   8
ENDBRANCH   1   7
BRANCH   3  16
ATOM     16  O   UNL d   1      46.468 -13.854  44.639  0.00  0.00    -0.327 OA
ATOM     17  C   UNL d   1      46.637 -13.048  44.631  0.00  0.00     0.181 C 
ENDBRANCH   3  16
BRANCH   5  18
ATOM     18  O   UNL d   1      43.350 -14.889  44.955  0.00  0.00    -0.328 OA
ATOM     19  C   UNL d   1      42.731 -14.349  44.919  0.00  0.00     0.181 C 
ENDBRANCH   5  18
TORSDOF 5
ENDMDL
