MODEL 1
REMARK VINA RESULT:      -3.6      0.000      0.000
REMARK  5 active torsions:
REMARK  status: ('A' for Active; 'I' for Inactive)
REMARK    1  A    between atoms: C_7  and  C_1 
REMARK    2  A    between atoms: C_9  and  C_17 
REMARK       I    between atoms: N_11  and  C_9 
REMARK    3  A    between atoms: S_12  and  C_10 
REMARK    4  A    between atoms: C_13  and  N_11 
REMARK    5  A    between atoms: C_17  and  S_12 
ROOT
ATOM      1  N   UNL d   1      32.625  21.064 -20.781  0.00  0.00    -0.147 NA
ATOM      2  C   UNL d   1      32.864  21.840 -20.975  0.00  0.00     0.111 A 
ATOM      3  N   UNL d   1      32.699  20.466 -21.339  0.00  0.00    -0.141 NA
ATOM      4  C   UNL d   1      33.009  20.635 -22.087  0.00  0.00     0.133 A 
ATOM      5  C   UNL d   1      33.167  21.997 -21.711  0.00  0.00     0.024 A 
ATOM      6  C   UNL d   1      33.241  21.406 -22.264  0.00  0.00     0.029 A 
ENDROOT
BRANCH   4   7
ATOM      7  S   UNL d   1      33.083  20.033 -22.647  0.00  0.00    -0.061 SA
BRANCH   7   8
ATOM      8  C   UNL d   1      32.983  19.241 -22.425  0.00  0.00     0.099 C 
BRANCH   8   9
ATOM      9  C   UNL d   1      32.930  18.663 -22.997  0.00  0.00     0.286 C 
ATOM     10  N   UNL d   1      32.569  17.940 -22.830  0.00  0.00    -0.208 NA
ATOM     11  O   UNL d   1      33.241  18.794 -23.760  0.00  0.00    -0.265 OA
BRANCH  10  12
ATOM     12  C   UNL d   1      32.514  17.351 -23.408  0.00  0.00     0.086 A 
ATOM     13  C   UNL d   1      31.799  17.232 -23.803  0.00  0.00     0.031 A 
ATOM     14  C   UNL d   1      31.740  16.641 -24.384  0.00  0.00     0.059 A 
ATOM     15 CL   UNL d   1      31.021  16.520 -24.783  0.00  0.00    -0.082 Cl
ATOM     16  C   UNL d   1      32.405  16.179 -24.559  0.00  0.00     0.011 A 
ATOM     17  C   UNL d   1      33.116  16.302 -24.163  0.00  0.00     0.002 A 
ATOM     18  C   UNL d   1      33.174  16.887 -23.587  0.00  0.00     0.019 A 
ENDBRANCH  10  12
ENDBRANCH   8   9
ENDBRANCH   7   8
ENDBRANCH   4   7
BRANCH   2  19
ATOM     19  C   UNL d   1      32.787  22.440 -20.408  0.00  0.00     0.068 A 
ATOM     20  C   UNL d   1      32.332  23.130 -20.501  0.00  0.00     0.089 A 
ATOM     21  N   UNL d   1      32.415  23.573 -19.799  0.00  0.00    -0.238 NA
ATOM     22  C   UNL d   1      31.889  23.331 -21.155  0.00  0.00     0.021 C 
ATOM     23  C   UNL d   1      32.912  23.158 -19.291  0.00  0.00     0.111 A 
ATOM     24  S   UNL d   1      33.141  22.460 -19.669  0.00  0.00    -0.065 SA
ATOM     25  C   UNL d   1      33.140  23.405 -18.533  0.00  0.00     0.028 C 
ENDBRANCH   2  19
TORSDOF 5
ENDMDL
MODEL 2
REMARK VINA RESULT:      -2.7      2.207      6.282
REMARK  5 active torsions:
REMARK  status: ('A' for Active; 'I' for Inactive)
REMARK    1  A    between atoms: C_7  and  C_1 
REMARK    2  A    between atoms: C_9  and  C_17 
REMARK       I    between atoms: N_11  and  C_9 
REMARK    3  A    between atoms: S_12  and  C_10 
REMARK    4  A    between atoms: C_13  and  N_11 
REMARK    5  A    between atoms: C_17  and  S_12 
ROOT
ATOM      1  N   UNL d   1      32.270  17.543 -23.132  0.00  0.00    -0.147 NA
ATOM      2  C   UNL d   1      32.256  17.469 -23.962  0.00  0.00     0.111 A 
ATOM      3  N   UNL d   1      32.553  18.236 -22.792  0.00  0.00    -0.141 NA
ATOM      4  C   UNL d   1      32.821  18.853 -23.273  0.00  0.00     0.133 A 
ATOM      5  C   UNL d   1      32.521  18.079 -24.427  0.00  0.00     0.024 A 
ATOM      6  C   UNL d   1      32.801  18.764 -24.093  0.00  0.00     0.029 A 
ENDROOT
BRANCH   4   7
ATOM      7  S   UNL d   1      33.105  19.548 -22.931  0.00  0.00    -0.061 SA
BRANCH   7   8
ATOM      8  C   UNL d   1      32.795  19.815 -22.210  0.00  0.00     0.099 C 
BRANCH   8   9
ATOM      9  C   UNL d   1      32.861  20.602 -22.008  0.00  0.00     0.286 C 
ATOM     10  N   UNL d   1      32.561  20.876 -21.289  0.00  0.00    -0.208 NA
ATOM     11  O   UNL d   1      33.232  21.142 -22.524  0.00  0.00    -0.265 OA
BRANCH  10  12
ATOM     12  C   UNL d   1      32.626  21.674 -21.080  0.00  0.00     0.086 A 
ATOM     13  C   UNL d   1      32.692  21.883 -20.285  0.00  0.00     0.031 A 
ATOM     14  C   UNL d   1      32.758  22.684 -20.071  0.00  0.00     0.059 A 
ATOM     15 CL   UNL d   1      32.825  22.896 -19.270  0.00  0.00    -0.082 Cl
ATOM     16  C   UNL d   1      32.756  23.262 -20.664  0.00  0.00     0.011 A 
ATOM     17  C   UNL d   1      32.690  23.047 -21.456  0.00  0.00     0.002 A 
ATOM     18  C   UNL d   1      32.625  22.255 -21.668  0.00  0.00     0.019 A 
ENDBRANCH  10  12
ENDBRANCH   8   9
ENDBRANCH   7   8
ENDBRANCH   4   7
BRANCH   2  19
ATOM     19  C   UNL d   1      31.970  16.769 -24.301  0.00  0.00     0.068 A 
ATOM     20  C   UNL d   1      32.434  16.106 -24.495  0.00  0.00     0.089 A 
ATOM     21  N   UNL d   1      31.921  15.534 -24.818  0.00  0.00    -0.238 NA
ATOM     22  C   UNL d   1      33.239  16.034 -24.387  0.00  0.00     0.021 C 
ATOM     23  C   UNL d   1      31.159  15.846 -24.820  0.00  0.00     0.111 A 
ATOM     24  S   UNL d   1      31.192  16.607 -24.500  0.00  0.00    -0.065 SA
ATOM     25  C   UNL d   1      30.481  15.456 -25.097  0.00  0.00     0.028 C 
ENDBRANCH   2  19
TORSDOF 5
ENDMDL
MODEL 3
REMARK VINA RESULT:      -1.7      2.271      6.170
REMARK  5 active torsions:
REMARK  status: ('A' for Active; 'I' for Inactive)
REMARK    1  A    between atoms: C_7  and  C_1 
REMARK    2  A    between atoms: C_9  and  C_17 
REMARK       I    between atoms: N_11  and  C_9 
REMARK    3  A    between atoms: S_12  and  C_10 
REMARK    4  A    between atoms: C_13  and  N_11 
REMARK    5  A    between atoms: C_17  and  S_12 
ROOT
ATOM      1  N   UNL d   1      33.126  18.236 -22.521  0.00  0.00    -0.147 NA
ATOM      2  C   UNL d   1      32.875  18.203 -23.315  0.00  0.00     0.111 A 
ATOM      3  N   UNL d   1      33.224  18.966 -22.158  0.00  0.00    -0.141 NA
ATOM      4  C   UNL d   1      33.073  19.661 -22.579  0.00  0.00     0.133 A 
ATOM      5  C   UNL d   1      32.729  18.889 -23.723  0.00  0.00     0.024 A 
ATOM      6  C   UNL d   1      32.825  19.612 -23.364  0.00  0.00     0.029 A 
ENDROOT
BRANCH   4   7
ATOM      7  S   UNL d   1      33.172  20.395 -22.214  0.00  0.00    -0.061 SA
BRANCH   7   8
ATOM      8  C   UNL d   1      32.517  20.798 -21.905  0.00  0.00     0.099 C 
BRANCH   8   9
ATOM      9  C   UNL d   1      32.625  21.504 -21.511  0.00  0.00     0.286 C 
ATOM     10  N   UNL d   1      32.524  21.547 -20.694  0.00  0.00    -0.208 NA
ATOM     11  O   UNL d   1      32.839  22.193 -21.930  0.00  0.00    -0.265 OA
BRANCH  10  12
ATOM     12  C   UNL d   1      32.633  22.261 -20.291  0.00  0.00     0.086 A 
ATOM     13  C   UNL d   1      32.780  22.254 -19.479  0.00  0.00     0.031 A 
ATOM     14  C   UNL d   1      32.890  22.969 -19.071  0.00  0.00     0.059 A 
ATOM     15 CL   UNL d   1      33.039  22.963 -18.253  0.00  0.00    -0.082 Cl
ATOM     16  C   UNL d   1      32.849  23.683 -19.488  0.00  0.00     0.011 A 
ATOM     17  C   UNL d   1      32.701  23.685 -20.299  0.00  0.00     0.002 A 
ATOM     18  C   UNL d   1      32.592  22.976 -20.703  0.00  0.00     0.019 A 
ENDBRANCH  10  12
ENDBRANCH   8   9
ENDBRANCH   7   8
ENDBRANCH   4   7
BRANCH   2  19
ATOM     19  C   UNL d   1      32.777  17.464 -23.678  0.00  0.00     0.068 A 
ATOM     20  C   UNL d   1      32.194  16.906 -23.477  0.00  0.00     0.089 A 
ATOM     21  N   UNL d   1      32.301  16.249 -23.979  0.00  0.00    -0.238 NA
ATOM     22  C   UNL d   1      31.626  16.989 -22.899  0.00  0.00     0.021 C 
ATOM     23  C   UNL d   1      32.939  16.407 -24.476  0.00  0.00     0.111 A 
ATOM     24  S   UNL d   1      33.231  17.157 -24.287  0.00  0.00    -0.065 SA
ATOM     25  C   UNL d   1      33.232  15.897 -25.060  0.00  0.00     0.028 C 
ENDBRANCH   2  19
TORSDOF 5
ENDMDL
