MODEL 1
REMARK VINA RESULT:      -5.5      0.000      0.000
REMARK  5 active torsions:
REMARK  status: ('A' for Active; 'I' for Inactive)
REMARK    1  A    between atoms: C_4  and  S_1 
REMARK    2  A    between atoms: N_6  and  S_1 
REMARK    3  A    between atoms: C_2  and  C_14 
REMARK    4  A    between atoms: C_7  and  C_16 
REMARK       I    between atoms: N_11  and  C_7 
REMARK    5  A    between atoms: C_26  and  N_11 
ROOT
ATOM      1  C   UNL d   1     -45.306  13.205  22.273  0.00  0.00     0.279 C 
ATOM      2  N   UNL d   1     -44.813  12.709  21.841  0.00  0.00    -0.208 NA
ATOM      3  O   UNL d   1     -45.036  13.937  22.527  0.00  0.00    -0.265 OA
ENDROOT
BRANCH   1   4
ATOM      4  C   UNL d   1     -46.076  12.965  22.451  0.00  0.00     0.061 A 
ATOM      5  C   UNL d   1     -46.703  13.155  21.933  0.00  0.00     0.025 A 
ATOM      6  C   UNL d   1     -47.474  12.915  22.112  0.00  0.00     0.092 A 
ATOM      7  N   UNL d   1     -47.624  12.485  22.804  0.00  0.00    -0.229 N 
ATOM      8  C   UNL d   1     -47.001  12.298  23.315  0.00  0.00     0.092 A 
ATOM      9  C   UNL d   1     -46.230  12.534  23.144  0.00  0.00     0.025 A 
BRANCH   7  10
ATOM     10  S   UNL d   1     -48.394  12.243  22.986  0.00  0.00     0.277 S 
ATOM     11  O   UNL d   1     -48.531  12.989  23.297  0.00  0.00    -0.199 OA
ATOM     12  O   UNL d   1     -48.250  11.491  22.671  0.00  0.00    -0.199 OA
BRANCH  10  13
ATOM     13  C   UNL d   1     -49.161  12.040  23.182  0.00  0.00     0.133 A 
ATOM     14  S   UNL d   1     -49.852  12.445  22.965  0.00  0.00    -0.074 SA
ATOM     15  C   UNL d   1     -50.494  12.048  23.281  0.00  0.00     0.036 A 
ATOM     16  C   UNL d   1     -50.217  11.392  23.698  0.00  0.00     0.008 A 
ATOM     17  C   UNL d   1     -49.394  11.387  23.637  0.00  0.00     0.020 A 
ENDBRANCH  10  13
ENDBRANCH   7  10
ENDBRANCH   1   4
BRANCH   2  18
ATOM     18  C   UNL d   1     -44.044  12.945  21.662  0.00  0.00     0.085 A 
ATOM     19  C   UNL d   1     -43.905  13.721  21.401  0.00  0.00     0.019 A 
ATOM     20  C   UNL d   1     -43.133  13.940  21.226  0.00  0.00     0.004 A 
ATOM     21  C   UNL d   1     -42.528  13.404  21.310  0.00  0.00     0.024 A 
ATOM     22  C   UNL d   1     -42.678  12.644  21.567  0.00  0.00     0.004 A 
ATOM     23  C   UNL d   1     -43.428  12.415  21.742  0.00  0.00     0.019 A 
BRANCH  21  24
ATOM     24  C   UNL d   1     -41.759  13.640  21.130  0.00  0.00     0.111 A 
ATOM     25  N   UNL d   1     -41.093  13.560  21.625  0.00  0.00    -0.239 NA
ATOM     26  C   UNL d   1     -40.434  13.870  21.226  0.00  0.00     0.088 A 
ATOM     27  C   UNL d   1     -39.643  13.939  21.439  0.00  0.00     0.020 A 
ATOM     28  C   UNL d   1     -40.692  14.138  20.491  0.00  0.00     0.049 A 
ATOM     29  C   UNL d   1     -39.105  14.279  20.913  0.00  0.00     0.002 A 
ATOM     30  C   UNL d   1     -39.360  14.549  20.176  0.00  0.00     0.001 A 
ATOM     31  C   UNL d   1     -40.153  14.481  19.960  0.00  0.00     0.008 A 
ATOM     32  S   UNL d   1     -41.510  14.004  20.416  0.00  0.00    -0.066 SA
ENDBRANCH  21  24
ENDBRANCH   2  18
TORSDOF 5
ENDMDL
MODEL 2
REMARK VINA RESULT:      -5.5      1.287      7.463
REMARK  5 active torsions:
REMARK  status: ('A' for Active; 'I' for Inactive)
REMARK    1  A    between atoms: C_4  and  S_1 
REMARK    2  A    between atoms: N_6  and  S_1 
REMARK    3  A    between atoms: C_2  and  C_14 
REMARK    4  A    between atoms: C_7  and  C_16 
REMARK       I    between atoms: N_11  and  C_7 
REMARK    5  A    between atoms: C_26  and  N_11 
ROOT
ATOM      1  C   UNL d   1     -44.284  13.098  21.634  0.00  0.00     0.279 C 
ATOM      2  N   UNL d   1     -44.660  13.450  22.274  0.00  0.00    -0.208 NA
ATOM      3  O   UNL d   1     -44.679  12.543  21.177  0.00  0.00    -0.265 OA
ENDROOT
BRANCH   1   4
ATOM      4  C   UNL d   1     -43.507  13.306  21.449  0.00  0.00     0.061 A 
ATOM      5  C   UNL d   1     -42.910  12.722  21.438  0.00  0.00     0.025 A 
ATOM      6  C   UNL d   1     -42.131  12.930  21.253  0.00  0.00     0.092 A 
ATOM      7  N   UNL d   1     -41.943  13.718  21.079  0.00  0.00    -0.229 N 
ATOM      8  C   UNL d   1     -42.536  14.294  21.091  0.00  0.00     0.092 A 
ATOM      9  C   UNL d   1     -43.314  14.095  21.274  0.00  0.00     0.025 A 
BRANCH   7  10
ATOM     10  S   UNL d   1     -41.165  13.930  20.894  0.00  0.00     0.277 S 
ATOM     11  O   UNL d   1     -41.397  14.007  20.111  0.00  0.00    -0.199 OA
ATOM     12  O   UNL d   1     -40.937  13.851  21.686  0.00  0.00    -0.199 OA
BRANCH  10  13
ATOM     13  C   UNL d   1     -40.408  14.144  20.672  0.00  0.00     0.133 A 
ATOM     14  S   UNL d   1     -40.174  14.449  19.937  0.00  0.00    -0.074 SA
ATOM     15  C   UNL d   1     -39.367  14.585  19.958  0.00  0.00     0.036 A 
ATOM     16  C   UNL d   1     -39.085  14.367  20.703  0.00  0.00     0.008 A 
ATOM     17  C   UNL d   1     -39.728  14.095  21.144  0.00  0.00     0.020 A 
ENDBRANCH  10  13
ENDBRANCH   7  10
ENDBRANCH   1   4
BRANCH   2  18
ATOM     18  C   UNL d   1     -45.437  13.245  22.462  0.00  0.00     0.085 A 
ATOM     19  C   UNL d   1     -45.583  12.555  22.900  0.00  0.00     0.019 A 
ATOM     20  C   UNL d   1     -46.362  12.365  23.078  0.00  0.00     0.004 A 
ATOM     21  C   UNL d   1     -46.966  12.847  22.827  0.00  0.00     0.024 A 
ATOM     22  C   UNL d   1     -46.809  13.523  22.396  0.00  0.00     0.004 A 
ATOM     23  C   UNL d   1     -46.052  13.721  22.215  0.00  0.00     0.019 A 
BRANCH  21  24
ATOM     24  C   UNL d   1     -47.743  12.642  23.014  0.00  0.00     0.111 A 
ATOM     25  N   UNL d   1     -48.399  13.155  23.011  0.00  0.00    -0.239 NA
ATOM     26  C   UNL d   1     -49.071  12.720  23.233  0.00  0.00     0.088 A 
ATOM     27  C   UNL d   1     -49.859  12.931  23.325  0.00  0.00     0.020 A 
ATOM     28  C   UNL d   1     -48.828  11.945  23.373  0.00  0.00     0.049 A 
ATOM     29  C   UNL d   1     -50.412  12.363  23.558  0.00  0.00     0.002 A 
ATOM     30  C   UNL d   1     -50.173  11.586  23.698  0.00  0.00     0.001 A 
ATOM     31  C   UNL d   1     -49.382  11.371  23.607  0.00  0.00     0.008 A 
ATOM     32  S   UNL d   1     -48.009  11.880  23.241  0.00  0.00    -0.066 SA
ENDBRANCH  21  24
ENDBRANCH   2  18
TORSDOF 5
ENDMDL
