MODEL 1
REMARK VINA RESULT:       3.3      0.000      0.000
REMARK  1 active torsions:
REMARK  status: ('A' for Active; 'I' for Inactive)
REMARK    1  A    between atoms: C_6  and  C_2 
ROOT
ATOM      1  O   UNL d   1     -54.914-102.549 -38.331  0.00  0.00    -0.260 OA
ATOM      2  C   UNL d   1     -55.532-102.683 -37.793  0.00  0.00     0.207 A 
ATOM      3  N   UNL d   1     -56.203-102.879 -38.232  0.00  0.00    -0.120 NA
ATOM      4  C   UNL d   1     -55.209-102.663 -39.095  0.00  0.00     0.262 A 
ATOM      5  N   UNL d   1     -56.009-102.868 -39.031  0.00  0.00    -0.109 NA
ATOM      6  S   UNL d   1     -54.775-102.585 -39.793  0.00  0.00    -0.029 SA
ENDROOT
BRANCH   2   7
ATOM      7  C   UNL d   1     -55.479-102.629 -36.977  0.00  0.00     0.062 A 
ATOM      8  C   UNL d   1     -56.126-102.823 -36.505  0.00  0.00     0.102 A 
ATOM      9  N   UNL d   1     -56.064-102.765 -35.678  0.00  0.00    -0.242 NA
ATOM     10  C   UNL d   1     -55.361-102.516 -35.330  0.00  0.00     0.099 A 
ATOM     11  C   UNL d   1     -54.717-102.323 -35.803  0.00  0.00     0.021 A 
ATOM     12  C   UNL d   1     -54.768-102.377 -36.627  0.00  0.00     0.007 A 
ENDBRANCH   2   7
TORSDOF 1
ENDMDL
