MODEL 1
REMARK VINA RESULT:      -2.4      0.000      0.000
REMARK  5 active torsions:
REMARK  status: ('A' for Active; 'I' for Inactive)
REMARK    1  A    between atoms: C_6  and  S_1 
REMARK    2  A    between atoms: C_9  and  S_1 
REMARK    3  A    between atoms: C_2  and  S_11 
REMARK    4  A    between atoms: N_4  and  C_3 
REMARK    5  A    between atoms: S_11  and  C_10 
ROOT
ATOM      1  C   UNL d   1     -41.688-122.056 -50.638  0.00  0.00     0.133 A 
ATOM      2  C   UNL d   1     -42.087-122.375 -49.990  0.00  0.00     0.035 A 
ATOM      3  C   UNL d   1     -42.356-123.156 -50.015  0.00  0.00     0.094 A 
ATOM      4  C   UNL d   1     -41.560-122.520 -51.313  0.00  0.00     0.054 A 
ATOM      5  C   UNL d   1     -42.226-123.614 -50.690  0.00  0.00     0.012 A 
ATOM      6  C   UNL d   1     -41.829-123.296 -51.336  0.00  0.00     0.009 A 
ENDROOT
BRANCH   4   7
ATOM      7  S   UNL d   1     -41.161-122.201 -51.962  0.00  0.00    -0.047 SA
BRANCH   7   8
ATOM      8  C   UNL d   1     -41.374-122.428 -52.727  0.00  0.00     0.194 A 
ATOM      9  N   UNL d   1     -41.871-122.010 -53.230  0.00  0.00    -0.220 NA
ATOM     10  C   UNL d   1     -41.931-122.436 -53.937  0.00  0.00     0.101 A 
ATOM     11  C   UNL d   1     -42.342-122.293 -54.628  0.00  0.00     0.021 A 
ATOM     12  C   UNL d   1     -41.467-123.115 -53.856  0.00  0.00     0.101 A 
ATOM     13  C   UNL d   1     -42.297-122.826 -55.251  0.00  0.00     0.002 A 
ATOM     14  C   UNL d   1     -41.833-123.509 -55.177  0.00  0.00     0.002 A 
ATOM     15  C   UNL d   1     -41.419-123.652 -54.479  0.00  0.00     0.021 A 
ATOM     16  N   UNL d   1     -41.126-123.108 -53.112  0.00  0.00    -0.220 NA
ENDBRANCH   7   8
ENDBRANCH   4   7
BRANCH   1  17
ATOM     17  N   UNL d   1     -41.418-121.275 -50.615  0.00  0.00    -0.113 N 
ATOM     18  O   UNL d   1     -41.130-120.959 -49.910  0.00  0.00    -0.532 OA
ATOM     19  O   UNL d   1     -41.435-120.812 -51.297  0.00  0.00    -0.532 OA
ENDBRANCH   1  17
BRANCH   3  20
ATOM     20  S   UNL d   1     -42.752-123.472 -49.371  0.00  0.00     0.278 S 
ATOM     21  O   UNL d   1     -42.049-123.778 -49.079  0.00  0.00    -0.213 OA
ATOM     22  O   UNL d   1     -43.149-123.791 -48.723  0.00  0.00    -0.213 OA
BRANCH  20  23
ATOM     23  C   UNL d   1     -43.464-123.166 -49.660  0.00  0.00     0.503 C 
ATOM     24  F   UNL d   1     -44.111-122.887 -49.921  0.00  0.00    -0.157 F 
ATOM     25  F   UNL d   1     -43.771-122.361 -49.609  0.00  0.00    -0.157 F 
ATOM     26  F   UNL d   1     -44.097-123.567 -50.091  0.00  0.00    -0.157 F 
ENDBRANCH  20  23
ENDBRANCH   3  20
TORSDOF 5
ENDMDL
MODEL 2
REMARK VINA RESULT:      -0.8      2.360      4.184
REMARK  5 active torsions:
REMARK  status: ('A' for Active; 'I' for Inactive)
REMARK    1  A    between atoms: C_6  and  S_1 
REMARK    2  A    between atoms: C_9  and  S_1 
REMARK    3  A    between atoms: C_2  and  S_11 
REMARK    4  A    between atoms: N_4  and  C_3 
REMARK    5  A    between atoms: S_11  and  C_10 
ROOT
ATOM      1  C   UNL d   1     -41.331-121.688 -52.986  0.00  0.00     0.133 A 
ATOM      2  C   UNL d   1     -41.493-121.912 -53.763  0.00  0.00     0.035 A 
ATOM      3  C   UNL d   1     -41.613-122.709 -53.947  0.00  0.00     0.094 A 
ATOM      4  C   UNL d   1     -41.288-122.264 -52.391  0.00  0.00     0.054 A 
ATOM      5  C   UNL d   1     -41.570-123.279 -53.351  0.00  0.00     0.012 A 
ATOM      6  C   UNL d   1     -41.408-123.056 -52.576  0.00  0.00     0.009 A 
ENDROOT
BRANCH   4   7
ATOM      7  S   UNL d   1     -41.126-122.042 -51.612  0.00  0.00    -0.047 SA
BRANCH   7   8
ATOM      8  C   UNL d   1     -41.534-122.397 -50.990  0.00  0.00     0.194 A 
ATOM      9  N   UNL d   1     -42.281-122.185 -50.722  0.00  0.00    -0.220 NA
ATOM     10  C   UNL d   1     -42.475-122.685 -50.092  0.00  0.00     0.101 A 
ATOM     11  C   UNL d   1     -43.138-122.733 -49.615  0.00  0.00     0.021 A 
ATOM     12  C   UNL d   1     -41.840-123.201 -49.980  0.00  0.00     0.101 A 
ATOM     13  C   UNL d   1     -43.176-123.296 -49.021  0.00  0.00     0.002 A 
ATOM     14  C   UNL d   1     -42.542-123.817 -48.903  0.00  0.00     0.002 A 
ATOM     15  C   UNL d   1     -41.875-123.768 -49.385  0.00  0.00     0.021 A 
ATOM     16  N   UNL d   1     -41.262-123.023 -50.533  0.00  0.00    -0.220 NA
ENDBRANCH   7   8
ENDBRANCH   4   7
BRANCH   1  17
ATOM     17  N   UNL d   1     -41.210-120.892 -52.800  0.00  0.00    -0.113 N 
ATOM     18  O   UNL d   1     -41.126-120.661 -52.012  0.00  0.00    -0.532 OA
ATOM     19  O   UNL d   1     -41.174-120.329 -53.400  0.00  0.00    -0.532 OA
ENDBRANCH   1  17
BRANCH   3  20
ATOM     20  S   UNL d   1     -41.775-122.930 -54.719  0.00  0.00     0.278 S 
ATOM     21  O   UNL d   1     -41.123-123.428 -54.722  0.00  0.00    -0.213 OA
ATOM     22  O   UNL d   1     -41.936-123.153 -55.495  0.00  0.00    -0.213 OA
BRANCH  20  23
ATOM     23  C   UNL d   1     -42.434-122.430 -54.724  0.00  0.00     0.503 C 
ATOM     24  F   UNL d   1     -43.031-121.975 -54.729  0.00  0.00    -0.157 F 
ATOM     25  F   UNL d   1     -42.512-121.636 -55.053  0.00  0.00    -0.157 F 
ATOM     26  F   UNL d   1     -43.225-122.564 -54.401  0.00  0.00    -0.157 F 
ENDBRANCH  20  23
ENDBRANCH   3  20
TORSDOF 5
ENDMDL
MODEL 3
REMARK VINA RESULT:      -0.2      2.356      4.601
REMARK  5 active torsions:
REMARK  status: ('A' for Active; 'I' for Inactive)
REMARK    1  A    between atoms: C_6  and  S_1 
REMARK    2  A    between atoms: C_9  and  S_1 
REMARK    3  A    between atoms: C_2  and  S_11 
REMARK    4  A    between atoms: N_4  and  C_3 
REMARK    5  A    between atoms: S_11  and  C_10 
ROOT
ATOM      1  C   UNL d   1     -42.855-122.259 -50.972  0.00  0.00     0.133 A 
ATOM      2  C   UNL d   1     -42.541-121.800 -51.581  0.00  0.00     0.035 A 
ATOM      3  C   UNL d   1     -41.747-121.885 -51.795  0.00  0.00     0.094 A 
ATOM      4  C   UNL d   1     -42.372-122.804 -50.576  0.00  0.00     0.054 A 
ATOM      5  C   UNL d   1     -41.270-122.430 -51.398  0.00  0.00     0.012 A 
ATOM      6  C   UNL d   1     -41.583-122.887 -50.790  0.00  0.00     0.009 A 
ENDROOT
BRANCH   4   7
ATOM      7  S   UNL d   1     -42.685-123.265 -49.966  0.00  0.00    -0.047 SA
BRANCH   7   8
ATOM      8  C   UNL d   1     -42.365-123.215 -49.207  0.00  0.00     0.194 A 
ATOM      9  N   UNL d   1     -42.495-122.607 -48.670  0.00  0.00    -0.220 NA
ATOM     10  C   UNL d   1     -42.068-122.781 -47.983  0.00  0.00     0.101 A 
ATOM     11  C   UNL d   1     -41.987-122.384 -47.274  0.00  0.00     0.021 A 
ATOM     12  C   UNL d   1     -41.678-123.499 -48.109  0.00  0.00     0.101 A 
ATOM     13  C   UNL d   1     -41.517-122.696 -46.679  0.00  0.00     0.002 A 
ATOM     14  C   UNL d   1     -41.123-123.415 -46.799  0.00  0.00     0.002 A 
ATOM     15  C   UNL d   1     -41.205-123.815 -47.515  0.00  0.00     0.021 A 
ATOM     16  N   UNL d   1     -41.862-123.764 -48.862  0.00  0.00    -0.220 NA
ENDBRANCH   7   8
ENDBRANCH   4   7
BRANCH   1  17
ATOM     17  N   UNL d   1     -43.648-122.176 -50.756  0.00  0.00    -0.113 N 
ATOM     18  O   UNL d   1     -44.136-122.840 -50.716  0.00  0.00    -0.532 OA
ATOM     19  O   UNL d   1     -43.953-121.429 -50.582  0.00  0.00    -0.532 OA
ENDBRANCH   1  17
BRANCH   3  20
ATOM     20  S   UNL d   1     -41.436-121.428 -52.400  0.00  0.00     0.278 S 
ATOM     21  O   UNL d   1     -41.206-120.854 -51.861  0.00  0.00    -0.213 OA
ATOM     22  O   UNL d   1     -41.123-120.969 -53.008  0.00  0.00    -0.213 OA
BRANCH  20  23
ATOM     23  C   UNL d   1     -41.665-122.002 -52.950  0.00  0.00     0.503 C 
ATOM     24  F   UNL d   1     -41.871-122.525 -53.448  0.00  0.00    -0.157 F 
ATOM     25  F   UNL d   1     -41.281-122.751 -53.147  0.00  0.00    -0.157 F 
ATOM     26  F   UNL d   1     -42.349-122.013 -53.477  0.00  0.00    -0.157 F 
ENDBRANCH  20  23
ENDBRANCH   3  20
TORSDOF 5
ENDMDL
