MODEL 1
REMARK VINA RESULT:       8.5      0.000      0.000
REMARK  7 active torsions:
REMARK  status: ('A' for Active; 'I' for Inactive)
REMARK    1  A    between atoms: C_10  and  N_1 
REMARK    2  A    between atoms: S_12  and  C_2 
REMARK    3  A    between atoms: S_3  and  N_11 
REMARK    4  A    between atoms: C_7  and  S_3 
REMARK    5  A    between atoms: N_11  and  C_15 
REMARK    6  A    between atoms: C_19  and  S_12 
REMARK    7  A    between atoms: C_15  and  C_19 
ROOT
ATOM      1  C   UNL d   1      46.051 -17.541  44.043  0.00  0.00     0.060 C 
ENDROOT
BRANCH   1   2
ATOM      2  C   UNL d   1      46.216 -16.829  44.394  0.00  0.00     0.119 C 
BRANCH   2   3
ATOM      3  N   UNL d   1      45.610 -16.371  44.732  0.00  0.00    -0.156 NA
BRANCH   3   4
ATOM      4  S   UNL d   1      45.569 -15.561  44.576  0.00  0.00     0.285 S 
ATOM      5  O   UNL d   1      44.818 -15.667  44.181  0.00  0.00    -0.198 OA
ATOM      6  O   UNL d   1      46.299 -15.432  44.955  0.00  0.00    -0.198 OA
BRANCH   4   7
ATOM      7  C   UNL d   1      45.511 -14.736  44.407  0.00  0.00     0.105 A 
ATOM      8  C   UNL d   1      44.781 -14.380  44.475  0.00  0.00     0.013 A 
ATOM      9  C   UNL d   1      44.711 -13.585  44.315  0.00  0.00     0.001 A 
ATOM     10  C   UNL d   1      45.377 -13.143  44.086  0.00  0.00     0.000 A 
ATOM     11  C   UNL d   1      46.096 -13.514  44.024  0.00  0.00     0.001 A 
ATOM     12  C   UNL d   1      45.300 -12.323  43.922  0.00  0.00     0.000 C 
ATOM     13  C   UNL d   1      46.177 -14.294  44.178  0.00  0.00     0.013 A 
ENDBRANCH   4   7
ENDBRANCH   3   4
ENDBRANCH   2   3
ENDBRANCH   1   2
BRANCH   1  14
ATOM     14  S   UNL d   1      46.633 -18.060  43.865  0.00  0.00    -0.045 SA
BRANCH  14  15
ATOM     15  C   UNL d   1      46.600 -18.837  44.127  0.00  0.00     0.219 A 
ATOM     16  N   UNL d   1      46.589 -19.438  43.589  0.00  0.00    -0.186 N 
ATOM     17  N   UNL d   1      46.555 -20.156  44.000  0.00  0.00    -0.038 NA
ATOM     18  N   UNL d   1      46.547 -19.969  44.791  0.00  0.00    -0.022 NA
ATOM     19  N   UNL d   1      46.573 -19.180  44.877  0.00  0.00    -0.101 NA
BRANCH  16  20
ATOM     20  C   UNL d   1      46.608 -19.347  42.770  0.00  0.00     0.087 A 
ATOM     21  C   UNL d   1      46.615 -18.602  42.429  0.00  0.00     0.019 A 
ATOM     22  C   UNL d   1      46.634 -18.513  41.600  0.00  0.00     0.002 A 
ATOM     23  C   UNL d   1      46.647 -19.178  41.112  0.00  0.00     0.000 A 
ATOM     24  C   UNL d   1      46.639 -19.929  41.462  0.00  0.00     0.002 A 
ATOM     25  C   UNL d   1      46.620 -20.016  42.289  0.00  0.00     0.019 A 
ENDBRANCH  16  20
ENDBRANCH  14  15
ENDBRANCH   1  14
TORSDOF 7
ENDMDL
