MODEL 1
REMARK VINA RESULT:       0.4      0.000      0.000
REMARK  4 active torsions:
REMARK  status: ('A' for Active; 'I' for Inactive)
REMARK       I    between atoms: N_3  and  C_1 
REMARK    1  A    between atoms: O_5  and  C_1 
REMARK    2  A    between atoms: C_2  and  O_8 
REMARK       I    between atoms: N_4  and  C_2 
REMARK    3  A    between atoms: C_6  and  O_5 
REMARK    4  A    between atoms: O_8  and  C_12 
ROOT
ATOM      1  C   UNL d   1      58.895  -1.349  29.252  0.00  0.00     0.105 A 
ATOM      2  C   UNL d   1      58.483  -0.753  29.643  0.00  0.00     0.025 A 
ATOM      3  C   UNL d   1      57.872  -0.948  30.159  0.00  0.00     0.027 A 
ATOM      4  C   UNL d   1      57.446  -0.346  30.563  0.00  0.00     0.105 A 
ATOM      5  C   UNL d   1      58.680   0.026  29.520  0.00  0.00     0.002 A 
ATOM      6  C   UNL d   1      58.271   0.630  29.910  0.00  0.00     0.002 A 
ATOM      7  C   UNL d   1      57.643   0.433  30.440  0.00  0.00     0.025 A 
ATOM      8  C   UNL d   1      59.506  -1.155  28.736  0.00  0.00     0.025 A 
ATOM      9  C   UNL d   1      59.703  -0.376  28.613  0.00  0.00     0.002 A 
ATOM     10  C   UNL d   1      59.294   0.228  29.003  0.00  0.00     0.000 A 
ENDROOT
BRANCH   1  11
ATOM     11  O   UNL d   1      58.695  -2.140  29.376  0.00  0.00    -0.259 OA
BRANCH  11  12
ATOM     12  C   UNL d   1      59.263  -2.731  29.269  0.00  0.00     0.378 C 
ATOM     13  N   UNL d   1      59.033  -3.511  29.071  0.00  0.00    -0.247 N 
ATOM     14  C   UNL d   1      59.611  -4.098  28.966  0.00  0.00     0.112 A 
ATOM     15  C   UNL d   1      58.233  -3.688  28.984  0.00  0.00     0.112 A 
ATOM     16  C   UNL d   1      59.374  -4.872  28.769  0.00  0.00     0.142 A 
ATOM     17  O   UNL d   1      58.561  -5.049  28.681  0.00  0.00    -0.300 OA
ATOM     18  C   UNL d   1      57.998  -4.455  28.789  0.00  0.00     0.142 A 
ATOM     19  O   UNL d   1      60.069  -2.561  29.355  0.00  0.00    -0.237 OA
ENDBRANCH  11  12
ENDBRANCH   1  11
BRANCH   4  20
ATOM     20  O   UNL d   1      56.833  -0.544  31.080  0.00  0.00    -0.259 OA
BRANCH  20  21
ATOM     21  C   UNL d   1      57.001  -0.771  31.848  0.00  0.00     0.378 C 
ATOM     22  N   UNL d   1      56.631  -0.397  32.487  0.00  0.00    -0.247 N 
ATOM     23  C   UNL d   1      56.813  -0.640  33.255  0.00  0.00     0.112 A 
ATOM     24  C   UNL d   1      56.095   0.204  32.348  0.00  0.00     0.112 A 
ATOM     25  C   UNL d   1      56.444  -0.267  33.890  0.00  0.00     0.142 A 
ATOM     26  O   UNL d   1      55.902   0.341  33.758  0.00  0.00    -0.300 OA
ATOM     27  C   UNL d   1      55.729   0.575  32.988  0.00  0.00     0.142 A 
ATOM     28  O   UNL d   1      57.543  -1.379  31.976  0.00  0.00    -0.237 OA
ENDBRANCH  20  21
ENDBRANCH   4  20
TORSDOF 4
ENDMDL
MODEL 2
REMARK VINA RESULT:       1.2      2.612      5.711
REMARK  4 active torsions:
REMARK  status: ('A' for Active; 'I' for Inactive)
REMARK       I    between atoms: N_3  and  C_1 
REMARK    1  A    between atoms: O_5  and  C_1 
REMARK    2  A    between atoms: C_2  and  O_8 
REMARK       I    between atoms: N_4  and  C_2 
REMARK    3  A    between atoms: C_6  and  O_5 
REMARK    4  A    between atoms: O_8  and  C_12 
ROOT
ATOM      1  C   UNL d   1      56.069  -0.486  32.885  0.00  0.00     0.105 A 
ATOM      2  C   UNL d   1      56.598  -0.563  32.259  0.00  0.00     0.025 A 
ATOM      3  C   UNL d   1      57.100   0.060  32.068  0.00  0.00     0.027 A 
ATOM      4  C   UNL d   1      57.644  -0.009  31.430  0.00  0.00     0.105 A 
ATOM      5  C   UNL d   1      56.624  -1.254  31.831  0.00  0.00     0.002 A 
ATOM      6  C   UNL d   1      57.154  -1.339  31.201  0.00  0.00     0.002 A 
ATOM      7  C   UNL d   1      57.670  -0.700  31.002  0.00  0.00     0.025 A 
ATOM      8  C   UNL d   1      55.567  -1.109  33.077  0.00  0.00     0.025 A 
ATOM      9  C   UNL d   1      55.593  -1.800  32.649  0.00  0.00     0.002 A 
ATOM     10  C   UNL d   1      56.122  -1.884  32.019  0.00  0.00     0.000 A 
ENDROOT
BRANCH   1  11
ATOM     11  O   UNL d   1      56.042   0.215  33.319  0.00  0.00    -0.259 OA
BRANCH  11  12
ATOM     12  C   UNL d   1      55.498   0.298  33.937  0.00  0.00     0.378 C 
ATOM     13  N   UNL d   1      55.761   0.421  34.722  0.00  0.00    -0.247 N 
ATOM     14  C   UNL d   1      55.206   0.503  35.335  0.00  0.00     0.112 A 
ATOM     15  C   UNL d   1      56.569   0.458  34.878  0.00  0.00     0.112 A 
ATOM     16  C   UNL d   1      55.476   0.625  36.113  0.00  0.00     0.142 A 
ATOM     17  O   UNL d   1      56.297   0.663  36.269  0.00  0.00    -0.300 OA
ATOM     18  C   UNL d   1      56.836   0.579  35.649  0.00  0.00     0.142 A 
ATOM     19  O   UNL d   1      54.684   0.261  33.788  0.00  0.00    -0.237 OA
ENDBRANCH  11  12
ENDBRANCH   1  11
BRANCH   4  20
ATOM     20  O   UNL d   1      58.147   0.617  31.240  0.00  0.00    -0.259 OA
BRANCH  20  21
ATOM     21  C   UNL d   1      58.506   0.648  30.505  0.00  0.00     0.378 C 
ATOM     22  N   UNL d   1      59.330   0.648  30.440  0.00  0.00    -0.247 N 
ATOM     23  C   UNL d   1      59.674   0.679  29.690  0.00  0.00     0.112 A 
ATOM     24  C   UNL d   1      59.789   0.616  31.116  0.00  0.00     0.112 A 
ATOM     25  C   UNL d   1      60.495   0.678  29.627  0.00  0.00     0.142 A 
ATOM     26  O   UNL d   1      60.965   0.647  30.304  0.00  0.00    -0.300 OA
ATOM     27  C   UNL d   1      60.611   0.615  31.047  0.00  0.00     0.142 A 
ATOM     28  O   UNL d   1      58.033   0.680  29.829  0.00  0.00    -0.237 OA
ENDBRANCH  20  21
ENDBRANCH   4  20
TORSDOF 4
ENDMDL
