MODEL 1
REMARK VINA RESULT:      69.7      0.000      0.000
REMARK  6 active torsions:
REMARK  status: ('A' for Active; 'I' for Inactive)
REMARK       I    between atoms: C_2  and  N_1 
REMARK    1  A    between atoms: O_20  and  C_2 
REMARK       I    between atoms: C_5  and  N_3 
REMARK    2  A    between atoms: C_15  and  C_5 
REMARK    3  A    between atoms: C_7  and  S_13 
REMARK    4  A    between atoms: C_18  and  C_8 
REMARK    5  A    between atoms: S_13  and  C_15 
REMARK    6  A    between atoms: C_26  and  O_20 
ROOT
ATOM      1  C   UNL d   1      61.438  48.939  50.104  0.00  0.00     0.098 C 
ENDROOT
BRANCH   1   2
ATOM      2  S   UNL d   1      61.002  49.631  50.033  0.00  0.00    -0.061 SA
BRANCH   2   3
ATOM      3  C   UNL d   1      60.182  49.617  50.118  0.00  0.00     0.133 A 
ATOM      4  N   UNL d   1      59.840  49.552  50.860  0.00  0.00    -0.141 NA
ATOM      5  N   UNL d   1      59.020  49.538  50.945  0.00  0.00    -0.148 NA
ATOM      6  C   UNL d   1      58.532  49.591  50.276  0.00  0.00     0.103 A 
ATOM      7  C   UNL d   1      58.874  49.657  49.526  0.00  0.00     0.023 A 
ATOM      8  C   UNL d   1      59.693  49.670  49.445  0.00  0.00     0.029 A 
BRANCH   6   9
ATOM      9  C   UNL d   1      57.712  49.577  50.361  0.00  0.00     0.022 A 
ATOM     10  C   UNL d   1      57.236  49.534  49.682  0.00  0.00     0.022 A 
ATOM     11  C   UNL d   1      56.416  49.521  49.776  0.00  0.00     0.099 A 
ATOM     12  N   UNL d   1      56.080  49.549  50.522  0.00  0.00    -0.242 NA
ATOM     13  C   UNL d   1      56.569  49.592  51.194  0.00  0.00     0.099 A 
ATOM     14  C   UNL d   1      57.383  49.605  51.105  0.00  0.00     0.022 A 
ENDBRANCH   6   9
ENDBRANCH   2   3
ENDBRANCH   1   2
BRANCH   1  15
ATOM     15  C   UNL d   1      61.250  48.397  50.700  0.00  0.00     0.272 C 
ATOM     16  N   UNL d   1      61.302  47.590  50.550  0.00  0.00    -0.269 N 
ATOM     17  C   UNL d   1      61.116  47.054  51.140  0.00  0.00     0.102 A 
ATOM     18  C   UNL d   1      61.544  47.327  49.802  0.00  0.00     0.102 A 
ATOM     19  C   UNL d   1      61.167  46.244  50.994  0.00  0.00     0.104 A 
ATOM     20  N   UNL d   1      61.408  45.978  50.248  0.00  0.00    -0.249 N 
ATOM     21  C   UNL d   1      61.456  45.171  50.110  0.00  0.00     0.378 C 
ATOM     22  C   UNL d   1      61.593  46.523  49.661  0.00  0.00     0.104 A 
ATOM     23  O   UNL d   1      61.696  44.905  49.365  0.00  0.00    -0.237 OA
ATOM     24  O   UNL d   1      61.013  48.657  51.435  0.00  0.00    -0.266 OA
BRANCH  21  25
ATOM     25  O   UNL d   1      61.269  44.633  50.703  0.00  0.00    -0.257 OA
BRANCH  25  26
ATOM     26  C   UNL d   1      61.352  43.830  50.573  0.00  0.00     0.128 C 
ATOM     27  C   UNL d   1      61.199  43.514  49.838  0.00  0.00     0.029 C 
ENDBRANCH  25  26
ENDBRANCH  21  25
ENDBRANCH   1  15
TORSDOF 6
ENDMDL
