MODEL 1
REMARK VINA RESULT:      -4.2      0.000      0.000
REMARK  5 active torsions:
REMARK  status: ('A' for Active; 'I' for Inactive)
REMARK    1  A    between atoms: C_2  and  C_1 
REMARK    2  A    between atoms: C_6  and  C_2 
REMARK    3  A    between atoms: S_3  and  C_11 
REMARK    4  A    between atoms: N_7  and  S_3 
REMARK    5  A    between atoms: C_15  and  C_6 
ROOT
ATOM      1  C   UNL d   1     -40.684  14.595  20.909  0.00  0.00     0.141 C 
ATOM      2  C   UNL d   1     -41.171  15.271  20.980  0.00  0.00     0.107 C 
ATOM      3  N   UNL d   1     -41.649  15.922  21.035  0.00  0.00    -0.191 NA
ENDROOT
BRANCH   1   4
ATOM      4  C   UNL d   1     -40.132  14.431  21.500  0.00  0.00     0.161 A 
ATOM      5  N   UNL d   1     -39.671  14.990  21.904  0.00  0.00    -0.287 N 
ATOM      6  C   UNL d   1     -39.195  14.597  22.446  0.00  0.00     0.083 A 
ATOM      7  C   UNL d   1     -39.684  15.828  21.782  0.00  0.00     0.101 C 
ATOM      8  C   UNL d   1     -38.643  14.867  22.981  0.00  0.00     0.019 A 
ATOM      9  C   UNL d   1     -39.367  13.767  22.376  0.00  0.00     0.099 A 
ATOM     10  C   UNL d   1     -38.251  14.315  23.457  0.00  0.00     0.002 A 
ATOM     11  C   UNL d   1     -38.423  13.486  23.387  0.00  0.00     0.002 A 
ATOM     12  C   UNL d   1     -38.983  13.228  22.842  0.00  0.00     0.021 A 
ATOM     13  N   UNL d   1     -39.941  13.687  21.793  0.00  0.00    -0.226 NA
ENDBRANCH   1   4
BRANCH   1  14
ATOM     14  C   UNL d   1     -40.751  14.099  20.261  0.00  0.00     0.208 C 
ATOM     15  O   UNL d   1     -41.166  13.402  20.329  0.00  0.00    -0.286 OA
BRANCH  14  16
ATOM     16  C   UNL d   1     -40.398  14.308  19.540  0.00  0.00     0.040 A 
ATOM     17  C   UNL d   1     -39.566  14.387  19.498  0.00  0.00     0.004 A 
ATOM     18  C   UNL d   1     -39.215  14.594  18.781  0.00  0.00     0.013 A 
ATOM     19  C   UNL d   1     -39.679  14.720  18.120  0.00  0.00     0.104 A 
ATOM     20  C   UNL d   1     -40.510  14.641  18.160  0.00  0.00     0.013 A 
ATOM     21  C   UNL d   1     -40.861  14.434  18.878  0.00  0.00     0.004 A 
BRANCH  19  22
ATOM     22  S   UNL d   1     -39.325  14.928  17.397  0.00  0.00     0.271 S 
ATOM     23  O   UNL d   1     -39.072  14.123  17.289  0.00  0.00    -0.200 OA
ATOM     24  O   UNL d   1     -39.572  15.713  17.503  0.00  0.00    -0.200 OA
BRANCH  22  25
ATOM     25  N   UNL d   1     -38.974  15.135  16.680  0.00  0.00    -0.229 N 
ATOM     26  C   UNL d   1     -38.293  14.756  16.433  0.00  0.00     0.092 A 
ATOM     27  C   UNL d   1     -37.940  14.964  15.712  0.00  0.00     0.020 A 
ATOM     28  C   UNL d   1     -38.270  15.550  15.242  0.00  0.00     0.003 A 
ATOM     29  C   UNL d   1     -38.947  15.922  15.495  0.00  0.00     0.020 A 
ATOM     30  C   UNL d   1     -39.301  15.714  16.217  0.00  0.00     0.092 A 
ENDBRANCH  22  25
ENDBRANCH  19  22
ENDBRANCH  14  16
ENDBRANCH   1  14
TORSDOF 5
ENDMDL
MODEL 2
REMARK VINA RESULT:      -3.4      7.434      9.401
REMARK  5 active torsions:
REMARK  status: ('A' for Active; 'I' for Inactive)
REMARK    1  A    between atoms: C_2  and  C_1 
REMARK    2  A    between atoms: C_6  and  C_2 
REMARK    3  A    between atoms: S_3  and  C_11 
REMARK    4  A    between atoms: N_7  and  S_3 
REMARK    5  A    between atoms: C_15  and  C_6 
ROOT
ATOM      1  C   UNL d   1     -48.352  13.955  22.482  0.00  0.00     0.141 C 
ATOM      2  C   UNL d   1     -48.456  14.307  21.730  0.00  0.00     0.107 C 
ATOM      3  N   UNL d   1     -48.544  14.654  21.004  0.00  0.00    -0.191 NA
ENDROOT
BRANCH   1   4
ATOM      4  C   UNL d   1     -48.921  13.429  22.765  0.00  0.00     0.161 A 
ATOM      5  N   UNL d   1     -49.716  13.611  22.921  0.00  0.00    -0.287 N 
ATOM      6  C   UNL d   1     -50.091  12.932  23.194  0.00  0.00     0.083 A 
ATOM      7  C   UNL d   1     -50.084  14.366  22.819  0.00  0.00     0.101 C 
ATOM      8  C   UNL d   1     -50.859  12.794  23.427  0.00  0.00     0.019 A 
ATOM      9  C   UNL d   1     -49.510  12.312  23.207  0.00  0.00     0.099 A 
ATOM     10  C   UNL d   1     -51.064  12.032  23.679  0.00  0.00     0.002 A 
ATOM     11  C   UNL d   1     -50.484  11.411  23.692  0.00  0.00     0.002 A 
ATOM     12  C   UNL d   1     -49.711  11.567  23.453  0.00  0.00     0.021 A 
ATOM     13  N   UNL d   1     -48.803  12.635  22.942  0.00  0.00    -0.226 NA
ENDBRANCH   1   4
BRANCH   1  14
ATOM     14  C   UNL d   1     -47.693  14.130  22.935  0.00  0.00     0.208 C 
ATOM     15  O   UNL d   1     -47.669  14.824  23.362  0.00  0.00    -0.286 OA
BRANCH  14  16
ATOM     16  C   UNL d   1     -47.053  13.602  22.959  0.00  0.00     0.040 A 
ATOM     17  C   UNL d   1     -46.770  13.269  22.246  0.00  0.00     0.004 A 
ATOM     18  C   UNL d   1     -46.134  12.744  22.270  0.00  0.00     0.013 A 
ATOM     19  C   UNL d   1     -45.786  12.555  22.985  0.00  0.00     0.104 A 
ATOM     20  C   UNL d   1     -46.069  12.888  23.698  0.00  0.00     0.013 A 
ATOM     21  C   UNL d   1     -46.705  13.412  23.674  0.00  0.00     0.004 A 
BRANCH  19  22
ATOM     22  S   UNL d   1     -45.145  12.027  23.009  0.00  0.00     0.271 S 
ATOM     23  O   UNL d   1     -45.604  11.491  23.485  0.00  0.00    -0.200 OA
ATOM     24  O   UNL d   1     -44.697  12.549  22.545  0.00  0.00    -0.200 OA
BRANCH  22  25
ATOM     25  N   UNL d   1     -44.509  11.502  23.033  0.00  0.00    -0.229 N 
ATOM     26  C   UNL d   1     -43.796  11.708  22.689  0.00  0.00     0.092 A 
ATOM     27  C   UNL d   1     -43.156  11.180  22.713  0.00  0.00     0.020 A 
ATOM     28  C   UNL d   1     -43.233  10.450  23.080  0.00  0.00     0.003 A 
ATOM     29  C   UNL d   1     -43.945  10.254  23.420  0.00  0.00     0.020 A 
ATOM     30  C   UNL d   1     -44.586  10.782  23.396  0.00  0.00     0.092 A 
ENDBRANCH  22  25
ENDBRANCH  19  22
ENDBRANCH  14  16
ENDBRANCH   1  14
TORSDOF 5
ENDMDL
MODEL 3
REMARK VINA RESULT:      -2.9      2.203      5.283
REMARK  5 active torsions:
REMARK  status: ('A' for Active; 'I' for Inactive)
REMARK    1  A    between atoms: C_2  and  C_1 
REMARK    2  A    between atoms: C_6  and  C_2 
REMARK    3  A    between atoms: S_3  and  C_11 
REMARK    4  A    between atoms: N_7  and  S_3 
REMARK    5  A    between atoms: C_15  and  C_6 
ROOT
ATOM      1  C   UNL d   1     -39.218  14.647  19.481  0.00  0.00     0.141 C 
ATOM      2  C   UNL d   1     -38.727  14.411  20.115  0.00  0.00     0.107 C 
ATOM      3  N   UNL d   1     -38.262  14.188  20.739  0.00  0.00    -0.191 NA
ENDROOT
BRANCH   1   4
ATOM      4  C   UNL d   1     -38.983  14.487  18.706  0.00  0.00     0.161 A 
ATOM      5  N   UNL d   1     -38.463  14.946  18.251  0.00  0.00    -0.287 N 
ATOM      6  C   UNL d   1     -38.377  14.594  17.514  0.00  0.00     0.083 A 
ATOM      7  C   UNL d   1     -38.080  15.660  18.500  0.00  0.00     0.101 C 
ATOM      8  C   UNL d   1     -37.940  14.803  16.860  0.00  0.00     0.019 A 
ATOM      9  C   UNL d   1     -38.860  13.894  17.512  0.00  0.00     0.099 A 
ATOM     10  C   UNL d   1     -37.976  14.319  16.189  0.00  0.00     0.002 A 
ATOM     11  C   UNL d   1     -38.459  13.619  16.187  0.00  0.00     0.002 A 
ATOM     12  C   UNL d   1     -38.895  13.421  16.857  0.00  0.00     0.021 A 
ATOM     13  N   UNL d   1     -39.222  13.847  18.249  0.00  0.00    -0.226 NA
ENDBRANCH   1   4
BRANCH   1  14
ATOM     14  C   UNL d   1     -39.925  15.034  19.623  0.00  0.00     0.208 C 
ATOM     15  O   UNL d   1     -40.006  15.817  19.413  0.00  0.00    -0.286 OA
BRANCH  14  16
ATOM     16  C   UNL d   1     -40.556  14.630  19.980  0.00  0.00     0.040 A 
ATOM     17  C   UNL d   1     -40.566  14.540  20.812  0.00  0.00     0.004 A 
ATOM     18  C   UNL d   1     -41.193  14.138  21.167  0.00  0.00     0.013 A 
ATOM     19  C   UNL d   1     -41.797  13.833  20.707  0.00  0.00     0.104 A 
ATOM     20  C   UNL d   1     -41.787  13.923  19.876  0.00  0.00     0.013 A 
ATOM     21  C   UNL d   1     -41.160  14.325  19.521  0.00  0.00     0.004 A 
BRANCH  19  22
ATOM     22  S   UNL d   1     -42.428  13.428  21.065  0.00  0.00     0.271 S 
ATOM     23  O   UNL d   1     -42.474  12.906  20.394  0.00  0.00    -0.200 OA
ATOM     24  O   UNL d   1     -42.384  13.937  21.719  0.00  0.00    -0.200 OA
BRANCH  22  25
ATOM     25  N   UNL d   1     -43.055  13.027  21.420  0.00  0.00    -0.229 N 
ATOM     26  C   UNL d   1     -43.810  13.341  21.393  0.00  0.00     0.092 A 
ATOM     27  C   UNL d   1     -44.441  12.937  21.750  0.00  0.00     0.020 A 
ATOM     28  C   UNL d   1     -44.312  12.221  22.131  0.00  0.00     0.003 A 
ATOM     29  C   UNL d   1     -43.559  11.917  22.153  0.00  0.00     0.020 A 
ATOM     30  C   UNL d   1     -42.928  12.321  21.796  0.00  0.00     0.092 A 
ENDBRANCH  22  25
ENDBRANCH  19  22
ENDBRANCH  14  16
ENDBRANCH   1  14
TORSDOF 5
ENDMDL
MODEL 4
REMARK VINA RESULT:      -2.6      5.600      7.248
REMARK  5 active torsions:
REMARK  status: ('A' for Active; 'I' for Inactive)
REMARK    1  A    between atoms: C_2  and  C_1 
REMARK    2  A    between atoms: C_6  and  C_2 
REMARK    3  A    between atoms: S_3  and  C_11 
REMARK    4  A    between atoms: N_7  and  S_3 
REMARK    5  A    between atoms: C_15  and  C_6 
ROOT
ATOM      1  C   UNL d   1     -46.392  12.883  22.777  0.00  0.00     0.141 C 
ATOM      2  C   UNL d   1     -46.229  13.557  23.244  0.00  0.00     0.107 C 
ATOM      3  N   UNL d   1     -46.056  14.205  23.698  0.00  0.00    -0.191 NA
ENDROOT
BRANCH   1   4
ATOM      4  C   UNL d   1     -47.152  12.776  22.473  0.00  0.00     0.161 A 
ATOM      5  N   UNL d   1     -47.804  12.476  22.888  0.00  0.00    -0.287 N 
ATOM      6  C   UNL d   1     -48.453  12.460  22.384  0.00  0.00     0.083 A 
ATOM      7  C   UNL d   1     -47.808  12.226  23.698  0.00  0.00     0.101 C 
ATOM      8  C   UNL d   1     -49.223  12.222  22.497  0.00  0.00     0.019 A 
ATOM      9  C   UNL d   1     -48.193  12.760  21.632  0.00  0.00     0.099 A 
ATOM     10  C   UNL d   1     -49.752  12.278  21.862  0.00  0.00     0.002 A 
ATOM     11  C   UNL d   1     -49.492  12.578  21.110  0.00  0.00     0.002 A 
ATOM     12  C   UNL d   1     -48.710  12.815  21.011  0.00  0.00     0.021 A 
ATOM     13  N   UNL d   1     -47.396  12.947  21.707  0.00  0.00    -0.226 NA
ENDBRANCH   1   4
BRANCH   1  14
ATOM     14  C   UNL d   1     -45.807  12.332  22.622  0.00  0.00     0.208 C 
ATOM     15  O   UNL d   1     -45.933  11.548  22.804  0.00  0.00    -0.286 OA
BRANCH  14  16
ATOM     16  C   UNL d   1     -45.090  12.572  22.282  0.00  0.00     0.040 A 
ATOM     17  C   UNL d   1     -45.075  13.250  21.792  0.00  0.00     0.004 A 
ATOM     18  C   UNL d   1     -44.362  13.489  21.453  0.00  0.00     0.013 A 
ATOM     19  C   UNL d   1     -43.678  13.064  21.597  0.00  0.00     0.104 A 
ATOM     20  C   UNL d   1     -43.692  12.387  22.087  0.00  0.00     0.013 A 
ATOM     21  C   UNL d   1     -44.405  12.148  22.425  0.00  0.00     0.004 A 
BRANCH  19  22
ATOM     22  S   UNL d   1     -42.960  13.304  21.256  0.00  0.00     0.271 S 
ATOM     23  O   UNL d   1     -42.946  12.595  20.786  0.00  0.00    -0.200 OA
ATOM     24  O   UNL d   1     -42.973  13.996  21.714  0.00  0.00    -0.200 OA
BRANCH  22  25
ATOM     25  N   UNL d   1     -42.246  13.543  20.917  0.00  0.00    -0.229 N 
ATOM     26  C   UNL d   1     -42.150  13.515  20.105  0.00  0.00     0.092 A 
ATOM     27  C   UNL d   1     -41.432  13.756  19.764  0.00  0.00     0.020 A 
ATOM     28  C   UNL d   1     -40.816  14.022  20.237  0.00  0.00     0.003 A 
ATOM     29  C   UNL d   1     -40.922  14.046  21.043  0.00  0.00     0.020 A 
ATOM     30  C   UNL d   1     -41.639  13.806  21.384  0.00  0.00     0.092 A 
ENDBRANCH  22  25
ENDBRANCH  19  22
ENDBRANCH  14  16
ENDBRANCH   1  14
TORSDOF 5
ENDMDL
MODEL 5
REMARK VINA RESULT:      -2.6      3.437      5.701
REMARK  5 active torsions:
REMARK  status: ('A' for Active; 'I' for Inactive)
REMARK    1  A    between atoms: C_2  and  C_1 
REMARK    2  A    between atoms: C_6  and  C_2 
REMARK    3  A    between atoms: S_3  and  C_11 
REMARK    4  A    between atoms: N_7  and  S_3 
REMARK    5  A    between atoms: C_15  and  C_6 
ROOT
ATOM      1  C   UNL d   1     -41.259  14.281  20.913  0.00  0.00     0.141 C 
ATOM      2  C   UNL d   1     -41.505  15.081  20.925  0.00  0.00     0.107 C 
ATOM      3  N   UNL d   1     -41.756  15.850  20.930  0.00  0.00    -0.191 NA
ENDROOT
BRANCH   1   4
ATOM      4  C   UNL d   1     -40.523  14.079  21.227  0.00  0.00     0.161 A 
ATOM      5  N   UNL d   1     -39.792  14.155  20.841  0.00  0.00    -0.287 N 
ATOM      6  C   UNL d   1     -39.200  13.893  21.346  0.00  0.00     0.083 A 
ATOM      7  C   UNL d   1     -39.671  14.452  20.057  0.00  0.00     0.101 C 
ATOM      8  C   UNL d   1     -38.392  13.843  21.255  0.00  0.00     0.019 A 
ATOM      9  C   UNL d   1     -39.576  13.647  22.068  0.00  0.00     0.099 A 
ATOM     10  C   UNL d   1     -37.941  13.547  21.884  0.00  0.00     0.002 A 
ATOM     11  C   UNL d   1     -38.317  13.302  22.606  0.00  0.00     0.002 A 
ATOM     12  C   UNL d   1     -39.134  13.358  22.682  0.00  0.00     0.021 A 
ATOM     13  N   UNL d   1     -40.383  13.769  21.975  0.00  0.00    -0.226 NA
ENDBRANCH   1   4
BRANCH   1  14
ATOM     14  C   UNL d   1     -41.741  13.703  20.593  0.00  0.00     0.208 C 
ATOM     15  O   UNL d   1     -41.532  13.346  19.891  0.00  0.00    -0.286 OA
BRANCH  14  16
ATOM     16  C   UNL d   1     -42.439  13.481  20.982  0.00  0.00     0.040 A 
ATOM     17  C   UNL d   1     -43.081  14.016  21.010  0.00  0.00     0.004 A 
ATOM     18  C   UNL d   1     -43.775  13.795  21.397  0.00  0.00     0.013 A 
ATOM     19  C   UNL d   1     -43.831  13.059  21.750  0.00  0.00     0.104 A 
ATOM     20  C   UNL d   1     -43.189  12.524  21.723  0.00  0.00     0.013 A 
ATOM     21  C   UNL d   1     -42.495  12.745  21.335  0.00  0.00     0.004 A 
BRANCH  19  22
ATOM     22  S   UNL d   1     -44.530  12.837  22.140  0.00  0.00     0.271 S 
ATOM     23  O   UNL d   1     -44.797  13.645  22.122  0.00  0.00    -0.200 OA
ATOM     24  O   UNL d   1     -44.270  12.049  22.157  0.00  0.00    -0.200 OA
BRANCH  22  25
ATOM     25  N   UNL d   1     -45.224  12.616  22.527  0.00  0.00    -0.229 N 
ATOM     26  C   UNL d   1     -45.256  11.910  22.938  0.00  0.00     0.092 A 
ATOM     27  C   UNL d   1     -45.955  11.688  23.328  0.00  0.00     0.020 A 
ATOM     28  C   UNL d   1     -46.616  12.173  23.304  0.00  0.00     0.003 A 
ATOM     29  C   UNL d   1     -46.575  12.874  22.893  0.00  0.00     0.020 A 
ATOM     30  C   UNL d   1     -45.876  13.096  22.503  0.00  0.00     0.092 A 
ENDBRANCH  22  25
ENDBRANCH  19  22
ENDBRANCH  14  16
ENDBRANCH   1  14
TORSDOF 5
ENDMDL
MODEL 6
REMARK VINA RESULT:      -2.4      2.860      5.719
REMARK  5 active torsions:
REMARK  status: ('A' for Active; 'I' for Inactive)
REMARK    1  A    between atoms: C_2  and  C_1 
REMARK    2  A    between atoms: C_6  and  C_2 
REMARK    3  A    between atoms: S_3  and  C_11 
REMARK    4  A    between atoms: N_7  and  S_3 
REMARK    5  A    between atoms: C_15  and  C_6 
ROOT
ATOM      1  C   UNL d   1     -40.570  14.748  20.116  0.00  0.00     0.141 C 
ATOM      2  C   UNL d   1     -40.606  15.349  20.697  0.00  0.00     0.107 C 
ATOM      3  N   UNL d   1     -40.643  15.919  21.270  0.00  0.00    -0.191 NA
ENDROOT
BRANCH   1   4
ATOM      4  C   UNL d   1     -40.420  14.953  19.331  0.00  0.00     0.161 A 
ATOM      5  N   UNL d   1     -39.681  15.164  19.017  0.00  0.00    -0.287 N 
ATOM      6  C   UNL d   1     -39.773  15.326  18.216  0.00  0.00     0.083 A 
ATOM      7  C   UNL d   1     -38.951  15.207  19.444  0.00  0.00     0.101 C 
ATOM      8  C   UNL d   1     -39.240  15.556  17.645  0.00  0.00     0.019 A 
ATOM      9  C   UNL d   1     -40.594  15.212  18.029  0.00  0.00     0.099 A 
ATOM     10  C   UNL d   1     -39.516  15.677  16.873  0.00  0.00     0.002 A 
ATOM     11  C   UNL d   1     -40.337  15.562  16.686  0.00  0.00     0.002 A 
ATOM     12  C   UNL d   1     -40.863  15.330  17.275  0.00  0.00     0.021 A 
ATOM     13  N   UNL d   1     -40.972  14.984  18.723  0.00  0.00    -0.226 NA
ENDBRANCH   1   4
BRANCH   1  14
ATOM     14  C   UNL d   1     -40.683  13.964  20.321  0.00  0.00     0.208 C 
ATOM     15  O   UNL d   1     -40.090  13.422  20.184  0.00  0.00    -0.286 OA
BRANCH  14  16
ATOM     16  C   UNL d   1     -41.398  13.723  20.666  0.00  0.00     0.040 A 
ATOM     17  C   UNL d   1     -42.036  13.499  20.173  0.00  0.00     0.004 A 
ATOM     18  C   UNL d   1     -42.747  13.259  20.516  0.00  0.00     0.013 A 
ATOM     19  C   UNL d   1     -42.823  13.242  21.330  0.00  0.00     0.104 A 
ATOM     20  C   UNL d   1     -42.186  13.466  21.823  0.00  0.00     0.013 A 
ATOM     21  C   UNL d   1     -41.475  13.706  21.480  0.00  0.00     0.004 A 
BRANCH  19  22
ATOM     22  S   UNL d   1     -43.540  13.001  21.676  0.00  0.00     0.271 S 
ATOM     23  O   UNL d   1     -43.248  12.203  21.723  0.00  0.00    -0.200 OA
ATOM     24  O   UNL d   1     -43.824  13.780  21.630  0.00  0.00    -0.200 OA
BRANCH  22  25
ATOM     25  N   UNL d   1     -44.251  12.762  22.019  0.00  0.00    -0.229 N 
ATOM     26  C   UNL d   1     -44.286  12.062  22.441  0.00  0.00     0.092 A 
ATOM     27  C   UNL d   1     -45.001  11.821  22.786  0.00  0.00     0.020 A 
ATOM     28  C   UNL d   1     -45.676  12.281  22.706  0.00  0.00     0.003 A 
ATOM     29  C   UNL d   1     -45.632  12.975  22.285  0.00  0.00     0.020 A 
ATOM     30  C   UNL d   1     -44.916  13.216  21.940  0.00  0.00     0.092 A 
ENDBRANCH  22  25
ENDBRANCH  19  22
ENDBRANCH  14  16
ENDBRANCH   1  14
TORSDOF 5
ENDMDL
MODEL 7
REMARK VINA RESULT:      -1.5      1.726      2.505
REMARK  5 active torsions:
REMARK  status: ('A' for Active; 'I' for Inactive)
REMARK    1  A    between atoms: C_2  and  C_1 
REMARK    2  A    between atoms: C_6  and  C_2 
REMARK    3  A    between atoms: S_3  and  C_11 
REMARK    4  A    between atoms: N_7  and  S_3 
REMARK    5  A    between atoms: C_15  and  C_6 
ROOT
ATOM      1  C   UNL d   1     -38.438  14.397  20.065  0.00  0.00     0.141 C 
ATOM      2  C   UNL d   1     -38.285  13.703  19.624  0.00  0.00     0.107 C 
ATOM      3  N   UNL d   1     -38.137  13.039  19.184  0.00  0.00    -0.191 NA
ENDROOT
BRANCH   1   4
ATOM      4  C   UNL d   1     -38.520  14.346  20.884  0.00  0.00     0.161 A 
ATOM      5  N   UNL d   1     -39.074  13.878  21.289  0.00  0.00    -0.287 N 
ATOM      6  C   UNL d   1     -38.970  13.987  22.096  0.00  0.00     0.083 A 
ATOM      7  C   UNL d   1     -39.653  13.372  20.934  0.00  0.00     0.101 C 
ATOM      8  C   UNL d   1     -39.355  13.671  22.741  0.00  0.00     0.019 A 
ATOM      9  C   UNL d   1     -38.331  14.540  22.195  0.00  0.00     0.099 A 
ATOM     10  C   UNL d   1     -39.110  13.900  23.499  0.00  0.00     0.002 A 
ATOM     11  C   UNL d   1     -38.471  14.452  23.597  0.00  0.00     0.002 A 
ATOM     12  C   UNL d   1     -38.092  14.763  22.935  0.00  0.00     0.021 A 
ATOM     13  N   UNL d   1     -38.070  14.746  21.443  0.00  0.00    -0.226 NA
ENDBRANCH   1   4
BRANCH   1  14
ATOM     14  C   UNL d   1     -38.506  15.121  19.690  0.00  0.00     0.208 C 
ATOM     15  O   UNL d   1     -38.008  15.731  19.898  0.00  0.00    -0.286 OA
BRANCH  14  16
ATOM     16  C   UNL d   1     -39.081  15.233  19.102  0.00  0.00     0.040 A 
ATOM     17  C   UNL d   1     -39.766  15.679  19.277  0.00  0.00     0.004 A 
ATOM     18  C   UNL d   1     -40.337  15.790  18.693  0.00  0.00     0.013 A 
ATOM     19  C   UNL d   1     -40.231  15.465  17.950  0.00  0.00     0.104 A 
ATOM     20  C   UNL d   1     -39.546  15.019  17.774  0.00  0.00     0.013 A 
ATOM     21  C   UNL d   1     -38.975  14.908  18.359  0.00  0.00     0.004 A 
BRANCH  19  22
ATOM     22  S   UNL d   1     -40.806  15.577  17.361  0.00  0.00     0.271 S 
ATOM     23  O   UNL d   1     -41.400  15.683  17.961  0.00  0.00    -0.200 OA
ATOM     24  O   UNL d   1     -40.227  15.473  16.775  0.00  0.00    -0.200 OA
BRANCH  22  25
ATOM     25  N   UNL d   1     -41.377  15.688  16.776  0.00  0.00    -0.229 N 
ATOM     26  C   UNL d   1     -41.163  15.676  15.987  0.00  0.00     0.092 A 
ATOM     27  C   UNL d   1     -41.738  15.787  15.399  0.00  0.00     0.020 A 
ATOM     28  C   UNL d   1     -42.523  15.910  15.604  0.00  0.00     0.003 A 
ATOM     29  C   UNL d   1     -42.727  15.921  16.390  0.00  0.00     0.020 A 
ATOM     30  C   UNL d   1     -42.152  15.810  16.979  0.00  0.00     0.092 A 
ENDBRANCH  22  25
ENDBRANCH  19  22
ENDBRANCH  14  16
ENDBRANCH   1  14
TORSDOF 5
ENDMDL
