MODEL 1
REMARK VINA RESULT:      -6.2      0.000      0.000
REMARK  5 active torsions:
REMARK  status: ('A' for Active; 'I' for Inactive)
REMARK    1  A    between atoms: C_4  and  S_1 
REMARK    2  A    between atoms: N_7  and  S_1 
REMARK    3  A    between atoms: C_8  and  C_2 
REMARK    4  A    between atoms: C_6  and  C_13 
REMARK    5  A    between atoms: C_13  and  N_7 
ROOT
ATOM      1  C   UNL d   1     -41.606-122.899 -53.526  0.00  0.00     0.112 A 
ATOM      2  N   UNL d   1     -41.708-122.623 -52.747  0.00  0.00    -0.237 NA
ATOM      3  S   UNL d   1     -41.244-123.636 -53.478  0.00  0.00    -0.066 SA
ATOM      4  C   UNL d   1     -41.410-123.189 -52.234  0.00  0.00     0.108 A 
ATOM      5  C   UNL d   1     -41.123-123.816 -52.679  0.00  0.00     0.058 A 
ENDROOT
BRANCH   4   6
ATOM      6  C   UNL d   1     -41.402-123.135 -51.405  0.00  0.00     0.132 C 
BRANCH   6   7
ATOM      7  N   UNL d   1     -42.010-123.463 -50.960  0.00  0.00    -0.155 NA
BRANCH   7   8
ATOM      8  S   UNL d   1     -42.034-123.362 -50.134  0.00  0.00     0.291 S 
ATOM      9  O   UNL d   1     -41.302-123.732 -50.065  0.00  0.00    -0.198 OA
ATOM     10  O   UNL d   1     -42.779-122.987 -50.212  0.00  0.00    -0.198 OA
BRANCH   8  11
ATOM     11  C   UNL d   1     -42.067-123.259 -49.320  0.00  0.00     0.135 A 
ATOM     12  S   UNL d   1     -42.721-123.083 -48.892  0.00  0.00    -0.073 SA
ATOM     13  C   UNL d   1     -42.516-123.026 -48.097  0.00  0.00     0.036 A 
ATOM     14  C   UNL d   1     -41.705-123.175 -48.043  0.00  0.00     0.008 A 
ATOM     15  C   UNL d   1     -41.421-123.320 -48.801  0.00  0.00     0.020 A 
ENDBRANCH   8  11
ENDBRANCH   7   8
ENDBRANCH   6   7
ENDBRANCH   4   6
BRANCH   1  16
ATOM     16  C   UNL d   1     -41.829-122.502 -54.221  0.00  0.00     0.043 A 
ATOM     17  C   UNL d   1     -42.535-122.077 -54.224  0.00  0.00     0.101 A 
ATOM     18  N   UNL d   1     -42.764-121.678 -54.914  0.00  0.00    -0.242 NA
ATOM     19  C   UNL d   1     -42.281-121.719 -55.572  0.00  0.00     0.099 A 
ATOM     20  C   UNL d   1     -41.569-122.150 -55.564  0.00  0.00     0.021 A 
ATOM     21  C   UNL d   1     -41.347-122.541 -54.882  0.00  0.00     0.005 A 
ENDBRANCH   1  16
TORSDOF 5
ENDMDL
MODEL 2
REMARK VINA RESULT:      -5.8      1.549      5.124
REMARK  5 active torsions:
REMARK  status: ('A' for Active; 'I' for Inactive)
REMARK    1  A    between atoms: C_4  and  S_1 
REMARK    2  A    between atoms: N_7  and  S_1 
REMARK    3  A    between atoms: C_8  and  C_2 
REMARK    4  A    between atoms: C_6  and  C_13 
REMARK    5  A    between atoms: C_13  and  N_7 
ROOT
ATOM      1  C   UNL d   1     -41.686-123.246 -50.294  0.00  0.00     0.112 A 
ATOM      2  N   UNL d   1     -41.924-122.734 -50.906  0.00  0.00    -0.237 NA
ATOM      3  S   UNL d   1     -41.191-123.813 -50.628  0.00  0.00    -0.066 SA
ATOM      4  C   UNL d   1     -41.575-122.990 -51.603  0.00  0.00     0.108 A 
ATOM      5  C   UNL d   1     -41.123-123.654 -51.438  0.00  0.00     0.058 A 
ENDROOT
BRANCH   4   6
ATOM      6  C   UNL d   1     -41.667-122.634 -52.349  0.00  0.00     0.132 C 
BRANCH   6   7
ATOM      7  N   UNL d   1     -41.539-123.068 -53.035  0.00  0.00    -0.155 NA
BRANCH   7   8
ATOM      8  S   UNL d   1     -41.695-122.736 -53.783  0.00  0.00     0.291 S 
ATOM      9  O   UNL d   1     -42.254-123.323 -53.928  0.00  0.00    -0.198 OA
ATOM     10  O   UNL d   1     -41.125-122.142 -53.626  0.00  0.00    -0.198 OA
BRANCH   8  11
ATOM     11  C   UNL d   1     -41.843-122.402 -54.518  0.00  0.00     0.135 A 
ATOM     12  S   UNL d   1     -41.290-122.168 -55.049  0.00  0.00    -0.073 SA
ATOM     13  C   UNL d   1     -41.668-121.864 -55.714  0.00  0.00     0.036 A 
ATOM     14  C   UNL d   1     -42.481-121.917 -55.578  0.00  0.00     0.008 A 
ATOM     15  C   UNL d   1     -42.594-122.251 -54.836  0.00  0.00     0.020 A 
ENDBRANCH   8  11
ENDBRANCH   7   8
ENDBRANCH   6   7
ENDBRANCH   4   6
BRANCH   1  16
ATOM     16  C   UNL d   1     -41.908-123.193 -49.495  0.00  0.00     0.043 A 
ATOM     17  C   UNL d   1     -41.325-123.266 -48.917  0.00  0.00     0.101 A 
ATOM     18  N   UNL d   1     -41.539-123.214 -48.118  0.00  0.00    -0.242 NA
ATOM     19  C   UNL d   1     -42.325-123.092 -47.927  0.00  0.00     0.099 A 
ATOM     20  C   UNL d   1     -42.909-123.020 -48.514  0.00  0.00     0.021 A 
ATOM     21  C   UNL d   1     -42.694-123.071 -49.300  0.00  0.00     0.005 A 
ENDBRANCH   1  16
TORSDOF 5
ENDMDL
