MODEL 1
REMARK VINA RESULT:      51.5      0.000      0.000
REMARK  9 active torsions:
REMARK  status: ('A' for Active; 'I' for Inactive)
REMARK    1  A    between atoms: C_8  and  S_1 
REMARK    2  A    between atoms: C_2  and  N_3 
REMARK    3  A    between atoms: N_4  and  C_2 
REMARK    4  A    between atoms: C_6  and  C_2 
REMARK    5  A    between atoms: N_3  and  C_5 
REMARK       I    between atoms: C_7  and  N_4 
REMARK    6  A    between atoms: C_5  and  N_9 
REMARK    7  A    between atoms: C_13  and  C_7 
REMARK    8  A    between atoms: N_9  and  C_23 
REMARK    9  A    between atoms: O_29  and  C_24 
ROOT
ATOM      1  C   UNL d   1      46.017 -18.783  42.087  0.00  0.00     0.238 C 
ENDROOT
BRANCH   1   2
ATOM      2  N   UNL d   1      45.701 -18.260  41.518  0.00  0.00    -0.188 NA
BRANCH   2   3
ATOM      3  C   UNL d   1      45.817 -18.101  40.715  0.00  0.00     0.223 C 
ATOM      4  S   UNL d   1      46.529 -17.884  40.444  0.00  0.00    -0.037 SA
BRANCH   3   5
ATOM      5  N   UNL d   1      45.167 -18.176  40.220  0.00  0.00    -0.217 NA
BRANCH   5   6
ATOM      6  C   UNL d   1      45.055 -17.673  39.578  0.00  0.00     0.084 A 
ATOM      7  C   UNL d   1      45.684 -17.369  39.155  0.00  0.00     0.020 A 
ATOM      8  C   UNL d   1      45.583 -16.867  38.516  0.00  0.00     0.015 A 
ATOM      9  C   UNL d   1      44.821 -16.661  38.291  0.00  0.00     0.107 A 
ATOM     10  C   UNL d   1      44.160 -16.951  38.698  0.00  0.00     0.015 A 
ATOM     11  C   UNL d   1      44.292 -17.454  39.338  0.00  0.00     0.020 A 
BRANCH   9  12
ATOM     12  S   UNL d   1      44.708 -16.148  37.638  0.00  0.00     0.302 S 
ATOM     13  O   UNL d   1      45.046 -16.714  37.138  0.00  0.00    -0.197 OA
ATOM     14  O   UNL d   1      44.370 -15.586  38.151  0.00  0.00    -0.197 OA
ATOM     15  N   UNL d   1      44.594 -15.636  36.995  0.00  0.00    -0.043 N 
ENDBRANCH   9  12
ENDBRANCH   5   6
ENDBRANCH   3   5
ENDBRANCH   2   3
ENDBRANCH   1   2
BRANCH   1  16
ATOM     16  N   UNL d   1      46.057 -18.597  42.692  0.00  0.00    -0.346 NA
ATOM     17  C   UNL d   1      46.143 -18.486  43.523  0.00  0.00     0.329 C 
ATOM     18  O   UNL d   1      46.355 -19.153  44.006  0.00  0.00    -0.251 OA
BRANCH  17  19
ATOM     19  C   UNL d   1      46.022 -17.754  43.830  0.00  0.00     0.071 A 
ATOM     20  C   UNL d   1      46.370 -17.569  44.614  0.00  0.00     0.008 A 
ATOM     21  C   UNL d   1      46.258 -16.817  44.953  0.00  0.00     0.024 A 
ATOM     22  C   UNL d   1      45.812 -16.237  44.542  0.00  0.00     0.094 A 
ATOM     23  C   UNL d   1      45.504 -16.445  43.816  0.00  0.00     0.024 A 
ATOM     24  C   UNL d   1      45.606 -17.197  43.458  0.00  0.00     0.008 A 
BRANCH  22  25
ATOM     25  O   UNL d   1      45.716 -15.490  44.908  0.00  0.00    -0.328 OA
ATOM     26  C   UNL d   1      45.049 -15.010  44.733  0.00  0.00     0.181 C 
ENDBRANCH  22  25
ENDBRANCH  17  19
ENDBRANCH   1  16
BRANCH   1  27
ATOM     27  C   UNL d   1      46.271 -19.525  41.857  0.00  0.00     0.262 C 
ATOM     28 CL   UNL d   1      46.522 -20.269  41.631  0.00  0.00    -0.074 Cl
ATOM     29 CL   UNL d   1      46.645 -19.186  41.173  0.00  0.00    -0.074 Cl
ATOM     30 CL   UNL d   1      45.906 -19.851  42.523  0.00  0.00    -0.074 Cl
ENDBRANCH   1  27
TORSDOF 9
ENDMDL
