MODEL 1
REMARK VINA RESULT:      15.7      0.000      0.000
REMARK  3 active torsions:
REMARK  status: ('A' for Active; 'I' for Inactive)
REMARK    1  A    between atoms: S_7  and  C_4 
REMARK    2  A    between atoms: C_9  and  S_7 
REMARK    3  A    between atoms: C_10  and  C_9 
ROOT
ATOM      1  S   UNL d   1      13.164  12.206  -2.689  0.00  0.00    -0.046 SA
ENDROOT
BRANCH   1   2
ATOM      2  C   UNL d   1      13.189  12.368  -3.498  0.00  0.00     0.217 A 
ATOM      3  N   UNL d   1      12.980  13.118  -3.777  0.00  0.00    -0.180 NA
ATOM      4  C   UNL d   1      13.006  13.280  -4.585  0.00  0.00     0.300 A 
ATOM      5  C   UNL d   1      13.240  12.693  -5.114  0.00  0.00     0.161 A 
ATOM      6  O   UNL d   1      12.797  14.030  -4.864  0.00  0.00    -0.263 OA
ATOM      7  C   UNL d   1      13.266  12.854  -5.923  0.00  0.00     0.028 C 
ATOM      8  N   UNL d   1      13.449  11.943  -4.835  0.00  0.00    -0.141 NA
ATOM      9  N   UNL d   1      13.424  11.781  -4.028  0.00  0.00    -0.121 NA
ENDBRANCH   1   2
BRANCH   1  10
ATOM     10  C   UNL d   1      13.777  11.781  -2.333  0.00  0.00     0.038 C 
BRANCH  10  11
ATOM     11  C   UNL d   1      14.245  12.137  -1.753  0.00  0.00     0.007 A 
ATOM     12  C   UNL d   1      14.840  12.667  -1.969  0.00  0.00     0.001 A 
ATOM     13  C   UNL d   1      15.308  13.023  -1.390  0.00  0.00     0.000 A 
ATOM     14  C   UNL d   1      15.179  12.847  -0.594  0.00  0.00     0.000 A 
ATOM     15  C   UNL d   1      14.584  12.316  -0.378  0.00  0.00     0.000 A 
ATOM     16  C   UNL d   1      15.647  13.202  -0.014  0.00  0.00     0.000 C 
ATOM     17  C   UNL d   1      14.116  11.960  -0.957  0.00  0.00     0.001 A 
ENDBRANCH  10  11
ENDBRANCH   1  10
TORSDOF 3
ENDMDL
MODEL 2
REMARK VINA RESULT:      17.1      1.840      4.071
REMARK  3 active torsions:
REMARK  status: ('A' for Active; 'I' for Inactive)
REMARK    1  A    between atoms: S_7  and  C_4 
REMARK    2  A    between atoms: C_9  and  S_7 
REMARK    3  A    between atoms: C_10  and  C_9 
ROOT
ATOM      1  S   UNL d   1      14.016  13.330  -2.784  0.00  0.00    -0.046 SA
ENDROOT
BRANCH   1   2
ATOM      2  C   UNL d   1      14.312  12.993  -2.092  0.00  0.00     0.217 A 
ATOM      3  N   UNL d   1      14.613  13.476  -1.492  0.00  0.00    -0.180 NA
ATOM      4  C   UNL d   1      14.909  13.139  -0.800  0.00  0.00     0.300 A 
ATOM      5  C   UNL d   1      14.905  12.320  -0.708  0.00  0.00     0.161 A 
ATOM      6  O   UNL d   1      15.210  13.622  -0.200  0.00  0.00    -0.263 OA
ATOM      7  C   UNL d   1      15.202  11.982  -0.015  0.00  0.00     0.028 C 
ATOM      8  N   UNL d   1      14.605  11.837  -1.308  0.00  0.00    -0.141 NA
ATOM      9  N   UNL d   1      14.308  12.173  -1.999  0.00  0.00    -0.121 NA
ENDBRANCH   1   2
BRANCH   1  10
ATOM     10  C   UNL d   1      13.285  13.084  -3.084  0.00  0.00     0.038 C 
BRANCH  10  11
ATOM     11  C   UNL d   1      13.233  12.784  -3.851  0.00  0.00     0.007 A 
ATOM     12  C   UNL d   1      13.587  13.188  -4.479  0.00  0.00     0.001 A 
ATOM     13  C   UNL d   1      13.534  12.888  -5.246  0.00  0.00     0.000 A 
ATOM     14  C   UNL d   1      13.127  12.183  -5.384  0.00  0.00     0.000 A 
ATOM     15  C   UNL d   1      12.773  11.780  -4.756  0.00  0.00     0.000 A 
ATOM     16  C   UNL d   1      13.074  11.883  -6.151  0.00  0.00     0.000 C 
ATOM     17  C   UNL d   1      12.825  12.080  -3.989  0.00  0.00     0.001 A 
ENDBRANCH  10  11
ENDBRANCH   1  10
TORSDOF 3
ENDMDL
