MODEL 1
REMARK VINA RESULT:       1.4      0.000      0.000
REMARK  7 active torsions:
REMARK  status: ('A' for Active; 'I' for Inactive)
REMARK    1  A    between atoms: O_8  and  C_1 
REMARK    2  A    between atoms: C_10  and  C_5 
REMARK    3  A    between atoms: C_12  and  O_8 
REMARK    4  A    between atoms: N_9  and  C_10 
REMARK    5  A    between atoms: C_25  and  N_14 
REMARK    6  A    between atoms: O_24  and  C_17 
REMARK    7  A    between atoms: C_29  and  C_25 
ROOT
ATOM      1  C   UNL d   1      33.238  20.915 -21.875  0.00  0.00     0.161 A 
ATOM      2  C   UNL d   1      33.235  19.782 -23.095  0.00  0.00     0.108 A 
ATOM      3  C   UNL d   1      33.236  20.599 -23.276  0.00  0.00     0.064 A 
ATOM      4  C   UNL d   1      33.237  21.160 -22.674  0.00  0.00     0.222 A 
ATOM      5  C   UNL d   1      33.234  19.226 -23.707  0.00  0.00     0.079 A 
ATOM      6  O   UNL d   1      33.236  19.534 -22.307  0.00  0.00    -0.305 OA
ATOM      7  C   UNL d   1      33.238  20.102 -21.693  0.00  0.00     0.126 A 
ATOM      8  C   UNL d   1      33.234  20.840 -24.075  0.00  0.00     0.009 A 
ATOM      9  C   UNL d   1      33.233  19.463 -24.492  0.00  0.00     0.199 A 
ATOM     10  O   UNL d   1      33.237  21.966 -22.849  0.00  0.00    -0.284 OA
ATOM     11  C   UNL d   1      33.233  20.279 -24.678  0.00  0.00     0.042 A 
ATOM     12  O   UNL d   1      33.231  18.914 -25.097  0.00  0.00    -0.286 OA
ATOM     13  C   UNL d   1      33.239  19.858 -20.907  0.00  0.00     0.029 C 
ENDROOT
BRANCH   5  14
ATOM     14  C   UNL d   1      33.233  18.427 -23.524  0.00  0.00     0.086 C 
BRANCH  14  15
ATOM     15  N   UNL d   1      32.554  17.974 -23.656  0.00  0.00    -0.300 N 
ATOM     16  C   UNL d   1      32.514  17.480 -24.315  0.00  0.00     0.100 A 
ATOM     17  C   UNL d   1      31.839  17.028 -24.447  0.00  0.00     0.100 A 
ATOM     18  N   UNL d   1      31.203  17.070 -23.921  0.00  0.00    -0.297 N 
ATOM     19  C   UNL d   1      31.247  17.565 -23.262  0.00  0.00     0.100 A 
ATOM     20  C   UNL d   1      31.927  18.023 -23.124  0.00  0.00     0.100 A 
BRANCH  18  21
ATOM     21  C   UNL d   1      30.527  16.618 -24.053  0.00  0.00     0.126 C 
BRANCH  21  22
ATOM     22  C   UNL d   1      30.011  16.456 -23.430  0.00  0.00     0.253 C 
ATOM     23  O   UNL d   1      29.264  16.130 -23.587  0.00  0.00    -0.281 OA
ENDBRANCH  21  22
ENDBRANCH  18  21
ENDBRANCH  14  15
ENDBRANCH   5  14
BRANCH   1  24
ATOM     24  O   UNL d   1      33.240  21.475 -21.271  0.00  0.00    -0.300 OA
BRANCH  24  25
ATOM     25  C   UNL d   1      32.532  21.717 -20.942  0.00  0.00     0.122 A 
ATOM     26  C   UNL d   1      32.510  22.374 -20.458  0.00  0.00     0.117 A 
ATOM     27  C   UNL d   1      31.799  22.618 -20.126  0.00  0.00     0.026 A 
ATOM     28  C   UNL d   1      31.109  22.193 -20.285  0.00  0.00     0.002 A 
ATOM     29  C   UNL d   1      31.131  21.535 -20.770  0.00  0.00     0.002 A 
ATOM     30  C   UNL d   1      31.845  21.291 -21.102  0.00  0.00     0.027 A 
BRANCH  26  31
ATOM     31  O   UNL d   1      33.204  22.790 -20.306  0.00  0.00    -0.326 OA
ATOM     32  C   UNL d   1      33.192  23.450 -19.811  0.00  0.00     0.181 C 
ENDBRANCH  26  31
ENDBRANCH  24  25
ENDBRANCH   1  24
TORSDOF 7
ENDMDL
MODEL 2
REMARK VINA RESULT:       3.9      2.046      5.677
REMARK  7 active torsions:
REMARK  status: ('A' for Active; 'I' for Inactive)
REMARK    1  A    between atoms: O_8  and  C_1 
REMARK    2  A    between atoms: C_10  and  C_5 
REMARK    3  A    between atoms: C_12  and  O_8 
REMARK    4  A    between atoms: N_9  and  C_10 
REMARK    5  A    between atoms: C_25  and  N_14 
REMARK    6  A    between atoms: O_24  and  C_17 
REMARK    7  A    between atoms: C_29  and  C_25 
ROOT
ATOM      1  C   UNL d   1      29.219  16.384 -24.010  0.00  0.00     0.161 A 
ATOM      2  C   UNL d   1      30.864  16.592 -24.159  0.00  0.00     0.108 A 
ATOM      3  C   UNL d   1      30.554  16.073 -23.580  0.00  0.00     0.064 A 
ATOM      4  C   UNL d   1      29.741  15.970 -23.505  0.00  0.00     0.222 A 
ATOM      5  C   UNL d   1      31.682  16.690 -24.227  0.00  0.00     0.079 A 
ATOM      6  O   UNL d   1      30.353  17.004 -24.661  0.00  0.00    -0.305 OA
ATOM      7  C   UNL d   1      29.526  16.900 -24.587  0.00  0.00     0.126 A 
ATOM      8  C   UNL d   1      31.078  15.662 -23.078  0.00  0.00     0.009 A 
ATOM      9  C   UNL d   1      32.198  16.285 -23.734  0.00  0.00     0.199 A 
ATOM     10  O   UNL d   1      29.432  15.459 -22.936  0.00  0.00    -0.284 OA
ATOM     11  C   UNL d   1      31.892  15.765 -23.153  0.00  0.00     0.042 A 
ATOM     12  O   UNL d   1      33.006  16.381 -23.800  0.00  0.00    -0.286 OA
ATOM     13  C   UNL d   1      29.014  17.310 -25.085  0.00  0.00     0.029 C 
ENDROOT
BRANCH   5  14
ATOM     14  C   UNL d   1      31.981  17.199 -24.795  0.00  0.00     0.086 C 
BRANCH  14  15
ATOM     15  N   UNL d   1      32.291  17.933 -24.571  0.00  0.00    -0.300 N 
ATOM     16  C   UNL d   1      32.112  18.604 -25.015  0.00  0.00     0.100 A 
ATOM     17  C   UNL d   1      32.420  19.334 -24.793  0.00  0.00     0.100 A 
ATOM     18  N   UNL d   1      32.906  19.394 -24.127  0.00  0.00    -0.297 N 
ATOM     19  C   UNL d   1      33.082  18.720 -23.686  0.00  0.00     0.100 A 
ATOM     20  C   UNL d   1      32.774  17.980 -23.906  0.00  0.00     0.100 A 
BRANCH  18  21
ATOM     21  C   UNL d   1      33.214  20.124 -23.905  0.00  0.00     0.126 C 
BRANCH  21  22
ATOM     22  C   UNL d   1      33.128  20.389 -23.128  0.00  0.00     0.253 C 
ATOM     23  O   UNL d   1      32.873  21.166 -22.983  0.00  0.00    -0.281 OA
ENDBRANCH  21  22
ENDBRANCH  18  21
ENDBRANCH  14  15
ENDBRANCH   5  14
BRANCH   1  24
ATOM     24  O   UNL d   1      28.405  16.281 -23.936  0.00  0.00    -0.300 OA
BRANCH  24  25
ATOM     25  C   UNL d   1      27.980  16.764 -23.432  0.00  0.00     0.122 A 
ATOM     26  C   UNL d   1      27.316  16.476 -23.053  0.00  0.00     0.117 A 
ATOM     27  C   UNL d   1      26.889  16.961 -22.547  0.00  0.00     0.026 A 
ATOM     28  C   UNL d   1      27.135  17.741 -22.425  0.00  0.00     0.002 A 
ATOM     29  C   UNL d   1      27.799  18.029 -22.804  0.00  0.00     0.002 A 
ATOM     30  C   UNL d   1      28.228  17.541 -23.313  0.00  0.00     0.027 A 
BRANCH  26  31
ATOM     31  O   UNL d   1      27.081  15.698 -23.182  0.00  0.00    -0.326 OA
ATOM     32  C   UNL d   1      26.290  15.483 -23.084  0.00  0.00     0.181 C 
ENDBRANCH  26  31
ENDBRANCH  24  25
ENDBRANCH   1  24
TORSDOF 7
ENDMDL
MODEL 3
REMARK VINA RESULT:       4.0      1.640      5.144
REMARK  7 active torsions:
REMARK  status: ('A' for Active; 'I' for Inactive)
REMARK    1  A    between atoms: O_8  and  C_1 
REMARK    2  A    between atoms: C_10  and  C_5 
REMARK    3  A    between atoms: C_12  and  O_8 
REMARK    4  A    between atoms: N_9  and  C_10 
REMARK    5  A    between atoms: C_25  and  N_14 
REMARK    6  A    between atoms: O_24  and  C_17 
REMARK    7  A    between atoms: C_29  and  C_25 
ROOT
ATOM      1  C   UNL d   1      32.845  18.789 -23.677  0.00  0.00     0.161 A 
ATOM      2  C   UNL d   1      32.990  20.338 -23.084  0.00  0.00     0.108 A 
ATOM      3  C   UNL d   1      32.808  20.209 -23.891  0.00  0.00     0.064 A 
ATOM      4  C   UNL d   1      32.736  19.444 -24.185  0.00  0.00     0.222 A 
ATOM      5  C   UNL d   1      33.060  21.110 -22.799  0.00  0.00     0.079 A 
ATOM      6  O   UNL d   1      33.098  19.695 -22.578  0.00  0.00    -0.305 OA
ATOM      7  C   UNL d   1      33.026  18.916 -22.874  0.00  0.00     0.126 A 
ATOM      8  C   UNL d   1      32.700  20.865 -24.395  0.00  0.00     0.009 A 
ATOM      9  C   UNL d   1      32.954  21.755 -23.294  0.00  0.00     0.199 A 
ATOM     10  O   UNL d   1      32.557  19.313 -24.980  0.00  0.00    -0.284 OA
ATOM     11  C   UNL d   1      32.772  21.631 -24.101  0.00  0.00     0.042 A 
ATOM     12  O   UNL d   1      33.022  22.519 -23.012  0.00  0.00    -0.286 OA
ATOM     13  C   UNL d   1      33.134  18.273 -22.372  0.00  0.00     0.029 C 
ENDROOT
BRANCH   5  14
ATOM     14  C   UNL d   1      33.238  21.232 -22.007  0.00  0.00     0.086 C 
BRANCH  14  15
ATOM     15  N   UNL d   1      32.812  21.789 -21.569  0.00  0.00    -0.300 N 
ATOM     16  C   UNL d   1      32.123  21.561 -21.176  0.00  0.00     0.100 A 
ATOM     17  C   UNL d   1      31.699  22.114 -20.740  0.00  0.00     0.100 A 
ATOM     18  N   UNL d   1      31.962  22.897 -20.696  0.00  0.00    -0.297 N 
ATOM     19  C   UNL d   1      32.651  23.122 -21.090  0.00  0.00     0.100 A 
ATOM     20  C   UNL d   1      33.083  22.566 -21.532  0.00  0.00     0.100 A 
BRANCH  18  21
ATOM     21  C   UNL d   1      31.537  23.451 -20.260  0.00  0.00     0.126 C 
BRANCH  21  22
ATOM     22  C   UNL d   1      31.808  23.687 -19.517  0.00  0.00     0.253 C 
ATOM     23  O   UNL d   1      31.665  23.208 -18.854  0.00  0.00    -0.281 OA
ENDBRANCH  21  22
ENDBRANCH  18  21
ENDBRANCH  14  15
ENDBRANCH   5  14
BRANCH   1  24
ATOM     24  O   UNL d   1      32.774  18.023 -23.971  0.00  0.00    -0.300 OA
BRANCH  24  25
ATOM     25  C   UNL d   1      32.049  17.646 -23.945  0.00  0.00     0.122 A 
ATOM     26  C   UNL d   1      31.931  16.959 -24.372  0.00  0.00     0.117 A 
ATOM     27  C   UNL d   1      31.203  16.580 -24.347  0.00  0.00     0.026 A 
ATOM     28  C   UNL d   1      30.593  16.898 -23.889  0.00  0.00     0.002 A 
ATOM     29  C   UNL d   1      30.712  17.584 -23.462  0.00  0.00     0.002 A 
ATOM     30  C   UNL d   1      31.443  17.965 -23.488  0.00  0.00     0.027 A 
BRANCH  26  31
ATOM     31  O   UNL d   1      32.545  16.652 -24.825  0.00  0.00    -0.326 OA
ATOM     32  C   UNL d   1      32.708  15.843 -24.808  0.00  0.00     0.181 C 
ENDBRANCH  26  31
ENDBRANCH  24  25
ENDBRANCH   1  24
TORSDOF 7
ENDMDL
