MODEL 1
REMARK VINA RESULT:      66.5      0.000      0.000
REMARK  9 active torsions:
REMARK  status: ('A' for Active; 'I' for Inactive)
REMARK    1  A    between atoms: C_19  and  N_1 
REMARK    2  A    between atoms: S_15  and  C_2 
REMARK    3  A    between atoms: C_7  and  C_10 
REMARK       I    between atoms: N_12  and  C_7 
REMARK    4  A    between atoms: C_20  and  N_12 
REMARK    5  A    between atoms: C_22  and  S_15 
REMARK    6  A    between atoms: C_24  and  C_19 
REMARK    7  A    between atoms: C_21  and  C_20 
REMARK    8  A    between atoms: C_27  and  C_24 
REMARK    9  A    between atoms: C_26  and  C_27 
ROOT
ATOM      1  N   UNL d   1     -59.422 -98.781 -42.409  0.00  0.00    -0.195 NA
ATOM      2  C   UNL d   1     -59.644 -99.051 -43.158  0.00  0.00     0.086 C 
ATOM      3  C   UNL d   1     -59.867 -99.321 -43.903  0.00  0.00     0.170 C 
ENDROOT
BRANCH   3   4
ATOM      4  S   UNL d   1     -59.708 -98.869 -44.569  0.00  0.00    -0.060 SA
BRANCH   4   5
ATOM      5  C   UNL d   1     -58.960 -98.937 -44.956  0.00  0.00     0.178 A 
ATOM      6  N   UNL d   1     -58.910 -98.880 -45.779  0.00  0.00    -0.253 N 
ATOM      7  C   UNL d   1     -58.181 -98.947 -46.154  0.00  0.00     0.268 A 
ATOM      8  C   UNL d   1     -57.494 -99.072 -45.696  0.00  0.00     0.074 A 
ATOM      9  O   UNL d   1     -58.123 -98.891 -46.975  0.00  0.00    -0.267 OA
ATOM     10  C   UNL d   1     -57.544 -99.127 -44.883  0.00  0.00     0.088 A 
ATOM     11  C   UNL d   1     -56.761 -99.138 -46.073  0.00  0.00     0.006 A 
ATOM     12  C   UNL d   1     -56.861 -99.251 -44.436  0.00  0.00     0.024 A 
ATOM     13  N   UNL d   1     -58.275 -99.061 -44.509  0.00  0.00    -0.222 NA
ATOM     14  C   UNL d   1     -56.132 -99.317 -44.809  0.00  0.00     0.059 A 
ATOM     15  C   UNL d   1     -56.082 -99.261 -45.623  0.00  0.00     0.005 A 
BRANCH   6  16
ATOM     16  C   UNL d   1     -59.606 -98.755 -46.228  0.00  0.00     0.085 C 
BRANCH  16  17
ATOM     17  C   UNL d   1     -59.874 -99.362 -46.718  0.00  0.00     0.019 C 
BRANCH  17  18
ATOM     18  C   UNL d   1     -59.862 -99.245 -47.544  0.00  0.00     0.002 C 
BRANCH  18  19
ATOM     19  C   UNL d   1     -59.514 -99.828 -48.034  0.00  0.00     0.000 C 
ATOM     20  C   UNL d   1     -59.907-100.539 -48.147  0.00  0.00     0.000 C 
ENDBRANCH  18  19
ENDBRANCH  17  18
ENDBRANCH  16  17
ENDBRANCH   6  16
BRANCH  14  21
ATOM     21  C   UNL d   1     -55.452 -99.440 -44.362  0.00  0.00     0.279 C 
ATOM     22  N   UNL d   1     -55.418-100.051 -43.811  0.00  0.00    -0.204 NA
ATOM     23  O   UNL d   1     -54.795 -98.950 -44.465  0.00  0.00    -0.265 OA
BRANCH  22  24
ATOM     24  C   UNL d   1     -54.734-100.174 -43.362  0.00  0.00     0.127 C 
BRANCH  24  25
ATOM     25  C   UNL d   1     -54.778-100.588 -42.643  0.00  0.00     0.119 A 
ATOM     26  O   UNL d   1     -54.733-101.404 -42.554  0.00  0.00    -0.304 OA
ATOM     27  C   UNL d   1     -54.802-101.578 -41.748  0.00  0.00     0.123 A 
ATOM     28  C   UNL d   1     -54.890-100.861 -41.343  0.00  0.00     0.029 A 
ATOM     29  C   UNL d   1     -54.875-100.255 -41.896  0.00  0.00     0.028 A 
ENDBRANCH  24  25
ENDBRANCH  22  24
ENDBRANCH  14  21
ENDBRANCH   4   5
ENDBRANCH   3   4
TORSDOF 9
ENDMDL
