MODEL 1
REMARK VINA RESULT:      -3.3      0.000      0.000
REMARK  4 active torsions:
REMARK  status: ('A' for Active; 'I' for Inactive)
REMARK    1  A    between atoms: C_8  and  N_1 
REMARK    2  A    between atoms: N_7  and  C_4 
REMARK    3  A    between atoms: N_6  and  C_10 
REMARK    4  A    between atoms: C_15  and  N_7 
ROOT
ATOM      1  N   UNL d   1      59.579  -1.856  29.527  0.00  0.00    -0.241 N 
ATOM      2  C   UNL d   1      59.860  -1.127  29.742  0.00  0.00     0.269 A 
ATOM      3  C   UNL d   1      58.761  -1.822  29.525  0.00  0.00     0.285 A 
ATOM      4  C   UNL d   1      58.564  -1.049  29.745  0.00  0.00     0.142 A 
ATOM      5  C   UNL d   1      59.219  -0.642  29.872  0.00  0.00     0.085 A 
ATOM      6  O   UNL d   1      60.662  -0.884  29.824  0.00  0.00    -0.267 OA
ATOM      7  O   UNL d   1      58.231  -2.446  29.337  0.00  0.00    -0.265 OA
ENDROOT
BRANCH   4   8
ATOM      8  N   UNL d   1      57.777  -0.708  29.832  0.00  0.00    -0.241 NA
BRANCH   8   9
ATOM      9  C   UNL d   1      57.476  -0.491  30.574  0.00  0.00     0.082 A 
ATOM     10  C   UNL d   1      57.476   0.311  30.791  0.00  0.00     0.021 A 
ATOM     11  C   UNL d   1      57.171   0.519  31.539  0.00  0.00     0.019 A 
ATOM     12  C   UNL d   1      56.881  -0.044  32.045  0.00  0.00     0.064 A 
ATOM     13  C   UNL d   1      56.878  -0.825  31.840  0.00  0.00     0.019 A 
ATOM     14  C   UNL d   1      57.177  -1.054  31.099  0.00  0.00     0.021 A 
BRANCH  12  15
ATOM     15  N   UNL d   1      56.582   0.188  32.785  0.00  0.00    -0.300 N 
ATOM     16  C   UNL d   1      55.770   0.144  32.924  0.00  0.00     0.107 A 
ATOM     17  C   UNL d   1      55.482   0.377  33.663  0.00  0.00     0.142 A 
ATOM     18  O   UNL d   1      55.999   0.645  34.239  0.00  0.00    -0.300 OA
ATOM     19  C   UNL d   1      56.797   0.681  34.080  0.00  0.00     0.142 A 
ATOM     20  C   UNL d   1      57.111   0.452  33.346  0.00  0.00     0.107 A 
ENDBRANCH  12  15
ENDBRANCH   8   9
ENDBRANCH   4   8
BRANCH   1  21
ATOM     21  C   UNL d   1      60.084  -2.469  29.358  0.00  0.00     0.070 A 
ATOM     22  C   UNL d   1      60.487  -2.507  28.620  0.00  0.00     0.018 A 
ATOM     23  C   UNL d   1      60.996  -3.129  28.455  0.00  0.00     0.002 A 
ATOM     24  C   UNL d   1      61.113  -3.724  29.021  0.00  0.00     0.000 A 
ATOM     25  C   UNL d   1      60.726  -3.693  29.736  0.00  0.00     0.002 A 
ATOM     26  C   UNL d   1      60.215  -3.067  29.900  0.00  0.00     0.018 A 
ENDBRANCH   1  21
TORSDOF 4
ENDMDL
MODEL 2
REMARK VINA RESULT:      -2.5      0.959      1.700
REMARK  4 active torsions:
REMARK  status: ('A' for Active; 'I' for Inactive)
REMARK    1  A    between atoms: C_8  and  N_1 
REMARK    2  A    between atoms: N_7  and  C_4 
REMARK    3  A    between atoms: N_6  and  C_10 
REMARK    4  A    between atoms: C_15  and  N_7 
ROOT
ATOM      1  N   UNL d   1      58.952  -0.878  29.829  0.00  0.00    -0.241 N 
ATOM      2  C   UNL d   1      58.273  -1.270  30.036  0.00  0.00     0.269 A 
ATOM      3  C   UNL d   1      58.866  -0.092  30.045  0.00  0.00     0.285 A 
ATOM      4  C   UNL d   1      58.115  -0.030  30.386  0.00  0.00     0.142 A 
ATOM      5  C   UNL d   1      57.769  -0.730  30.378  0.00  0.00     0.085 A 
ATOM      6  O   UNL d   1      58.093  -2.085  29.929  0.00  0.00    -0.267 OA
ATOM      7  O   UNL d   1      59.429   0.523  29.939  0.00  0.00    -0.265 OA
ENDROOT
BRANCH   4   8
ATOM      8  N   UNL d   1      57.739   0.675  30.710  0.00  0.00    -0.241 NA
BRANCH   8   9
ATOM      9  C   UNL d   1      57.348   0.663  31.441  0.00  0.00     0.082 A 
ATOM     10  C   UNL d   1      56.517   0.665  31.454  0.00  0.00     0.021 A 
ATOM     11  C   UNL d   1      56.132   0.652  32.195  0.00  0.00     0.019 A 
ATOM     12  C   UNL d   1      56.555   0.639  32.887  0.00  0.00     0.064 A 
ATOM     13  C   UNL d   1      57.363   0.637  32.880  0.00  0.00     0.019 A 
ATOM     14  C   UNL d   1      57.765   0.649  32.153  0.00  0.00     0.021 A 
BRANCH  12  15
ATOM     15  N   UNL d   1      56.149   0.626  33.611  0.00  0.00    -0.300 N 
ATOM     16  C   UNL d   1      56.579   0.667  34.315  0.00  0.00     0.107 A 
ATOM     17  C   UNL d   1      56.167   0.655  35.031  0.00  0.00     0.142 A 
ATOM     18  O   UNL d   1      55.349   0.602  35.034  0.00  0.00    -0.300 OA
ATOM     19  C   UNL d   1      54.945   0.563  34.328  0.00  0.00     0.142 A 
ATOM     20  C   UNL d   1      55.336   0.574  33.595  0.00  0.00     0.107 A 
ENDBRANCH  12  15
ENDBRANCH   8   9
ENDBRANCH   4   8
BRANCH   1  21
ATOM     21  C   UNL d   1      59.570  -1.265  29.472  0.00  0.00     0.070 A 
ATOM     22  C   UNL d   1      59.969  -0.929  28.811  0.00  0.00     0.018 A 
ATOM     23  C   UNL d   1      60.592  -1.326  28.455  0.00  0.00     0.002 A 
ATOM     24  C   UNL d   1      60.830  -2.064  28.750  0.00  0.00     0.000 A 
ATOM     25  C   UNL d   1      60.449  -2.394  29.388  0.00  0.00     0.002 A 
ATOM     26  C   UNL d   1      59.822  -1.993  29.745  0.00  0.00     0.018 A 
ENDBRANCH   1  21
TORSDOF 4
ENDMDL
MODEL 3
REMARK VINA RESULT:      -2.3      1.197      5.449
REMARK  4 active torsions:
REMARK  status: ('A' for Active; 'I' for Inactive)
REMARK    1  A    between atoms: C_8  and  N_1 
REMARK    2  A    between atoms: N_7  and  C_4 
REMARK    3  A    between atoms: N_6  and  C_10 
REMARK    4  A    between atoms: C_15  and  N_7 
ROOT
ATOM      1  N   UNL d   1      56.826   0.586  32.687  0.00  0.00    -0.241 N 
ATOM      2  C   UNL d   1      57.629   0.648  32.779  0.00  0.00     0.269 A 
ATOM      3  C   UNL d   1      56.662   0.583  31.885  0.00  0.00     0.285 A 
ATOM      4  C   UNL d   1      57.394   0.644  31.503  0.00  0.00     0.142 A 
ATOM      5  C   UNL d   1      57.962   0.682  32.037  0.00  0.00     0.085 A 
ATOM      6  O   UNL d   1      58.067   0.673  33.497  0.00  0.00    -0.267 OA
ATOM      7  O   UNL d   1      55.905   0.528  31.525  0.00  0.00    -0.265 OA
ENDROOT
BRANCH   4   8
ATOM      8  N   UNL d   1      57.546   0.666  30.654  0.00  0.00    -0.241 NA
BRANCH   8   9
ATOM      9  C   UNL d   1      58.068   0.132  30.292  0.00  0.00     0.082 A 
ATOM     10  C   UNL d   1      58.710   0.429  29.856  0.00  0.00     0.021 A 
ATOM     11  C   UNL d   1      59.230  -0.116  29.495  0.00  0.00     0.019 A 
ATOM     12  C   UNL d   1      59.114  -0.915  29.566  0.00  0.00     0.064 A 
ATOM     13  C   UNL d   1      58.492  -1.209  29.989  0.00  0.00     0.019 A 
ATOM     14  C   UNL d   1      57.963  -0.684  30.356  0.00  0.00     0.021 A 
BRANCH  12  15
ATOM     15  N   UNL d   1      59.645  -1.437  29.198  0.00  0.00    -0.300 N 
ATOM     16  C   UNL d   1      59.362  -2.150  28.890  0.00  0.00     0.107 A 
ATOM     17  C   UNL d   1      59.898  -2.662  28.525  0.00  0.00     0.142 A 
ATOM     18  O   UNL d   1      60.691  -2.461  28.475  0.00  0.00    -0.300 OA
ATOM     19  C   UNL d   1      60.948  -1.754  28.786  0.00  0.00     0.142 A 
ATOM     20  C   UNL d   1      60.430  -1.221  29.157  0.00  0.00     0.107 A 
ENDBRANCH  12  15
ENDBRANCH   8   9
ENDBRANCH   4   8
BRANCH   1  21
ATOM     21  C   UNL d   1      56.331   0.540  33.329  0.00  0.00     0.070 A 
ATOM     22  C   UNL d   1      55.516   0.346  33.236  0.00  0.00     0.018 A 
ATOM     23  C   UNL d   1      55.022   0.301  33.889  0.00  0.00     0.002 A 
ATOM     24  C   UNL d   1      55.328   0.449  34.646  0.00  0.00     0.000 A 
ATOM     25  C   UNL d   1      56.113   0.637  34.742  0.00  0.00     0.002 A 
ATOM     26  C   UNL d   1      56.609   0.682  34.084  0.00  0.00     0.018 A 
ENDBRANCH   1  21
TORSDOF 4
ENDMDL
MODEL 4
REMARK VINA RESULT:      -2.2      1.174      5.460
REMARK  4 active torsions:
REMARK  status: ('A' for Active; 'I' for Inactive)
REMARK    1  A    between atoms: C_8  and  N_1 
REMARK    2  A    between atoms: N_7  and  C_4 
REMARK    3  A    between atoms: N_6  and  C_10 
REMARK    4  A    between atoms: C_15  and  N_7 
ROOT
ATOM      1  N   UNL d   1      56.650  -0.500  32.309  0.00  0.00    -0.241 N 
ATOM      2  C   UNL d   1      56.602  -1.296  32.165  0.00  0.00     0.269 A 
ATOM      3  C   UNL d   1      56.949  -0.139  31.638  0.00  0.00     0.285 A 
ATOM      4  C   UNL d   1      57.078  -0.745  31.090  0.00  0.00     0.142 A 
ATOM      5  C   UNL d   1      56.871  -1.428  31.408  0.00  0.00     0.085 A 
ATOM      6  O   UNL d   1      56.329  -1.901  32.683  0.00  0.00    -0.267 OA
ATOM      7  O   UNL d   1      57.095   0.682  31.530  0.00  0.00    -0.265 OA
ENDROOT
BRANCH   4   8
ATOM      8  N   UNL d   1      57.390  -0.676  30.289  0.00  0.00    -0.241 NA
BRANCH   8   9
ATOM      9  C   UNL d   1      58.003  -1.165  30.017  0.00  0.00     0.082 A 
ATOM     10  C   UNL d   1      58.774  -0.859  29.976  0.00  0.00     0.021 A 
ATOM     11  C   UNL d   1      59.384  -1.358  29.701  0.00  0.00     0.019 A 
ATOM     12  C   UNL d   1      59.232  -2.123  29.479  0.00  0.00     0.064 A 
ATOM     13  C   UNL d   1      58.484  -2.425  29.516  0.00  0.00     0.019 A 
ATOM     14  C   UNL d   1      57.863  -1.945  29.787  0.00  0.00     0.021 A 
BRANCH  12  15
ATOM     15  N   UNL d   1      59.856  -2.600  29.208  0.00  0.00    -0.300 N 
ATOM     16  C   UNL d   1      59.787  -3.421  29.259  0.00  0.00     0.107 A 
ATOM     17  C   UNL d   1      60.413  -3.887  28.987  0.00  0.00     0.142 A 
ATOM     18  O   UNL d   1      61.084  -3.535  28.676  0.00  0.00    -0.300 OA
ATOM     19  C   UNL d   1      61.131  -2.723  28.636  0.00  0.00     0.142 A 
ATOM     20  C   UNL d   1      60.516  -2.232  28.902  0.00  0.00     0.107 A 
ENDBRANCH  12  15
ENDBRANCH   8   9
ENDBRANCH   4   8
BRANCH   1  21
ATOM     21  C   UNL d   1      56.420  -0.186  33.022  0.00  0.00     0.070 A 
ATOM     22  C   UNL d   1      56.982   0.167  33.541  0.00  0.00     0.018 A 
ATOM     23  C   UNL d   1      56.743   0.481  34.260  0.00  0.00     0.002 A 
ATOM     24  C   UNL d   1      55.942   0.451  34.476  0.00  0.00     0.000 A 
ATOM     25  C   UNL d   1      55.395   0.111  33.978  0.00  0.00     0.002 A 
ATOM     26  C   UNL d   1      55.637  -0.205  33.255  0.00  0.00     0.018 A 
ENDBRANCH   1  21
TORSDOF 4
ENDMDL
