MODEL 1
REMARK VINA RESULT:       2.7      0.000      0.000
REMARK  2 active torsions:
REMARK  status: ('A' for Active; 'I' for Inactive)
REMARK    1  A    between atoms: C_7  and  C_5 
REMARK    2  A    between atoms: C_8  and  C_7 
ROOT
ATOM      1  C   UNL d   1      45.506 -13.200  44.834  0.00  0.00     0.046 C 
ENDROOT
BRANCH   1   2
ATOM      2  C   UNL d   1      45.459 -12.810  44.122  0.00  0.00     0.205 A 
ATOM      3  N   UNL d   1      46.090 -12.414  43.814  0.00  0.00    -0.120 NA
ATOM      4  N   UNL d   1      45.851 -12.086  43.092  0.00  0.00    -0.109 NA
ATOM      5  C   UNL d   1      45.068 -12.300  42.987  0.00  0.00     0.262 A 
ATOM      6  O   UNL d   1      44.828 -12.728  43.588  0.00  0.00    -0.260 OA
ATOM      7  S   UNL d   1      44.587 -12.092  42.324  0.00  0.00    -0.029 SA
ENDBRANCH   1   2
BRANCH   1   8
ATOM      8  C   UNL d   1      45.385 -14.042  44.862  0.00  0.00     0.004 A 
ATOM      9  C   UNL d   1      44.634 -14.378  44.928  0.00  0.00     0.000 A 
ATOM     10  C   UNL d   1      44.531 -15.195  44.955  0.00  0.00     0.000 A 
ATOM     11  C   UNL d   1      45.204 -15.672  44.913  0.00  0.00     0.000 A 
ATOM     12  C   UNL d   1      45.960 -15.357  44.847  0.00  0.00     0.000 A 
ATOM     13  C   UNL d   1      46.042 -14.502  44.821  0.00  0.00     0.000 A 
ENDBRANCH   1   8
TORSDOF 2
ENDMDL
MODEL 2
REMARK VINA RESULT:       3.9      1.775      3.070
REMARK  2 active torsions:
REMARK  status: ('A' for Active; 'I' for Inactive)
REMARK    1  A    between atoms: C_7  and  C_5 
REMARK    2  A    between atoms: C_8  and  C_7 
ROOT
ATOM      1  C   UNL d   1      45.578 -13.002  44.616  0.00  0.00     0.046 C 
ENDROOT
BRANCH   1   2
ATOM      2  C   UNL d   1      45.593 -13.805  44.734  0.00  0.00     0.205 A 
ATOM      3  N   UNL d   1      46.284 -14.204  44.855  0.00  0.00    -0.120 NA
ATOM      4  N   UNL d   1      46.097 -15.004  44.955  0.00  0.00    -0.109 NA
ATOM      5  C   UNL d   1      45.283 -15.063  44.891  0.00  0.00     0.262 A 
ATOM      6  O   UNL d   1      44.976 -14.362  44.761  0.00  0.00    -0.260 OA
ATOM      7  S   UNL d   1      44.836 -15.777  44.955  0.00  0.00    -0.029 SA
ENDBRANCH   1   2
BRANCH   1   8
ATOM      8  C   UNL d   1      45.340 -12.692  43.860  0.00  0.00     0.004 A 
ATOM      9  C   UNL d   1      45.847 -12.677  43.209  0.00  0.00     0.000 A 
ATOM     10  C   UNL d   1      45.604 -12.374  42.482  0.00  0.00     0.000 A 
ATOM     11  C   UNL d   1      44.834 -12.083  42.422  0.00  0.00     0.000 A 
ATOM     12  C   UNL d   1      44.313 -12.088  43.058  0.00  0.00     0.000 A 
ATOM     13  C   UNL d   1      44.590 -12.410  43.806  0.00  0.00     0.000 A 
ENDBRANCH   1   8
TORSDOF 2
ENDMDL
MODEL 3
REMARK VINA RESULT:       4.8      7.236      7.737
REMARK  2 active torsions:
REMARK  status: ('A' for Active; 'I' for Inactive)
REMARK    1  A    between atoms: C_7  and  C_5 
REMARK    2  A    between atoms: C_8  and  C_7 
ROOT
ATOM      1  C   UNL d   1      44.917 -15.967  37.020  0.00  0.00     0.046 C 
ENDROOT
BRANCH   1   2
ATOM      2  C   UNL d   1      45.482 -15.400  36.883  0.00  0.00     0.205 A 
ATOM      3  N   UNL d   1      46.061 -15.502  36.331  0.00  0.00    -0.120 NA
ATOM      4  N   UNL d   1      46.536 -14.824  36.337  0.00  0.00    -0.109 NA
ATOM      5  C   UNL d   1      46.222 -14.326  36.905  0.00  0.00     0.262 A 
ATOM      6  O   UNL d   1      45.601 -14.656  37.233  0.00  0.00    -0.260 OA
ATOM      7  S   UNL d   1      46.524 -13.563  37.110  0.00  0.00    -0.029 SA
ENDBRANCH   1   2
BRANCH   1   8
ATOM      8  C   UNL d   1      44.093 -15.757  36.988  0.00  0.00     0.004 A 
ATOM      9  C   UNL d   1      43.610 -15.961  36.350  0.00  0.00     0.000 A 
ATOM     10  C   UNL d   1      42.813 -15.752  36.332  0.00  0.00     0.000 A 
ATOM     11  C   UNL d   1      42.508 -15.330  36.973  0.00  0.00     0.000 A 
ATOM     12  C   UNL d   1      42.972 -15.117  37.617  0.00  0.00     0.000 A 
ATOM     13  C   UNL d   1      43.801 -15.347  37.613  0.00  0.00     0.000 A 
ENDBRANCH   1   8
TORSDOF 2
ENDMDL
MODEL 4
REMARK VINA RESULT:       5.0      7.395      7.938
REMARK  2 active torsions:
REMARK  status: ('A' for Active; 'I' for Inactive)
REMARK    1  A    between atoms: C_7  and  C_5 
REMARK    2  A    between atoms: C_8  and  C_7 
ROOT
ATOM      1  C   UNL d   1      44.869 -15.726  37.505  0.00  0.00     0.046 C 
ENDROOT
BRANCH   1   2
ATOM      2  C   UNL d   1      44.174 -15.822  37.095  0.00  0.00     0.205 A 
ATOM      3  N   UNL d   1      44.020 -16.492  36.674  0.00  0.00    -0.120 NA
ATOM      4  N   UNL d   1      43.272 -16.405  36.330  0.00  0.00    -0.109 NA
ATOM      5  C   UNL d   1      42.994 -15.670  36.561  0.00  0.00     0.262 A 
ATOM      6  O   UNL d   1      43.519 -15.319  37.012  0.00  0.00    -0.260 OA
ATOM      7  S   UNL d   1      42.248 -15.338  36.344  0.00  0.00    -0.029 SA
ENDBRANCH   1   2
BRANCH   1   8
ATOM      8  C   UNL d   1      45.466 -15.198  37.205  0.00  0.00     0.004 A 
ATOM      9  C   UNL d   1      45.514 -14.408  37.441  0.00  0.00     0.000 A 
ATOM     10  C   UNL d   1      46.096 -13.906  37.143  0.00  0.00     0.000 A 
ATOM     11  C   UNL d   1      46.634 -14.217  36.599  0.00  0.00     0.000 A 
ATOM     12  C   UNL d   1      46.603 -15.001  36.351  0.00  0.00     0.000 A 
ATOM     13  C   UNL d   1      45.986 -15.504  36.677  0.00  0.00     0.000 A 
ENDBRANCH   1   8
TORSDOF 2
ENDMDL
