MODEL 1
REMARK VINA RESULT:      29.3      0.000      0.000
REMARK  2 active torsions:
REMARK  status: ('A' for Active; 'I' for Inactive)
REMARK    1  A    between atoms: C_10  and  N_3 
REMARK    2  A    between atoms: C_11  and  C_4 
ROOT
ATOM      1  C   UNL d   1     -50.663  25.433  33.368  0.00  0.00     0.154 A 
ATOM      2  C   UNL d   1     -51.180  24.798  33.374  0.00  0.00     0.094 A 
ATOM      3  N   UNL d   1     -51.110  26.128  33.381  0.00  0.00    -0.290 N 
ATOM      4  C   UNL d   1     -51.952  25.094  33.392  0.00  0.00     0.025 A 
ATOM      5  C   UNL d   1     -51.905  25.912  33.396  0.00  0.00     0.082 A 
ATOM      6  N   UNL d   1     -49.848  25.307  33.350  0.00  0.00    -0.206 NA
ATOM      7  C   UNL d   1     -50.891  24.025  33.363  0.00  0.00     0.284 A 
ATOM      8  N   UNL d   1     -50.075  23.898  33.346  0.00  0.00    -0.186 NA
ATOM      9  C   UNL d   1     -49.558  24.534  33.339  0.00  0.00     0.203 A 
ATOM     10  O   UNL d   1     -51.408  23.390  33.370  0.00  0.00    -0.265 OA
ENDROOT
BRANCH   3  11
ATOM     11  C   UNL d   1     -50.856  26.902  33.381  0.00  0.00     0.065 A 
ATOM     12  C   UNL d   1     -50.051  27.073  33.444  0.00  0.00     0.018 A 
ATOM     13  C   UNL d   1     -49.792  27.857  33.444  0.00  0.00     0.002 A 
ATOM     14  C   UNL d   1     -50.344  28.480  33.380  0.00  0.00     0.000 A 
ATOM     15  C   UNL d   1     -51.148  28.300  33.317  0.00  0.00     0.002 A 
ATOM     16  C   UNL d   1     -51.402  27.516  33.318  0.00  0.00     0.018 A 
ENDBRANCH   3  11
BRANCH   4  17
ATOM     17  C   UNL d   1     -52.568  24.545  33.401  0.00  0.00     0.002 A 
ATOM     18  C   UNL d   1     -53.350  24.798  33.319  0.00  0.00     0.000 A 
ATOM     19  C   UNL d   1     -53.966  24.248  33.328  0.00  0.00     0.000 A 
ATOM     20  C   UNL d   1     -53.799  23.447  33.418  0.00  0.00     0.000 A 
ATOM     21  C   UNL d   1     -53.016  23.195  33.500  0.00  0.00     0.000 A 
ATOM     22  C   UNL d   1     -52.403  23.741  33.491  0.00  0.00     0.000 A 
ENDBRANCH   4  17
TORSDOF 2
ENDMDL
