MODEL 1
REMARK VINA RESULT:      25.1      0.000      0.000
REMARK  10 active torsions:
REMARK  status: ('A' for Active; 'I' for Inactive)
REMARK       I    between atoms: N_8  and  C_1 
REMARK    1  A    between atoms: C_11  and  C_1 
REMARK    2  A    between atoms: C_2  and  C_12 
REMARK       I    between atoms: N_7  and  C_2 
REMARK    3  A    between atoms: C_3  and  C_19 
REMARK    4  A    between atoms: C_4  and  C_20 
REMARK    5  A    between atoms: C_19  and  N_7 
REMARK    6  A    between atoms: C_20  and  N_8 
REMARK    7  A    between atoms: C_23  and  C_11 
REMARK    8  A    between atoms: C_12  and  C_22 
REMARK    9  A    between atoms: S_21  and  C_23 
REMARK   10  A    between atoms: C_22  and  S_21 
ROOT
ATOM      1  S   UNL d   1      15.165  13.949  -0.651  0.00  0.00    -0.086 SA
ENDROOT
BRANCH   1   2
ATOM      2  C   UNL d   1      14.756  13.217  -0.608  0.00  0.00     0.040 C 
BRANCH   2   3
ATOM      3  C   UNL d   1      14.324  12.945  -1.271  0.00  0.00     0.070 C 
BRANCH   3   4
ATOM      4  C   UNL d   1      14.545  12.208  -1.624  0.00  0.00     0.280 C 
ATOM      5  N   UNL d   1      14.053  11.880  -2.253  0.00  0.00    -0.204 NA
ATOM      6  O   UNL d   1      15.232  11.799  -1.370  0.00  0.00    -0.265 OA
BRANCH   5   7
ATOM      7  C   UNL d   1      13.382  12.273  -2.507  0.00  0.00     0.127 C 
BRANCH   7   8
ATOM      8  C   UNL d   1      13.265  12.443  -3.305  0.00  0.00     0.119 A 
ATOM      9  O   UNL d   1      13.095  11.797  -3.836  0.00  0.00    -0.304 OA
ATOM     10  C   UNL d   1      13.007  12.146  -4.590  0.00  0.00     0.123 A 
ATOM     11  C   UNL d   1      13.110  12.946  -4.553  0.00  0.00     0.029 A 
ATOM     12  C   UNL d   1      13.272  13.129  -3.744  0.00  0.00     0.028 A 
ENDBRANCH   7   8
ENDBRANCH   5   7
ENDBRANCH   3   4
ENDBRANCH   2   3
ENDBRANCH   1   2
BRANCH   1  13
ATOM     13  C   UNL d   1      14.846  14.604  -0.227  0.00  0.00     0.040 C 
BRANCH  13  14
ATOM     14  C   UNL d   1      15.352  15.257  -0.018  0.00  0.00     0.070 C 
BRANCH  14  15
ATOM     15  C   UNL d   1      15.282  15.962  -0.435  0.00  0.00     0.280 C 
ATOM     16  N   UNL d   1      15.125  15.929  -1.286  0.00  0.00    -0.204 NA
ATOM     17  O   UNL d   1      15.356  16.709  -0.067  0.00  0.00    -0.265 OA
BRANCH  16  18
ATOM     18  C   UNL d   1      15.058  16.629  -1.683  0.00  0.00     0.127 C 
BRANCH  18  19
ATOM     19  C   UNL d   1      15.049  16.655  -2.523  0.00  0.00     0.119 A 
ATOM     20  O   UNL d   1      14.683  16.112  -3.025  0.00  0.00    -0.304 OA
ATOM     21  C   UNL d   1      14.830  16.379  -3.831  0.00  0.00     0.123 A 
ATOM     22  C   UNL d   1      15.264  17.047  -3.764  0.00  0.00     0.029 A 
ATOM     23  C   UNL d   1      15.398  17.218  -2.999  0.00  0.00     0.028 A 
ENDBRANCH  18  19
ENDBRANCH  16  18
ENDBRANCH  14  15
ENDBRANCH  13  14
ENDBRANCH   1  13
TORSDOF 10
ENDMDL
MODEL 2
REMARK VINA RESULT:      25.2      1.423      5.111
REMARK  10 active torsions:
REMARK  status: ('A' for Active; 'I' for Inactive)
REMARK       I    between atoms: N_8  and  C_1 
REMARK    1  A    between atoms: C_11  and  C_1 
REMARK    2  A    between atoms: C_2  and  C_12 
REMARK       I    between atoms: N_7  and  C_2 
REMARK    3  A    between atoms: C_3  and  C_19 
REMARK    4  A    between atoms: C_4  and  C_20 
REMARK    5  A    between atoms: C_19  and  N_7 
REMARK    6  A    between atoms: C_20  and  N_8 
REMARK    7  A    between atoms: C_23  and  C_11 
REMARK    8  A    between atoms: C_12  and  C_22 
REMARK    9  A    between atoms: S_21  and  C_23 
REMARK   10  A    between atoms: C_22  and  S_21 
ROOT
ATOM      1  S   UNL d   1      13.103  14.578  -4.670  0.00  0.00    -0.086 SA
ENDROOT
BRANCH   1   2
ATOM      2  C   UNL d   1      13.282  15.314  -4.309  0.00  0.00     0.040 C 
BRANCH   2   3
ATOM      3  C   UNL d   1      13.865  15.351  -3.710  0.00  0.00     0.070 C 
BRANCH   3   4
ATOM      4  C   UNL d   1      14.450  15.961  -3.749  0.00  0.00     0.280 C 
ATOM      5  N   UNL d   1      14.859  16.197  -3.027  0.00  0.00    -0.204 NA
ATOM      6  O   UNL d   1      14.633  16.334  -4.478  0.00  0.00    -0.265 OA
BRANCH   5   7
ATOM      7  C   UNL d   1      14.688  15.838  -2.312  0.00  0.00     0.127 C 
BRANCH   7   8
ATOM      8  C   UNL d   1      14.999  16.128  -1.606  0.00  0.00     0.119 A 
ATOM      9  O   UNL d   1      15.220  15.567  -1.001  0.00  0.00    -0.304 OA
ATOM     10  C   UNL d   1      15.510  16.028  -0.367  0.00  0.00     0.123 A 
ATOM     11  C   UNL d   1      15.481  16.816  -0.543  0.00  0.00     0.029 A 
ATOM     12  C   UNL d   1      15.159  16.874  -1.322  0.00  0.00     0.028 A 
ENDBRANCH   7   8
ENDBRANCH   5   7
ENDBRANCH   3   4
ENDBRANCH   2   3
ENDBRANCH   1   2
BRANCH   1  13
ATOM     13  C   UNL d   1      12.974  13.914  -4.166  0.00  0.00     0.040 C 
BRANCH  13  14
ATOM     14  C   UNL d   1      12.815  13.150  -4.509  0.00  0.00     0.070 C 
BRANCH  14  15
ATOM     15  C   UNL d   1      13.119  12.480  -4.142  0.00  0.00     0.280 C 
ATOM     16  N   UNL d   1      13.263  12.502  -3.288  0.00  0.00    -0.204 NA
ATOM     17  O   UNL d   1      13.295  11.779  -4.563  0.00  0.00    -0.265 OA
BRANCH  16  18
ATOM     18  C   UNL d   1      13.561  11.837  -2.940  0.00  0.00     0.127 C 
BRANCH  18  19
ATOM     19  C   UNL d   1      13.888  11.859  -2.166  0.00  0.00     0.119 A 
ATOM     20  O   UNL d   1      14.684  11.964  -1.974  0.00  0.00    -0.304 OA
ATOM     21  C   UNL d   1      14.738  11.944  -1.114  0.00  0.00     0.123 A 
ATOM     22  C   UNL d   1      13.991  11.831  -0.852  0.00  0.00     0.029 A 
ATOM     23  C   UNL d   1      13.484  11.780  -1.462  0.00  0.00     0.028 A 
ENDBRANCH  18  19
ENDBRANCH  16  18
ENDBRANCH  14  15
ENDBRANCH  13  14
ENDBRANCH   1  13
TORSDOF 10
ENDMDL
MODEL 3
REMARK VINA RESULT:      27.7      1.340      4.028
REMARK  10 active torsions:
REMARK  status: ('A' for Active; 'I' for Inactive)
REMARK       I    between atoms: N_8  and  C_1 
REMARK    1  A    between atoms: C_11  and  C_1 
REMARK    2  A    between atoms: C_2  and  C_12 
REMARK       I    between atoms: N_7  and  C_2 
REMARK    3  A    between atoms: C_3  and  C_19 
REMARK    4  A    between atoms: C_4  and  C_20 
REMARK    5  A    between atoms: C_19  and  N_7 
REMARK    6  A    between atoms: C_20  and  N_8 
REMARK    7  A    between atoms: C_23  and  C_11 
REMARK    8  A    between atoms: C_12  and  C_22 
REMARK    9  A    between atoms: S_21  and  C_23 
REMARK   10  A    between atoms: C_22  and  S_21 
ROOT
ATOM      1  S   UNL d   1      14.396  16.302  -2.251  0.00  0.00    -0.086 SA
ENDROOT
BRANCH   1   2
ATOM      2  C   UNL d   1      14.992  16.066  -1.709  0.00  0.00     0.040 C 
BRANCH   2   3
ATOM      3  C   UNL d   1      14.953  15.308  -1.356  0.00  0.00     0.070 C 
BRANCH   3   4
ATOM      4  C   UNL d   1      15.110  15.238  -0.528  0.00  0.00     0.280 C 
ATOM      5  N   UNL d   1      15.261  14.456  -0.194  0.00  0.00    -0.204 NA
ATOM      6  O   UNL d   1      15.121  15.916  -0.034  0.00  0.00    -0.265 OA
BRANCH   5   7
ATOM      7  C   UNL d   1      15.253  13.790  -0.668  0.00  0.00     0.127 C 
BRANCH   7   8
ATOM      8  C   UNL d   1      14.866  13.103  -0.429  0.00  0.00     0.119 A 
ATOM      9  O   UNL d   1      15.326  12.388  -0.342  0.00  0.00    -0.304 OA
ATOM     10  C   UNL d   1      14.783  11.803  -0.098  0.00  0.00     0.123 A 
ATOM     11  C   UNL d   1      14.037  12.107  -0.031  0.00  0.00     0.029 A 
ATOM     12  C   UNL d   1      14.094  12.924  -0.240  0.00  0.00     0.028 A 
ENDBRANCH   7   8
ENDBRANCH   5   7
ENDBRANCH   3   4
ENDBRANCH   2   3
ENDBRANCH   1   2
BRANCH   1  13
ATOM     13  C   UNL d   1      14.529  16.159  -3.071  0.00  0.00     0.040 C 
BRANCH  13  14
ATOM     14  C   UNL d   1      14.644  15.362  -3.347  0.00  0.00     0.070 C 
BRANCH  14  15
ATOM     15  C   UNL d   1      14.089  15.036  -3.858  0.00  0.00     0.280 C 
ATOM     16  N   UNL d   1      13.808  14.230  -3.710  0.00  0.00    -0.204 NA
ATOM     17  O   UNL d   1      13.786  15.454  -4.516  0.00  0.00    -0.265 OA
BRANCH  16  18
ATOM     18  C   UNL d   1      13.263  13.922  -4.220  0.00  0.00     0.127 C 
BRANCH  18  19
ATOM     19  C   UNL d   1      13.145  13.093  -4.284  0.00  0.00     0.119 A 
ATOM     20  O   UNL d   1      13.357  12.617  -4.925  0.00  0.00    -0.304 OA
ATOM     21  C   UNL d   1      13.121  11.812  -4.727  0.00  0.00     0.123 A 
ATOM     22  C   UNL d   1      12.791  11.854  -4.000  0.00  0.00     0.029 A 
ATOM     23  C   UNL d   1      12.800  12.602  -3.731  0.00  0.00     0.028 A 
ENDBRANCH  18  19
ENDBRANCH  16  18
ENDBRANCH  14  15
ENDBRANCH  13  14
ENDBRANCH   1  13
TORSDOF 10
ENDMDL
MODEL 4
REMARK VINA RESULT:      28.0      1.393      3.188
REMARK  10 active torsions:
REMARK  status: ('A' for Active; 'I' for Inactive)
REMARK       I    between atoms: N_8  and  C_1 
REMARK    1  A    between atoms: C_11  and  C_1 
REMARK    2  A    between atoms: C_2  and  C_12 
REMARK       I    between atoms: N_7  and  C_2 
REMARK    3  A    between atoms: C_3  and  C_19 
REMARK    4  A    between atoms: C_4  and  C_20 
REMARK    5  A    between atoms: C_19  and  N_7 
REMARK    6  A    between atoms: C_20  and  N_8 
REMARK    7  A    between atoms: C_23  and  C_11 
REMARK    8  A    between atoms: C_12  and  C_22 
REMARK    9  A    between atoms: S_21  and  C_23 
REMARK   10  A    between atoms: C_22  and  S_21 
ROOT
ATOM      1  S   UNL d   1      13.510  13.982  -4.542  0.00  0.00    -0.086 SA
ENDROOT
BRANCH   1   2
ATOM      2  C   UNL d   1      12.996  13.355  -4.324  0.00  0.00     0.040 C 
BRANCH   2   3
ATOM      3  C   UNL d   1      13.104  12.969  -3.590  0.00  0.00     0.070 C 
BRANCH   3   4
ATOM      4  C   UNL d   1      13.404  12.178  -3.587  0.00  0.00     0.280 C 
ATOM      5  N   UNL d   1      13.536  11.781  -2.832  0.00  0.00    -0.204 NA
ATOM      6  O   UNL d   1      13.572  11.780  -4.307  0.00  0.00    -0.265 OA
BRANCH   5   7
ATOM      7  C   UNL d   1      13.374  12.161  -2.126  0.00  0.00     0.127 C 
BRANCH   7   8
ATOM      8  C   UNL d   1      13.847  12.041  -1.461  0.00  0.00     0.119 A 
ATOM      9  O   UNL d   1      14.683  12.200  -1.524  0.00  0.00    -0.304 OA
ATOM     10  C   UNL d   1      14.999  12.028  -0.771  0.00  0.00     0.123 A 
ATOM     11  C   UNL d   1      14.423  11.779  -0.263  0.00  0.00     0.029 A 
ATOM     12  C   UNL d   1      13.700  11.789  -0.701  0.00  0.00     0.028 A 
ENDBRANCH   7   8
ENDBRANCH   5   7
ENDBRANCH   3   4
ENDBRANCH   2   3
ENDBRANCH   1   2
BRANCH   1  13
ATOM     13  C   UNL d   1      13.324  14.757  -4.266  0.00  0.00     0.040 C 
BRANCH  13  14
ATOM     14  C   UNL d   1      13.669  15.435  -4.650  0.00  0.00     0.070 C 
BRANCH  14  15
ATOM     15  C   UNL d   1      14.283  15.832  -4.276  0.00  0.00     0.280 C 
ATOM     16  N   UNL d   1      14.413  15.698  -3.430  0.00  0.00    -0.204 NA
ATOM     17  O   UNL d   1      14.788  16.362  -4.681  0.00  0.00    -0.265 OA
BRANCH  16  18
ATOM     18  C   UNL d   1      15.019  16.094  -3.075  0.00  0.00     0.127 C 
BRANCH  18  19
ATOM     19  C   UNL d   1      15.014  16.252  -2.249  0.00  0.00     0.119 A 
ATOM     20  O   UNL d   1      14.972  16.996  -1.894  0.00  0.00    -0.304 OA
ATOM     21  C   UNL d   1      14.983  16.867  -1.042  0.00  0.00     0.123 A 
ATOM     22  C   UNL d   1      15.031  16.076  -0.942  0.00  0.00     0.029 A 
ATOM     23  C   UNL d   1      15.049  15.705  -1.645  0.00  0.00     0.028 A 
ENDBRANCH  18  19
ENDBRANCH  16  18
ENDBRANCH  14  15
ENDBRANCH  13  14
ENDBRANCH   1  13
TORSDOF 10
ENDMDL
