MODEL 1
REMARK VINA RESULT:      70.2      0.000      0.000
REMARK  5 active torsions:
REMARK  status: ('A' for Active; 'I' for Inactive)
REMARK    1  A    between atoms: N_8  and  S_1 
REMARK    2  A    between atoms: C_18  and  S_1 
REMARK    3  A    between atoms: C_13  and  C_3 
REMARK    4  A    between atoms: C_5  and  C_11 
REMARK    5  A    between atoms: C_17  and  N_8 
ROOT
ATOM      1  N   UNL d   1      14.516  15.215  -3.397  0.00  0.00    -0.246 NA
ATOM      2  C   UNL d   1      13.840  13.836  -4.011  0.00  0.00     0.003 A 
ATOM      3  C   UNL d   1      14.117  13.853  -3.232  0.00  0.00     0.018 A 
ATOM      4  C   UNL d   1      14.241  15.201  -4.175  0.00  0.00     0.081 A 
ATOM      5  C   UNL d   1      13.904  14.513  -4.481  0.00  0.00     0.019 A 
ATOM      6  C   UNL d   1      14.454  14.541  -2.926  0.00  0.00     0.081 A 
ATOM      7  C   UNL d   1      14.054  13.176  -2.762  0.00  0.00     0.002 A 
ATOM      8  C   UNL d   1      14.729  14.555  -2.148  0.00  0.00     0.019 A 
ATOM      9  C   UNL d   1      14.331  13.192  -1.983  0.00  0.00     0.000 A 
ATOM     10  C   UNL d   1      14.668  13.880  -1.677  0.00  0.00     0.002 A 
ATOM     11  C   UNL d   1      14.259  12.541  -1.562  0.00  0.00     0.000 C 
ENDROOT
BRANCH   4  12
ATOM     12  C   UNL d   1      14.303  15.875  -4.646  0.00  0.00     0.018 A 
ATOM     13  C   UNL d   1      14.455  16.607  -4.300  0.00  0.00     0.003 A 
ATOM     14  C   UNL d   1      14.517  17.282  -4.771  0.00  0.00     0.020 A 
ATOM     15  C   UNL d   1      14.426  17.223  -5.589  0.00  0.00     0.094 A 
ATOM     16  C   UNL d   1      14.273  16.491  -5.935  0.00  0.00     0.020 A 
ATOM     17  C   UNL d   1      14.211  15.816  -5.463  0.00  0.00     0.003 A 
BRANCH  15  18
ATOM     18  N   UNL d   1      14.488  17.897  -6.060  0.00  0.00    -0.158 NA
BRANCH  18  19
ATOM     19  S   UNL d   1      13.839  18.398  -6.153  0.00  0.00     0.286 S 
ATOM     20  O   UNL d   1      13.230  18.866  -6.239  0.00  0.00    -0.198 OA
ATOM     21  O   UNL d   1      13.361  17.745  -6.327  0.00  0.00    -0.198 OA
BRANCH  19  22
ATOM     22  C   UNL d   1      14.315  19.048  -5.979  0.00  0.00     0.117 C 
ATOM     23  C   UNL d   1      13.830  19.708  -6.077  0.00  0.00     0.014 C 
ENDBRANCH  19  22
ENDBRANCH  18  19
ENDBRANCH  15  18
ENDBRANCH   4  12
BRANCH   2  24
ATOM     24  C   UNL d   1      13.508  13.157  -4.313  0.00  0.00     0.000 A 
ATOM     25  C   UNL d   1      13.107  12.638  -3.814  0.00  0.00     0.000 A 
ATOM     26  C   UNL d   1      12.769  11.949  -4.120  0.00  0.00     0.000 A 
ATOM     27  C   UNL d   1      12.833  11.779  -4.926  0.00  0.00     0.000 A 
ATOM     28  C   UNL d   1      13.236  12.300  -5.424  0.00  0.00     0.000 A 
ATOM     29  C   UNL d   1      13.574  12.990  -5.118  0.00  0.00     0.000 A 
ENDBRANCH   2  24
TORSDOF 5
ENDMDL
MODEL 2
REMARK VINA RESULT:      70.4      0.671      2.155
REMARK  5 active torsions:
REMARK  status: ('A' for Active; 'I' for Inactive)
REMARK    1  A    between atoms: N_8  and  S_1 
REMARK    2  A    between atoms: C_18  and  S_1 
REMARK    3  A    between atoms: C_13  and  C_3 
REMARK    4  A    between atoms: C_5  and  C_11 
REMARK    5  A    between atoms: C_17  and  N_8 
ROOT
ATOM      1  N   UNL d   1      13.585  14.675  -4.697  0.00  0.00    -0.246 NA
ATOM      2  C   UNL d   1      14.123  14.281  -3.184  0.00  0.00     0.003 A 
ATOM      3  C   UNL d   1      13.671  13.742  -3.618  0.00  0.00     0.018 A 
ATOM      4  C   UNL d   1      14.036  15.215  -4.266  0.00  0.00     0.081 A 
ATOM      5  C   UNL d   1      14.305  15.018  -3.511  0.00  0.00     0.019 A 
ATOM      6  C   UNL d   1      13.403  13.939  -4.373  0.00  0.00     0.081 A 
ATOM      7  C   UNL d   1      13.490  13.005  -3.291  0.00  0.00     0.002 A 
ATOM      8  C   UNL d   1      12.952  13.399  -4.804  0.00  0.00     0.019 A 
ATOM      9  C   UNL d   1      13.037  12.466  -3.725  0.00  0.00     0.000 A 
ATOM     10  C   UNL d   1      12.769  12.662  -4.480  0.00  0.00     0.002 A 
ATOM     11  C   UNL d   1      12.881  11.779  -3.393  0.00  0.00     0.000 C 
ENDROOT
BRANCH   4  12
ATOM     12  C   UNL d   1      14.219  15.951  -4.590  0.00  0.00     0.018 A 
ATOM     13  C   UNL d   1      14.738  16.457  -4.199  0.00  0.00     0.003 A 
ATOM     14  C   UNL d   1      14.920  17.193  -4.523  0.00  0.00     0.020 A 
ATOM     15  C   UNL d   1      14.582  17.423  -5.241  0.00  0.00     0.094 A 
ATOM     16  C   UNL d   1      14.063  16.917  -5.632  0.00  0.00     0.020 A 
ATOM     17  C   UNL d   1      13.880  16.180  -5.307  0.00  0.00     0.003 A 
BRANCH  15  18
ATOM     18  N   UNL d   1      14.764  18.159  -5.565  0.00  0.00    -0.158 NA
BRANCH  18  19
ATOM     19  S   UNL d   1      14.170  18.618  -5.907  0.00  0.00     0.286 S 
ATOM     20  O   UNL d   1      13.614  19.049  -6.227  0.00  0.00    -0.198 OA
ATOM     21  O   UNL d   1      13.954  17.981  -6.388  0.00  0.00    -0.198 OA
BRANCH  19  22
ATOM     22  C   UNL d   1      14.385  19.254  -5.427  0.00  0.00     0.117 C 
ATOM     23  C   UNL d   1      14.226  19.929  -5.873  0.00  0.00     0.014 C 
ENDBRANCH  19  22
ENDBRANCH  18  19
ENDBRANCH  15  18
ENDBRANCH   4  12
BRANCH   2  24
ATOM     24  C   UNL d   1      14.388  14.087  -2.439  0.00  0.00     0.000 A 
ATOM     25  C   UNL d   1      14.520  14.680  -1.882  0.00  0.00     0.000 A 
ATOM     26  C   UNL d   1      14.789  14.482  -1.125  0.00  0.00     0.000 A 
ATOM     27  C   UNL d   1      14.926  13.693  -0.927  0.00  0.00     0.000 A 
ATOM     28  C   UNL d   1      14.793  13.100  -1.487  0.00  0.00     0.000 A 
ATOM     29  C   UNL d   1      14.524  13.297  -2.244  0.00  0.00     0.000 A 
ENDBRANCH   2  24
TORSDOF 5
ENDMDL
