MODEL 1
REMARK VINA RESULT:      25.3      0.000      0.000
REMARK  1 active torsions:
REMARK  status: ('A' for Active; 'I' for Inactive)
REMARK    1  A    between atoms: C_11  and  C_3 
ROOT
ATOM      1  C   UNL d   1     -58.200 -98.765 -44.433  0.00  0.00     0.052 A 
ATOM      2  C   UNL d   1     -58.708 -98.762 -45.097  0.00  0.00     0.115 A 
ATOM      3  C   UNL d   1     -57.424 -98.764 -44.695  0.00  0.00     0.011 A 
ATOM      4  C   UNL d   1     -58.536 -98.770 -43.640  0.00  0.00     0.139 A 
ATOM      5  N   UNL d   1     -59.561 -98.762 -44.979  0.00  0.00    -0.217 NA
ATOM      6  S   UNL d   1     -58.253 -98.757 -45.777  0.00  0.00    -0.067 SA
ATOM      7  C   UNL d   1     -57.449 -98.759 -45.525  0.00  0.00     0.037 A 
ATOM      8  N   UNL d   1     -59.356 -98.771 -43.548  0.00  0.00    -0.213 NA
ATOM      9  C   UNL d   1     -59.884 -98.767 -44.238  0.00  0.00     0.200 A 
ATOM     10  S   UNL d   1     -58.050 -98.774 -42.951  0.00  0.00    -0.057 SA
ENDROOT
BRANCH   3  11
ATOM     11  C   UNL d   1     -56.638 -98.764 -44.567  0.00  0.00     0.001 A 
ATOM     12  C   UNL d   1     -56.321 -98.758 -43.805  0.00  0.00     0.000 A 
ATOM     13  C   UNL d   1     -55.498 -98.759 -43.684  0.00  0.00     0.000 A 
ATOM     14  C   UNL d   1     -54.997 -98.766 -44.339  0.00  0.00     0.000 A 
ATOM     15  C   UNL d   1     -55.316 -98.772 -45.100  0.00  0.00     0.000 A 
ATOM     16  C   UNL d   1     -56.135 -98.771 -45.207  0.00  0.00     0.000 A 
ENDBRANCH   3  11
TORSDOF 1
ENDMDL
MODEL 2
REMARK VINA RESULT:      25.5      0.442      1.540
REMARK  1 active torsions:
REMARK  status: ('A' for Active; 'I' for Inactive)
REMARK    1  A    between atoms: C_11  and  C_3 
ROOT
ATOM      1  C   UNL d   1     -58.268 -98.763 -44.584  0.00  0.00     0.052 A 
ATOM      2  C   UNL d   1     -58.772 -98.763 -43.917  0.00  0.00     0.115 A 
ATOM      3  C   UNL d   1     -57.491 -98.766 -44.326  0.00  0.00     0.011 A 
ATOM      4  C   UNL d   1     -58.608 -98.759 -45.375  0.00  0.00     0.139 A 
ATOM      5  N   UNL d   1     -59.626 -98.760 -44.030  0.00  0.00    -0.217 NA
ATOM      6  S   UNL d   1     -58.313 -98.766 -43.240  0.00  0.00    -0.067 SA
ATOM      7  C   UNL d   1     -57.511 -98.768 -43.496  0.00  0.00     0.037 A 
ATOM      8  N   UNL d   1     -59.429 -98.757 -45.463  0.00  0.00    -0.213 NA
ATOM      9  C   UNL d   1     -59.953 -98.757 -44.770  0.00  0.00     0.200 A 
ATOM     10  S   UNL d   1     -58.126 -98.759 -46.067  0.00  0.00    -0.057 SA
ENDROOT
BRANCH   3  11
ATOM     11  C   UNL d   1     -56.706 -98.768 -44.459  0.00  0.00     0.001 A 
ATOM     12  C   UNL d   1     -56.392 -98.756 -45.222  0.00  0.00     0.000 A 
ATOM     13  C   UNL d   1     -55.571 -98.758 -45.348  0.00  0.00     0.000 A 
ATOM     14  C   UNL d   1     -55.065 -98.773 -44.695  0.00  0.00     0.000 A 
ATOM     15  C   UNL d   1     -55.380 -98.784 -43.933  0.00  0.00     0.000 A 
ATOM     16  C   UNL d   1     -56.199 -98.782 -43.821  0.00  0.00     0.000 A 
ENDBRANCH   3  11
TORSDOF 1
ENDMDL
