MODEL 1
REMARK VINA RESULT:      -0.9      0.000      0.000
REMARK  5 active torsions:
REMARK  status: ('A' for Active; 'I' for Inactive)
REMARK    1  A    between atoms: C_16  and  N_5 
REMARK    2  A    between atoms: C_15  and  C_6 
REMARK    3  A    between atoms: C_19  and  C_16 
REMARK    4  A    between atoms: O_20  and  C_17 
REMARK    5  A    between atoms: C_22  and  C_19 
ROOT
ATOM      1  O   UNL d   1      32.920  22.180 -19.957  0.00  0.00    -0.326 OA
ATOM      2  C   UNL d   1      32.785  21.442 -20.314  0.00  0.00     0.118 C 
ATOM      3  C   UNL d   1      33.052  22.913 -19.598  0.00  0.00     0.181 C 
ENDROOT
BRANCH   2   4
ATOM      4  C   UNL d   1      33.090  21.058 -20.985  0.00  0.00     0.045 C 
BRANCH   4   5
ATOM      5  C   UNL d   1      33.241  21.284 -21.775  0.00  0.00     0.086 C 
BRANCH   5   6
ATOM      6  N   UNL d   1      33.132  20.725 -22.387  0.00  0.00    -0.258 N 
ATOM      7  C   UNL d   1      33.133  19.920 -22.218  0.00  0.00     0.272 A 
ATOM      8  C   UNL d   1      33.025  19.373 -22.825  0.00  0.00     0.137 A 
ATOM      9  O   UNL d   1      33.240  19.660 -21.444  0.00  0.00    -0.266 OA
ATOM     10  C   UNL d   1      32.917  19.630 -23.603  0.00  0.00     0.192 A 
ATOM     11  C   UNL d   1      33.025  18.564 -22.656  0.00  0.00     0.205 A 
ATOM     12  N   UNL d   1      32.916  20.430 -23.775  0.00  0.00    -0.204 NA
ATOM     13  O   UNL d   1      32.811  19.081 -24.203  0.00  0.00    -0.289 OA
ATOM     14  C   UNL d   1      33.025  20.986 -23.165  0.00  0.00     0.152 A 
ATOM     15  C   UNL d   1      32.812  18.275 -24.030  0.00  0.00     0.107 A 
ATOM     16  C   UNL d   1      32.919  18.022 -23.255  0.00  0.00     0.062 A 
ATOM     17  C   UNL d   1      32.703  17.720 -24.641  0.00  0.00     0.049 A 
ATOM     18  C   UNL d   1      32.920  17.213 -23.081  0.00  0.00     0.007 A 
ATOM     19  C   UNL d   1      32.813  16.665 -23.690  0.00  0.00     0.024 A 
ATOM     20  C   UNL d   1      32.705  16.918 -24.465  0.00  0.00     0.096 A 
ATOM     21  O   UNL d   1      33.133  18.312 -21.882  0.00  0.00    -0.286 OA
BRANCH  14  22
ATOM     22  C   UNL d   1      33.024  21.792 -23.338  0.00  0.00     0.035 A 
ATOM     23  C   UNL d   1      33.221  22.042 -24.101  0.00  0.00     0.003 A 
ATOM     24  C   UNL d   1      33.220  22.844 -24.272  0.00  0.00     0.000 A 
ATOM     25  C   UNL d   1      33.024  23.396 -23.693  0.00  0.00     0.000 A 
ATOM     26  C   UNL d   1      32.828  23.142 -22.933  0.00  0.00     0.000 A 
ATOM     27  C   UNL d   1      32.828  22.343 -22.760  0.00  0.00     0.003 A 
ENDBRANCH  14  22
BRANCH  20  28
ATOM     28  O   UNL d   1      32.599  16.366 -25.057  0.00  0.00    -0.328 OA
ATOM     29  C   UNL d   1      32.538  15.568 -24.863  0.00  0.00     0.181 C 
ENDBRANCH  20  28
ENDBRANCH   5   6
ENDBRANCH   4   5
ENDBRANCH   2   4
TORSDOF 5
ENDMDL
