MODEL 1
REMARK VINA RESULT:      -2.7      0.000      0.000
REMARK  7 active torsions:
REMARK  status: ('A' for Active; 'I' for Inactive)
REMARK    1  A    between atoms: N_4  and  C_1 
REMARK    2  A    between atoms: C_9  and  C_2 
REMARK    3  A    between atoms: C_7  and  N_4 
REMARK    4  A    between atoms: N_8  and  C_7 
REMARK       I    between atoms: C_10  and  N_8 
REMARK    5  A    between atoms: C_15  and  C_10 
REMARK    6  A    between atoms: C_18  and  C_15 
REMARK    7  A    between atoms: C_19  and  C_18 
ROOT
ATOM      1  C   UNL d   1      32.945  18.337 -23.828  0.00  0.00     0.224 C 
ATOM      2  S   UNL d   1      32.921  18.745 -24.546  0.00  0.00    -0.037 SA
ENDROOT
BRANCH   1   3
ATOM      3  N   UNL d   1      32.914  17.531 -23.811  0.00  0.00    -0.211 NA
BRANCH   3   4
ATOM      4  C   UNL d   1      32.225  17.146 -24.019  0.00  0.00     0.118 A 
ATOM      5  C   UNL d   1      32.075  16.338 -23.942  0.00  0.00     0.084 A 
ATOM      6  C   UNL d   1      31.337  16.198 -24.211  0.00  0.00     0.013 A 
ATOM      7  C   UNL d   1      30.961  15.453 -24.234  0.00  0.00     0.001 C 
ATOM      8  C   UNL d   1      31.014  16.873 -24.454  0.00  0.00     0.031 A 
ATOM      9  S   UNL d   1      31.549  17.469 -24.342  0.00  0.00    -0.068 SA
ATOM     10  C   UNL d   1      30.249  16.937 -24.768  0.00  0.00     0.007 C 
BRANCH   5  11
ATOM     11  C   UNL d   1      32.606  15.773 -23.635  0.00  0.00     0.299 C 
ATOM     12  O   UNL d   1      33.215  15.476 -24.108  0.00  0.00    -0.264 OA
ATOM     13  N   UNL d   1      32.530  15.501 -22.849  0.00  0.00    -0.102 N 
ENDBRANCH   5  11
ENDBRANCH   3   4
ENDBRANCH   1   3
BRANCH   1  14
ATOM     14  N   UNL d   1      33.002  18.749 -23.119  0.00  0.00    -0.179 NA
ATOM     15  C   UNL d   1      33.129  19.544 -23.106  0.00  0.00     0.281 C 
ATOM     16  O   UNL d   1      33.203  19.956 -23.800  0.00  0.00    -0.265 OA
BRANCH  15  17
ATOM     17  C   UNL d   1      33.187  19.964 -22.384  0.00  0.00     0.063 C 
BRANCH  17  18
ATOM     18  C   UNL d   1      32.568  20.412 -22.126  0.00  0.00     0.005 C 
BRANCH  18  19
ATOM     19  C   UNL d   1      32.702  20.960 -21.525  0.00  0.00     0.000 A 
ATOM     20  C   UNL d   1      32.964  20.719 -20.773  0.00  0.00     0.000 A 
ATOM     21  C   UNL d   1      33.093  21.269 -20.190  0.00  0.00     0.000 A 
ATOM     22  C   UNL d   1      32.963  22.082 -20.338  0.00  0.00     0.000 A 
ATOM     23  C   UNL d   1      32.704  22.315 -21.080  0.00  0.00     0.000 A 
ATOM     24  C   UNL d   1      32.576  21.742 -21.669  0.00  0.00     0.000 A 
ENDBRANCH  18  19
ENDBRANCH  17  18
ENDBRANCH  15  17
ENDBRANCH   1  14
TORSDOF 7
ENDMDL
MODEL 2
REMARK VINA RESULT:      -2.5      1.723      5.454
REMARK  7 active torsions:
REMARK  status: ('A' for Active; 'I' for Inactive)
REMARK    1  A    between atoms: N_4  and  C_1 
REMARK    2  A    between atoms: C_9  and  C_2 
REMARK    3  A    between atoms: C_7  and  N_4 
REMARK    4  A    between atoms: N_8  and  C_7 
REMARK       I    between atoms: C_10  and  N_8 
REMARK    5  A    between atoms: C_15  and  C_10 
REMARK    6  A    between atoms: C_18  and  C_15 
REMARK    7  A    between atoms: C_19  and  C_18 
ROOT
ATOM      1  C   UNL d   1      33.092  20.305 -22.740  0.00  0.00     0.224 C 
ATOM      2  S   UNL d   1      33.241  20.631 -23.485  0.00  0.00    -0.037 SA
ENDROOT
BRANCH   1   3
ATOM      3  N   UNL d   1      33.168  20.751 -22.073  0.00  0.00    -0.211 NA
BRANCH   3   4
ATOM      4  C   UNL d   1      32.975  21.544 -22.090  0.00  0.00     0.118 A 
ATOM      5  C   UNL d   1      32.628  21.975 -21.478  0.00  0.00     0.084 A 
ATOM      6  C   UNL d   1      32.536  22.727 -21.728  0.00  0.00     0.013 A 
ATOM      7  C   UNL d   1      32.205  23.351 -21.282  0.00  0.00     0.001 C 
ATOM      8  C   UNL d   1      32.807  22.794 -22.463  0.00  0.00     0.031 A 
ATOM      9  S   UNL d   1      33.082  22.072 -22.703  0.00  0.00    -0.068 SA
ATOM     10  C   UNL d   1      32.800  23.499 -22.901  0.00  0.00     0.007 C 
BRANCH   5  11
ATOM     11  C   UNL d   1      32.413  21.671 -20.732  0.00  0.00     0.299 C 
ATOM     12  O   UNL d   1      31.650  21.382 -20.605  0.00  0.00    -0.264 OA
ATOM     13  N   UNL d   1      32.965  21.655 -20.105  0.00  0.00    -0.102 N 
ENDBRANCH   5  11
ENDBRANCH   3   4
ENDBRANCH   1   3
BRANCH   1  14
ATOM     14  N   UNL d   1      32.864  19.518 -22.670  0.00  0.00    -0.179 NA
ATOM     15  C   UNL d   1      32.937  19.004 -23.286  0.00  0.00     0.281 C 
ATOM     16  O   UNL d   1      33.241  19.257 -23.994  0.00  0.00    -0.265 OA
BRANCH  15  17
ATOM     17  C   UNL d   1      32.706  18.203 -23.215  0.00  0.00     0.063 C 
BRANCH  17  18
ATOM     18  C   UNL d   1      32.537  17.771 -23.875  0.00  0.00     0.005 C 
BRANCH  18  19
ATOM     19  C   UNL d   1      32.243  17.007 -23.781  0.00  0.00     0.000 A 
ATOM     20  C   UNL d   1      31.431  16.845 -23.861  0.00  0.00     0.000 A 
ATOM     21  C   UNL d   1      31.154  16.088 -23.765  0.00  0.00     0.000 A 
ATOM     22  C   UNL d   1      31.680  15.463 -23.586  0.00  0.00     0.000 A 
ATOM     23  C   UNL d   1      32.480  15.627 -23.508  0.00  0.00     0.000 A 
ATOM     24  C   UNL d   1      32.751  16.406 -23.608  0.00  0.00     0.000 A 
ENDBRANCH  18  19
ENDBRANCH  17  18
ENDBRANCH  15  17
ENDBRANCH   1  14
TORSDOF 7
ENDMDL
