MODEL 1
REMARK VINA RESULT:      -4.1      0.000      0.000
REMARK  5 active torsions:
REMARK  status: ('A' for Active; 'I' for Inactive)
REMARK    1  A    between atoms: C_7  and  C_1 
REMARK    2  A    between atoms: C_9  and  C_17 
REMARK       I    between atoms: N_11  and  C_9 
REMARK    3  A    between atoms: S_12  and  C_10 
REMARK    4  A    between atoms: C_13  and  N_11 
REMARK    5  A    between atoms: C_17  and  S_12 
ROOT
ATOM      1  N   UNL d   1      56.651  -0.685  32.099  0.00  0.00    -0.147 NA
ATOM      2  C   UNL d   1      56.631   0.104  32.369  0.00  0.00     0.111 A 
ATOM      3  N   UNL d   1      57.072  -0.869  31.418  0.00  0.00    -0.141 NA
ATOM      4  C   UNL d   1      57.472  -0.274  31.006  0.00  0.00     0.133 A 
ATOM      5  C   UNL d   1      57.026   0.682  31.959  0.00  0.00     0.024 A 
ATOM      6  C   UNL d   1      57.443   0.501  31.285  0.00  0.00     0.029 A 
ENDROOT
BRANCH   4   7
ATOM      7  S   UNL d   1      57.895  -0.460  30.322  0.00  0.00    -0.061 SA
BRANCH   7   8
ATOM      8  C   UNL d   1      57.919  -1.241  30.046  0.00  0.00     0.099 C 
BRANCH   8   9
ATOM      9  C   UNL d   1      58.544  -1.489  29.585  0.00  0.00     0.286 C 
ATOM     10  N   UNL d   1      59.049  -2.086  29.848  0.00  0.00    -0.208 NA
ATOM     11  O   UNL d   1      58.683  -1.142  28.839  0.00  0.00    -0.265 OA
BRANCH  10  12
ATOM     12  C   UNL d   1      59.684  -2.340  29.383  0.00  0.00     0.086 A 
ATOM     13  C   UNL d   1      59.736  -3.133  29.161  0.00  0.00     0.031 A 
ATOM     14  C   UNL d   1      60.373  -3.392  28.694  0.00  0.00     0.059 A 
ATOM     15 CL   UNL d   1      60.427  -4.190  28.470  0.00  0.00    -0.082 Cl
ATOM     16  C   UNL d   1      60.948  -2.845  28.457  0.00  0.00     0.011 A 
ATOM     17  C   UNL d   1      60.891  -2.055  28.682  0.00  0.00     0.002 A 
ATOM     18  C   UNL d   1      60.261  -1.798  29.144  0.00  0.00     0.019 A 
ENDBRANCH  10  12
ENDBRANCH   8   9
ENDBRANCH   7   8
ENDBRANCH   4   7
BRANCH   2  19
ATOM     19  C   UNL d   1      56.204   0.285  33.056  0.00  0.00     0.068 A 
ATOM     20  C   UNL d   1      56.541   0.505  33.784  0.00  0.00     0.089 A 
ATOM     21  N   UNL d   1      55.912   0.634  34.316  0.00  0.00    -0.238 NA
ATOM     22  C   UNL d   1      57.337   0.580  33.944  0.00  0.00     0.021 C 
ATOM     23  C   UNL d   1      55.206   0.494  33.915  0.00  0.00     0.111 A 
ATOM     24  S   UNL d   1      55.389   0.279  33.140  0.00  0.00    -0.065 SA
ATOM     25  C   UNL d   1      54.447   0.560  34.243  0.00  0.00     0.028 C 
ENDBRANCH   2  19
TORSDOF 5
ENDMDL
MODEL 2
REMARK VINA RESULT:      -3.2      1.057      1.446
REMARK  5 active torsions:
REMARK  status: ('A' for Active; 'I' for Inactive)
REMARK    1  A    between atoms: C_7  and  C_1 
REMARK    2  A    between atoms: C_9  and  C_17 
REMARK       I    between atoms: N_11  and  C_9 
REMARK    3  A    between atoms: S_12  and  C_10 
REMARK    4  A    between atoms: C_13  and  N_11 
REMARK    5  A    between atoms: C_17  and  S_12 
ROOT
ATOM      1  N   UNL d   1      55.886  -0.551  32.957  0.00  0.00    -0.147 NA
ATOM      2  C   UNL d   1      56.148   0.142  33.341  0.00  0.00     0.111 A 
ATOM      3  N   UNL d   1      56.194  -0.746  32.221  0.00  0.00    -0.141 NA
ATOM      4  C   UNL d   1      56.758  -0.257  31.865  0.00  0.00     0.133 A 
ATOM      5  C   UNL d   1      56.702   0.616  32.986  0.00  0.00     0.024 A 
ATOM      6  C   UNL d   1      57.007   0.424  32.257  0.00  0.00     0.029 A 
ENDROOT
BRANCH   4   7
ATOM      7  S   UNL d   1      57.067  -0.454  31.125  0.00  0.00    -0.061 SA
BRANCH   7   8
ATOM      8  C   UNL d   1      57.772  -0.108  30.861  0.00  0.00     0.099 C 
BRANCH   8   9
ATOM      9  C   UNL d   1      58.174  -0.436  30.233  0.00  0.00     0.286 C 
ATOM     10  N   UNL d   1      58.720  -1.042  30.355  0.00  0.00    -0.208 NA
ATOM     11  O   UNL d   1      58.039  -0.164  29.456  0.00  0.00    -0.265 OA
BRANCH  10  12
ATOM     12  C   UNL d   1      59.130  -1.378  29.720  0.00  0.00     0.086 A 
ATOM     13  C   UNL d   1      58.949  -2.145  29.477  0.00  0.00     0.031 A 
ATOM     14  C   UNL d   1      59.359  -2.486  28.839  0.00  0.00     0.059 A 
ATOM     15 CL   UNL d   1      59.178  -3.258  28.593  0.00  0.00    -0.082 Cl
ATOM     16  C   UNL d   1      59.946  -2.046  28.455  0.00  0.00     0.011 A 
ATOM     17  C   UNL d   1      60.123  -1.280  28.702  0.00  0.00     0.002 A 
ATOM     18  C   UNL d   1      59.717  -0.943  29.333  0.00  0.00     0.019 A 
ENDBRANCH  10  12
ENDBRANCH   8   9
ENDBRANCH   7   8
ENDBRANCH   4   7
BRANCH   2  19
ATOM     19  C   UNL d   1      55.835   0.335  34.083  0.00  0.00     0.068 A 
ATOM     20  C   UNL d   1      55.040   0.528  34.232  0.00  0.00     0.089 A 
ATOM     21  N   UNL d   1      54.975   0.682  35.049  0.00  0.00    -0.238 NA
ATOM     22  C   UNL d   1      54.441   0.561  33.681  0.00  0.00     0.021 C 
ATOM     23  C   UNL d   1      55.718   0.582  35.389  0.00  0.00     0.111 A 
ATOM     24  S   UNL d   1      56.247   0.369  34.791  0.00  0.00    -0.065 SA
ATOM     25  C   UNL d   1      55.896   0.682  36.193  0.00  0.00     0.028 C 
ENDBRANCH   2  19
TORSDOF 5
ENDMDL
MODEL 3
REMARK VINA RESULT:      -2.0      2.331      6.048
REMARK  5 active torsions:
REMARK  status: ('A' for Active; 'I' for Inactive)
REMARK    1  A    between atoms: C_7  and  C_1 
REMARK    2  A    between atoms: C_9  and  C_17 
REMARK       I    between atoms: N_11  and  C_9 
REMARK    3  A    between atoms: S_12  and  C_10 
REMARK    4  A    between atoms: C_13  and  N_11 
REMARK    5  A    between atoms: C_17  and  S_12 
ROOT
ATOM      1  N   UNL d   1      58.499  -2.053  30.557  0.00  0.00    -0.147 NA
ATOM      2  C   UNL d   1      58.763  -1.809  29.804  0.00  0.00     0.111 A 
ATOM      3  N   UNL d   1      58.042  -1.544  31.010  0.00  0.00    -0.141 NA
ATOM      4  C   UNL d   1      57.845  -0.795  30.719  0.00  0.00     0.133 A 
ATOM      5  C   UNL d   1      58.566  -1.074  29.525  0.00  0.00     0.024 A 
ATOM      6  C   UNL d   1      58.113  -0.568  29.973  0.00  0.00     0.029 A 
ENDROOT
BRANCH   4   7
ATOM      7  S   UNL d   1      57.385  -0.283  31.175  0.00  0.00    -0.061 SA
BRANCH   7   8
ATOM      8  C   UNL d   1      56.683  -0.552  31.524  0.00  0.00     0.099 C 
BRANCH   8   9
ATOM      9  C   UNL d   1      56.361  -0.145  32.152  0.00  0.00     0.286 C 
ATOM     10  N   UNL d   1      55.937  -0.544  32.737  0.00  0.00    -0.208 NA
ATOM     11  O   UNL d   1      56.456   0.681  32.214  0.00  0.00    -0.265 OA
BRANCH  10  12
ATOM     12  C   UNL d   1      55.609  -0.135  33.376  0.00  0.00     0.086 A 
ATOM     13  C   UNL d   1      56.077   0.042  34.032  0.00  0.00     0.031 A 
ATOM     14  C   UNL d   1      55.751   0.454  34.676  0.00  0.00     0.059 A 
ATOM     15 CL   UNL d   1      56.221   0.633  35.337  0.00  0.00    -0.082 Cl
ATOM     16  C   UNL d   1      54.955   0.681  34.649  0.00  0.00     0.011 A 
ATOM     17  C   UNL d   1      54.492   0.502  33.991  0.00  0.00     0.002 A 
ATOM     18  C   UNL d   1      54.815   0.095  33.354  0.00  0.00     0.019 A 
ENDBRANCH  10  12
ENDBRANCH   8   9
ENDBRANCH   7   8
ENDBRANCH   4   7
BRANCH   2  19
ATOM     19  C   UNL d   1      59.224  -2.327  29.350  0.00  0.00     0.068 A 
ATOM     20  C   UNL d   1      59.927  -2.121  28.956  0.00  0.00     0.089 A 
ATOM     21  N   UNL d   1      60.203  -2.809  28.573  0.00  0.00    -0.238 NA
ATOM     22  C   UNL d   1      60.278  -1.386  28.949  0.00  0.00     0.021 C 
ATOM     23  C   UNL d   1      59.674  -3.420  28.732  0.00  0.00     0.111 A 
ATOM     24  S   UNL d   1      59.072  -3.121  29.211  0.00  0.00    -0.065 SA
ATOM     25  C   UNL d   1      59.743  -4.199  28.455  0.00  0.00     0.028 C 
ENDBRANCH   2  19
TORSDOF 5
ENDMDL
