MODEL 1
REMARK VINA RESULT:     122.9      0.000      0.000
REMARK  4 active torsions:
REMARK  status: ('A' for Active; 'I' for Inactive)
REMARK    1  A    between atoms: C_5  and  C_1 
REMARK    2  A    between atoms: C_11  and  C_2 
REMARK       I    between atoms: C_12  and  N_3 
REMARK    3  A    between atoms: C_15  and  N_7 
REMARK    4  A    between atoms: C_14  and  C_9 
ROOT
ATOM      1  C   UNL d   1     -55.781-100.884 -43.342  0.00  0.00     0.057 A 
ATOM      2  C   UNL d   1     -55.727-101.213 -44.111  0.00  0.00     0.110 A 
ATOM      3  N   UNL d   1     -56.307-100.839 -44.575  0.00  0.00    -0.165 NA
ATOM      4  N   UNL d   1     -56.702-100.289 -44.079  0.00  0.00    -0.228 N 
ATOM      5  C   UNL d   1     -56.369-100.332 -43.340  0.00  0.00     0.103 A 
ENDROOT
BRANCH   1   6
ATOM      6  C   UNL d   1     -55.542-100.826 -42.566  0.00  0.00     0.091 A 
ATOM      7  N   UNL d   1     -55.229-100.135 -42.208  0.00  0.00    -0.195 N 
ATOM      8  N   UNL d   1     -55.056-100.316 -41.406  0.00  0.00    -0.163 NA
ATOM      9  C   UNL d   1     -55.102 -99.406 -42.548  0.00  0.00     0.281 C 
ATOM     10  C   UNL d   1     -55.261-101.098 -41.283  0.00  0.00     0.103 A 
ATOM     11  C   UNL d   1     -55.558-101.421 -41.982  0.00  0.00     0.040 A 
ATOM     12  O   UNL d   1     -55.304 -99.321 -43.350  0.00  0.00    -0.265 OA
ATOM     13  C   UNL d   1     -54.786 -98.769 -42.123  0.00  0.00     0.068 C 
BRANCH  10  14
ATOM     14  C   UNL d   1     -55.192-101.531 -40.575  0.00  0.00     0.019 A 
ATOM     15  C   UNL d   1     -55.551-102.278 -40.517  0.00  0.00     0.002 A 
ATOM     16  C   UNL d   1     -55.499-102.719 -39.841  0.00  0.00     0.000 A 
ATOM     17  C   UNL d   1     -55.085-102.429 -39.193  0.00  0.00     0.000 A 
ATOM     18  C   UNL d   1     -54.728-101.686 -39.247  0.00  0.00     0.000 A 
ATOM     19  C   UNL d   1     -55.016-102.861 -38.484  0.00  0.00     0.000 C 
ATOM     20  C   UNL d   1     -54.778-101.240 -39.926  0.00  0.00     0.002 A 
ENDBRANCH  10  14
ENDBRANCH   1   6
BRANCH   2  21
ATOM     21  C   UNL d   1     -55.497-101.666 -44.763  0.00  0.00     0.049 A 
ATOM     22  S   UNL d   1     -55.267-102.458 -44.725  0.00  0.00    -0.085 SA
ATOM     23  C   UNL d   1     -55.085-102.679 -45.517  0.00  0.00     0.035 A 
ATOM     24  C   UNL d   1     -55.206-102.032 -46.009  0.00  0.00     0.007 A 
ATOM     25  C   UNL d   1     -55.465-101.398 -45.530  0.00  0.00     0.009 A 
ENDBRANCH   2  21
BRANCH   4  26
ATOM     26  C   UNL d   1     -57.329 -99.793 -44.333  0.00  0.00     0.083 A 
ATOM     27  C   UNL d   1     -57.213 -99.252 -44.938  0.00  0.00     0.019 A 
ATOM     28  C   UNL d   1     -57.849 -98.786 -45.158  0.00  0.00     0.002 A 
ATOM     29  C   UNL d   1     -58.589 -98.834 -44.803  0.00  0.00     0.000 A 
ATOM     30  C   UNL d   1     -58.690 -99.392 -44.187  0.00  0.00     0.002 A 
ATOM     31  C   UNL d   1     -58.077 -99.867 -43.950  0.00  0.00     0.019 A 
ENDBRANCH   4  26
TORSDOF 4
ENDMDL
