MODEL 1
REMARK VINA RESULT:      -8.4      0.000      0.000
REMARK  2 active torsions:
REMARK  status: ('A' for Active; 'I' for Inactive)
REMARK    1  A    between atoms: C_3  and  C_1 
REMARK       I    between atoms: N_7  and  C_3 
REMARK    2  A    between atoms: C_11  and  N_7 
ROOT
ATOM      1  C   UNL d   1     -48.707  13.720  22.873  0.00  0.00     0.121 A 
ATOM      2  C   UNL d   1     -49.348  13.204  22.962  0.00  0.00     0.305 A 
ATOM      3  C   UNL d   1     -48.815  14.521  23.014  0.00  0.00     0.012 A 
ATOM      4  O   UNL d   1     -50.089  13.482  23.191  0.00  0.00    -0.273 OA
ATOM      5  C   UNL d   1     -49.551  14.813  23.243  0.00  0.00     0.023 A 
ATOM      6  C   UNL d   1     -50.189  14.288  23.331  0.00  0.00     0.103 A 
ATOM      7  O   UNL d   1     -49.242  12.385  22.819  0.00  0.00    -0.259 OA
ATOM      8  C   UNL d   1     -49.661  15.617  23.386  0.00  0.00     0.002 A 
ATOM      9  C   UNL d   1     -50.932  14.576  23.561  0.00  0.00     0.025 A 
ATOM     10  C   UNL d   1     -50.386  15.898  23.611  0.00  0.00     0.000 A 
ATOM     11  C   UNL d   1     -51.024  15.371  23.698  0.00  0.00     0.002 A 
ENDROOT
BRANCH   1  12
ATOM     12  C   UNL d   1     -47.965  13.432  22.643  0.00  0.00     0.284 C 
ATOM     13  N   UNL d   1     -47.324  13.506  23.164  0.00  0.00    -0.208 NA
ATOM     14  O   UNL d   1     -47.879  13.082  21.910  0.00  0.00    -0.265 OA
BRANCH  13  15
ATOM     15  C   UNL d   1     -46.584  13.215  22.924  0.00  0.00     0.085 A 
ATOM     16  C   UNL d   1     -46.094  13.654  22.418  0.00  0.00     0.021 A 
ATOM     17  C   UNL d   1     -45.367  13.356  22.189  0.00  0.00     0.031 A 
ATOM     18  C   UNL d   1     -45.116  12.623  22.456  0.00  0.00     0.140 A 
ATOM     19  C   UNL d   1     -45.601  12.177  22.963  0.00  0.00     0.031 A 
ATOM     20  F   UNL d   1     -44.394  12.327  22.228  0.00  0.00    -0.204 F 
ATOM     21  C   UNL d   1     -46.339  12.477  23.197  0.00  0.00     0.021 A 
ENDBRANCH  13  15
ENDBRANCH   1  12
TORSDOF 2
ENDMDL
MODEL 2
REMARK VINA RESULT:      -7.7      0.827      1.242
REMARK  2 active torsions:
REMARK  status: ('A' for Active; 'I' for Inactive)
REMARK    1  A    between atoms: C_3  and  C_1 
REMARK       I    between atoms: N_7  and  C_3 
REMARK    2  A    between atoms: C_11  and  N_7 
ROOT
ATOM      1  C   UNL d   1     -48.414  14.271  22.674  0.00  0.00     0.121 A 
ATOM      2  C   UNL d   1     -48.423  15.076  22.486  0.00  0.00     0.305 A 
ATOM      3  C   UNL d   1     -49.076  13.933  23.022  0.00  0.00     0.012 A 
ATOM      4  O   UNL d   1     -49.085  15.542  22.642  0.00  0.00    -0.273 OA
ATOM      5  C   UNL d   1     -49.745  14.386  23.184  0.00  0.00     0.023 A 
ATOM      6  C   UNL d   1     -49.746  15.195  22.992  0.00  0.00     0.103 A 
ATOM      7  O   UNL d   1     -47.749  15.426  22.131  0.00  0.00    -0.259 OA
ATOM      8  C   UNL d   1     -50.411  14.049  23.533  0.00  0.00     0.002 A 
ATOM      9  C   UNL d   1     -50.417  15.656  23.152  0.00  0.00     0.025 A 
ATOM     10  C   UNL d   1     -51.064  14.499  23.689  0.00  0.00     0.000 A 
ATOM     11  C   UNL d   1     -51.064  15.308  23.496  0.00  0.00     0.002 A 
ENDROOT
BRANCH   1  12
ATOM     12  C   UNL d   1     -47.745  13.810  22.514  0.00  0.00     0.284 C 
ATOM     13  N   UNL d   1     -47.135  13.773  23.076  0.00  0.00    -0.208 NA
ATOM     14  O   UNL d   1     -47.697  13.401  21.809  0.00  0.00    -0.265 OA
BRANCH  13  15
ATOM     15  C   UNL d   1     -46.469  13.308  22.906  0.00  0.00     0.085 A 
ATOM     16  C   UNL d   1     -45.871  13.584  22.400  0.00  0.00     0.021 A 
ATOM     17  C   UNL d   1     -45.219  13.116  22.241  0.00  0.00     0.031 A 
ATOM     18  C   UNL d   1     -45.150  12.372  22.578  0.00  0.00     0.140 A 
ATOM     19  C   UNL d   1     -45.743  12.089  23.086  0.00  0.00     0.031 A 
ATOM     20  F   UNL d   1     -44.501  11.908  22.419  0.00  0.00    -0.204 F 
ATOM     21  C   UNL d   1     -46.406  12.561  23.249  0.00  0.00     0.021 A 
ENDBRANCH  13  15
ENDBRANCH   1  12
TORSDOF 2
ENDMDL
MODEL 3
REMARK VINA RESULT:      -7.5      1.561      1.966
REMARK  2 active torsions:
REMARK  status: ('A' for Active; 'I' for Inactive)
REMARK    1  A    between atoms: C_3  and  C_1 
REMARK       I    between atoms: N_7  and  C_3 
REMARK    2  A    between atoms: C_11  and  N_7 
ROOT
ATOM      1  C   UNL d   1     -48.132  12.296  23.268  0.00  0.00     0.121 A 
ATOM      2  C   UNL d   1     -48.322  11.508  23.432  0.00  0.00     0.305 A 
ATOM      3  C   UNL d   1     -48.730  12.857  23.248  0.00  0.00     0.012 A 
ATOM      4  O   UNL d   1     -49.100  11.280  23.575  0.00  0.00    -0.273 OA
ATOM      5  C   UNL d   1     -49.514  12.643  23.390  0.00  0.00     0.023 A 
ATOM      6  C   UNL d   1     -49.696  11.849  23.554  0.00  0.00     0.103 A 
ATOM      7  O   UNL d   1     -47.713  10.932  23.453  0.00  0.00    -0.259 OA
ATOM      8  C   UNL d   1     -50.116  13.205  23.371  0.00  0.00     0.002 A 
ATOM      9  C   UNL d   1     -50.482  11.627  23.697  0.00  0.00     0.025 A 
ATOM     10  C   UNL d   1     -50.883  12.988  23.510  0.00  0.00     0.000 A 
ATOM     11  C   UNL d   1     -51.064  12.193  23.674  0.00  0.00     0.002 A 
ENDROOT
BRANCH   1  12
ATOM     12  C   UNL d   1     -47.346  12.518  23.125  0.00  0.00     0.284 C 
ATOM     13  N   UNL d   1     -47.157  12.902  22.414  0.00  0.00    -0.208 NA
ATOM     14  O   UNL d   1     -46.774  12.356  23.685  0.00  0.00    -0.265 OA
BRANCH  13  15
ATOM     15  C   UNL d   1     -46.368  13.120  22.280  0.00  0.00     0.085 A 
ATOM     16  C   UNL d   1     -46.062  13.831  22.580  0.00  0.00     0.021 A 
ATOM     17  C   UNL d   1     -45.283  14.035  22.442  0.00  0.00     0.031 A 
ATOM     18  C   UNL d   1     -44.796  13.540  22.005  0.00  0.00     0.140 A 
ATOM     19  C   UNL d   1     -45.093  12.827  21.701  0.00  0.00     0.031 A 
ATOM     20  F   UNL d   1     -44.020  13.744  21.868  0.00  0.00    -0.204 F 
ATOM     21  C   UNL d   1     -45.884  12.617  21.840  0.00  0.00     0.021 A 
ENDBRANCH  13  15
ENDBRANCH   1  12
TORSDOF 2
ENDMDL
MODEL 4
REMARK VINA RESULT:      -7.2      2.472      5.056
REMARK  2 active torsions:
REMARK  status: ('A' for Active; 'I' for Inactive)
REMARK    1  A    between atoms: C_3  and  C_1 
REMARK       I    between atoms: N_7  and  C_3 
REMARK    2  A    between atoms: C_11  and  N_7 
ROOT
ATOM      1  C   UNL d   1     -46.381  11.989  23.044  0.00  0.00     0.121 A 
ATOM      2  C   UNL d   1     -45.821  12.476  22.679  0.00  0.00     0.305 A 
ATOM      3  C   UNL d   1     -46.138  11.281  23.381  0.00  0.00     0.012 A 
ATOM      4  O   UNL d   1     -45.026  12.261  22.650  0.00  0.00    -0.273 OA
ATOM      5  C   UNL d   1     -45.346  11.054  23.360  0.00  0.00     0.023 A 
ATOM      6  C   UNL d   1     -44.790  11.549  22.991  0.00  0.00     0.103 A 
ATOM      7  O   UNL d   1     -46.065  13.199  22.333  0.00  0.00    -0.259 OA
ATOM      8  C   UNL d   1     -45.100  10.344  23.698  0.00  0.00     0.002 A 
ATOM      9  C   UNL d   1     -43.992  11.326  22.966  0.00  0.00     0.025 A 
ATOM     10  C   UNL d   1     -44.321  10.127  23.673  0.00  0.00     0.000 A 
ATOM     11  C   UNL d   1     -43.766  10.623  23.304  0.00  0.00     0.002 A 
ENDROOT
BRANCH   1  12
ATOM     12  C   UNL d   1     -47.179  12.211  23.069  0.00  0.00     0.284 C 
ATOM     13  N   UNL d   1     -47.755  11.686  22.786  0.00  0.00    -0.208 NA
ATOM     14  O   UNL d   1     -47.383  12.942  23.371  0.00  0.00    -0.265 OA
BRANCH  13  15
ATOM     15  C   UNL d   1     -48.551  11.918  22.816  0.00  0.00     0.085 A 
ATOM     16  C   UNL d   1     -48.924  12.257  22.156  0.00  0.00     0.021 A 
ATOM     17  C   UNL d   1     -49.709  12.482  22.198  0.00  0.00     0.031 A 
ATOM     18  C   UNL d   1     -50.135  12.375  22.890  0.00  0.00     0.140 A 
ATOM     19  C   UNL d   1     -49.770  12.036  23.555  0.00  0.00     0.031 A 
ATOM     20  F   UNL d   1     -50.916  12.599  22.931  0.00  0.00    -0.204 F 
ATOM     21  C   UNL d   1     -48.973  11.807  23.515  0.00  0.00     0.021 A 
ENDBRANCH  13  15
ENDBRANCH   1  12
TORSDOF 2
ENDMDL
MODEL 5
REMARK VINA RESULT:      -6.7      8.035     10.571
REMARK  2 active torsions:
REMARK  status: ('A' for Active; 'I' for Inactive)
REMARK    1  A    between atoms: C_3  and  C_1 
REMARK       I    between atoms: N_7  and  C_3 
REMARK    2  A    between atoms: C_11  and  N_7 
ROOT
ATOM      1  C   UNL d   1     -39.552  14.263  17.632  0.00  0.00     0.121 A 
ATOM      2  C   UNL d   1     -39.250  13.501  17.524  0.00  0.00     0.305 A 
ATOM      3  C   UNL d   1     -39.371  14.848  17.086  0.00  0.00     0.012 A 
ATOM      4  O   UNL d   1     -38.771  13.322  16.878  0.00  0.00    -0.273 OA
ATOM      5  C   UNL d   1     -38.892  14.683  16.435  0.00  0.00     0.023 A 
ATOM      6  C   UNL d   1     -38.593  13.914  16.334  0.00  0.00     0.103 A 
ATOM      7  O   UNL d   1     -39.433  12.900  18.079  0.00  0.00    -0.259 OA
ATOM      8  C   UNL d   1     -38.709  15.269  15.885  0.00  0.00     0.002 A 
ATOM      9  C   UNL d   1     -38.111  13.742  15.681  0.00  0.00     0.025 A 
ATOM     10  C   UNL d   1     -38.239  15.100  15.249  0.00  0.00     0.000 A 
ATOM     11  C   UNL d   1     -37.940  14.331  15.148  0.00  0.00     0.002 A 
ENDROOT
BRANCH   1  12
ATOM     12  C   UNL d   1     -40.034  14.435  18.284  0.00  0.00     0.284 C 
ATOM     13  N   UNL d   1     -39.766  14.977  18.852  0.00  0.00    -0.208 NA
ATOM     14  O   UNL d   1     -40.761  14.069  18.355  0.00  0.00    -0.265 OA
BRANCH  13  15
ATOM     15  C   UNL d   1     -40.256  15.143  19.502  0.00  0.00     0.085 A 
ATOM     16  C   UNL d   1     -40.801  15.769  19.480  0.00  0.00     0.021 A 
ATOM     17  C   UNL d   1     -41.277  15.922  20.126  0.00  0.00     0.031 A 
ATOM     18  C   UNL d   1     -41.222  15.460  20.801  0.00  0.00     0.140 A 
ATOM     19  C   UNL d   1     -40.679  14.832  20.832  0.00  0.00     0.031 A 
ATOM     20  F   UNL d   1     -41.697  15.614  21.444  0.00  0.00    -0.204 F 
ATOM     21  C   UNL d   1     -40.194  14.674  20.177  0.00  0.00     0.021 A 
ENDBRANCH  13  15
ENDBRANCH   1  12
TORSDOF 2
ENDMDL
MODEL 6
REMARK VINA RESULT:      -6.4      8.773      9.576
REMARK  2 active torsions:
REMARK  status: ('A' for Active; 'I' for Inactive)
REMARK    1  A    between atoms: C_3  and  C_1 
REMARK       I    between atoms: N_7  and  C_3 
REMARK    2  A    between atoms: C_11  and  N_7 
ROOT
ATOM      1  C   UNL d   1     -39.760  14.679  20.942  0.00  0.00     0.121 A 
ATOM      2  C   UNL d   1     -39.849  15.232  21.551  0.00  0.00     0.305 A 
ATOM      3  C   UNL d   1     -39.283  14.023  21.063  0.00  0.00     0.012 A 
ATOM      4  O   UNL d   1     -39.467  15.133  22.274  0.00  0.00    -0.273 OA
ATOM      5  C   UNL d   1     -38.894  13.911  21.782  0.00  0.00     0.023 A 
ATOM      6  C   UNL d   1     -38.989  14.471  22.388  0.00  0.00     0.103 A 
ATOM      7  O   UNL d   1     -40.336  15.904  21.432  0.00  0.00    -0.259 OA
ATOM      8  C   UNL d   1     -38.415  13.252  21.905  0.00  0.00     0.002 A 
ATOM      9  C   UNL d   1     -38.601  14.364  23.113  0.00  0.00     0.025 A 
ATOM     10  C   UNL d   1     -38.036  13.149  22.613  0.00  0.00     0.000 A 
ATOM     11  C   UNL d   1     -38.132  13.709  23.219  0.00  0.00     0.002 A 
ENDROOT
BRANCH   1  12
ATOM     12  C   UNL d   1     -40.148  14.786  20.218  0.00  0.00     0.284 C 
ATOM     13  N   UNL d   1     -39.698  14.932  19.536  0.00  0.00    -0.208 NA
ATOM     14  O   UNL d   1     -40.963  14.746  20.188  0.00  0.00    -0.265 OA
BRANCH  13  15
ATOM     15  C   UNL d   1     -40.096  15.038  18.815  0.00  0.00     0.085 A 
ATOM     16  C   UNL d   1     -40.343  15.791  18.567  0.00  0.00     0.021 A 
ATOM     17  C   UNL d   1     -40.733  15.881  17.855  0.00  0.00     0.031 A 
ATOM     18  C   UNL d   1     -40.886  15.231  17.379  0.00  0.00     0.140 A 
ATOM     19  C   UNL d   1     -40.642  14.474  17.620  0.00  0.00     0.031 A 
ATOM     20  F   UNL d   1     -41.275  15.323  16.670  0.00  0.00    -0.204 F 
ATOM     21  C   UNL d   1     -40.245  14.379  18.342  0.00  0.00     0.021 A 
ENDBRANCH  13  15
ENDBRANCH   1  12
TORSDOF 2
ENDMDL
MODEL 7
REMARK VINA RESULT:      -6.4      8.577     10.137
REMARK  2 active torsions:
REMARK  status: ('A' for Active; 'I' for Inactive)
REMARK    1  A    between atoms: C_3  and  C_1 
REMARK       I    between atoms: N_7  and  C_3 
REMARK    2  A    between atoms: C_11  and  N_7 
ROOT
ATOM      1  C   UNL d   1     -39.779  14.349  18.820  0.00  0.00     0.121 A 
ATOM      2  C   UNL d   1     -40.589  14.356  18.984  0.00  0.00     0.305 A 
ATOM      3  C   UNL d   1     -39.254  14.631  19.384  0.00  0.00     0.012 A 
ATOM      4  O   UNL d   1     -40.876  14.640  19.702  0.00  0.00    -0.273 OA
ATOM      5  C   UNL d   1     -39.526  14.919  20.107  0.00  0.00     0.023 A 
ATOM      6  C   UNL d   1     -40.342  14.922  20.264  0.00  0.00     0.103 A 
ATOM      7  O   UNL d   1     -41.129  14.069  18.410  0.00  0.00    -0.259 OA
ATOM      8  C   UNL d   1     -39.000  15.202  20.675  0.00  0.00     0.002 A 
ATOM      9  C   UNL d   1     -40.622  15.209  20.989  0.00  0.00     0.025 A 
ATOM     10  C   UNL d   1     -39.275  15.483  21.383  0.00  0.00     0.000 A 
ATOM     11  C   UNL d   1     -40.091  15.485  21.538  0.00  0.00     0.002 A 
ENDROOT
BRANCH   1  12
ATOM     12  C   UNL d   1     -39.499  14.062  18.095  0.00  0.00     0.284 C 
ATOM     13  N   UNL d   1     -39.018  14.549  17.625  0.00  0.00    -0.208 NA
ATOM     14  O   UNL d   1     -39.700  13.307  17.857  0.00  0.00    -0.265 OA
BRANCH  13  15
ATOM     15  C   UNL d   1     -38.743  14.252  16.901  0.00  0.00     0.085 A 
ATOM     16  C   UNL d   1     -38.228  13.601  16.872  0.00  0.00     0.021 A 
ATOM     17  C   UNL d   1     -37.963  13.318  16.152  0.00  0.00     0.031 A 
ATOM     18  C   UNL d   1     -38.203  13.672  15.453  0.00  0.00     0.140 A 
ATOM     19  C   UNL d   1     -38.718  14.324  15.473  0.00  0.00     0.031 A 
ATOM     20  F   UNL d   1     -37.940  13.390  14.737  0.00  0.00    -0.204 F 
ATOM     21  C   UNL d   1     -38.989  14.614  16.202  0.00  0.00     0.021 A 
ENDBRANCH  13  15
ENDBRANCH   1  12
TORSDOF 2
ENDMDL
MODEL 8
REMARK VINA RESULT:      -6.3      8.548      9.273
REMARK  2 active torsions:
REMARK  status: ('A' for Active; 'I' for Inactive)
REMARK    1  A    between atoms: C_3  and  C_1 
REMARK       I    between atoms: N_7  and  C_3 
REMARK    2  A    between atoms: C_11  and  N_7 
ROOT
ATOM      1  C   UNL d   1     -40.263  14.911  19.782  0.00  0.00     0.121 A 
ATOM      2  C   UNL d   1     -40.767  15.565  19.740  0.00  0.00     0.305 A 
ATOM      3  C   UNL d   1     -39.997  14.564  19.088  0.00  0.00     0.012 A 
ATOM      4  O   UNL d   1     -41.005  15.872  19.013  0.00  0.00    -0.273 OA
ATOM      5  C   UNL d   1     -40.227  14.861  18.354  0.00  0.00     0.023 A 
ATOM      6  C   UNL d   1     -40.734  15.518  18.320  0.00  0.00     0.103 A 
ATOM      7  O   UNL d   1     -41.042  15.922  20.447  0.00  0.00    -0.259 OA
ATOM      8  C   UNL d   1     -39.961  14.514  17.655  0.00  0.00     0.002 A 
ATOM      9  C   UNL d   1     -40.969  15.821  17.585  0.00  0.00     0.025 A 
ATOM     10  C   UNL d   1     -40.190  14.810  16.938  0.00  0.00     0.000 A 
ATOM     11  C   UNL d   1     -40.697  15.468  16.906  0.00  0.00     0.002 A 
ENDROOT
BRANCH   1  12
ATOM     12  C   UNL d   1     -40.028  14.608  20.517  0.00  0.00     0.284 C 
ATOM     13  N   UNL d   1     -39.240  14.701  20.760  0.00  0.00    -0.208 NA
ATOM     14  O   UNL d   1     -40.575  14.224  20.987  0.00  0.00    -0.265 OA
BRANCH  13  15
ATOM     15  C   UNL d   1     -39.015  14.394  21.497  0.00  0.00     0.085 A 
ATOM     16  C   UNL d   1     -38.866  13.583  21.598  0.00  0.00     0.021 A 
ATOM     17  C   UNL d   1     -38.645  13.293  22.329  0.00  0.00     0.031 A 
ATOM     18  C   UNL d   1     -38.568  13.798  22.970  0.00  0.00     0.140 A 
ATOM     19  C   UNL d   1     -38.716  14.611  22.879  0.00  0.00     0.031 A 
ATOM     20  F   UNL d   1     -38.348  13.509  23.698  0.00  0.00    -0.204 F 
ATOM     21  C   UNL d   1     -38.940  14.908  22.137  0.00  0.00     0.021 A 
ENDBRANCH  13  15
ENDBRANCH   1  12
TORSDOF 2
ENDMDL
