MODEL 1
REMARK VINA RESULT:      -8.1      0.000      0.000
REMARK  3 active torsions:
REMARK  status: ('A' for Active; 'I' for Inactive)
REMARK    1  A    between atoms: N_5  and  C_1 
REMARK    2  A    between atoms: C_7  and  N_4 
REMARK    3  A    between atoms: C_12  and  C_7 
ROOT
ATOM      1  C   UNL d   1     -46.349  12.206  23.353  0.00  0.00     0.232 A 
ATOM      2  N   UNL d   1     -46.167  12.973  23.131  0.00  0.00    -0.204 NA
ATOM      3  C   UNL d   1     -47.156  12.136  23.460  0.00  0.00     0.141 A 
ATOM      4  N   UNL d   1     -47.498  12.880  23.302  0.00  0.00    -0.282 N 
ATOM      5  C   UNL d   1     -46.881  13.402  23.097  0.00  0.00     0.150 A 
ATOM      6 BR   UNL d   1     -47.581  11.454  23.687  0.00  0.00    -0.026 Br
ATOM      7  C   UNL d   1     -46.942  14.226  22.887  0.00  0.00     0.041 C 
ENDROOT
BRANCH   4   8
ATOM      8  C   UNL d   1     -48.287  13.152  23.318  0.00  0.00     0.082 C 
BRANCH   8   9
ATOM      9  C   UNL d   1     -48.820  12.964  22.712  0.00  0.00     0.018 A 
ATOM     10  C   UNL d   1     -49.406  12.405  22.841  0.00  0.00     0.002 A 
ATOM     11  C   UNL d   1     -49.944  12.206  22.249  0.00  0.00     0.000 A 
ATOM     12  C   UNL d   1     -49.909  12.561  21.515  0.00  0.00     0.000 A 
ATOM     13  C   UNL d   1     -49.318  13.131  21.368  0.00  0.00     0.000 A 
ATOM     14  C   UNL d   1     -48.770  13.346  21.945  0.00  0.00     0.002 A 
ENDBRANCH   8   9
ENDBRANCH   4   8
BRANCH   1  15
ATOM     15  N   UNL d   1     -45.807  11.604  23.451  0.00  0.00    -0.093 N 
ATOM     16  O   UNL d   1     -45.985  10.830  23.698  0.00  0.00    -0.530 OA
ATOM     17  O   UNL d   1     -45.001  11.680  23.319  0.00  0.00    -0.530 OA
ENDBRANCH   1  15
TORSDOF 3
ENDMDL
MODEL 2
REMARK VINA RESULT:      -7.9      2.769      3.835
REMARK  3 active torsions:
REMARK  status: ('A' for Active; 'I' for Inactive)
REMARK    1  A    between atoms: N_5  and  C_1 
REMARK    2  A    between atoms: C_7  and  N_4 
REMARK    3  A    between atoms: C_12  and  C_7 
ROOT
ATOM      1  C   UNL d   1     -49.766  14.521  22.769  0.00  0.00     0.232 A 
ATOM      2  N   UNL d   1     -50.250  13.861  22.756  0.00  0.00    -0.204 NA
ATOM      3  C   UNL d   1     -49.011  14.314  22.539  0.00  0.00     0.141 A 
ATOM      4  N   UNL d   1     -49.013  13.496  22.373  0.00  0.00    -0.282 N 
ATOM      5  C   UNL d   1     -49.785  13.214  22.509  0.00  0.00     0.150 A 
ATOM      6 BR   UNL d   1     -48.344  14.813  22.473  0.00  0.00    -0.026 Br
ATOM      7  C   UNL d   1     -50.073  12.416  22.419  0.00  0.00     0.041 C 
ENDROOT
BRANCH   4   8
ATOM      8  C   UNL d   1     -48.415  12.972  22.117  0.00  0.00     0.082 C 
BRANCH   8   9
ATOM      9  C   UNL d   1     -47.857  12.664  22.646  0.00  0.00     0.018 A 
ATOM     10  C   UNL d   1     -47.096  12.969  22.663  0.00  0.00     0.002 A 
ATOM     11  C   UNL d   1     -46.528  12.675  23.183  0.00  0.00     0.000 A 
ATOM     12  C   UNL d   1     -46.708  12.068  23.698  0.00  0.00     0.000 A 
ATOM     13  C   UNL d   1     -47.478  11.746  23.693  0.00  0.00     0.000 A 
ATOM     14  C   UNL d   1     -48.061  12.025  23.182  0.00  0.00     0.002 A 
ENDBRANCH   8   9
ENDBRANCH   4   8
BRANCH   1  15
ATOM     15  N   UNL d   1     -50.004  15.274  22.982  0.00  0.00    -0.093 N 
ATOM     16  O   UNL d   1     -50.475  15.779  22.518  0.00  0.00    -0.530 OA
ATOM     17  O   UNL d   1     -49.809  15.639  23.690  0.00  0.00    -0.530 OA
ENDBRANCH   1  15
TORSDOF 3
ENDMDL
MODEL 3
REMARK VINA RESULT:      -7.9      1.505      1.949
REMARK  3 active torsions:
REMARK  status: ('A' for Active; 'I' for Inactive)
REMARK    1  A    between atoms: N_5  and  C_1 
REMARK    2  A    between atoms: C_7  and  N_4 
REMARK    3  A    between atoms: C_12  and  C_7 
ROOT
ATOM      1  C   UNL d   1     -47.111  12.539  23.331  0.00  0.00     0.232 A 
ATOM      2  N   UNL d   1     -47.643  12.022  23.677  0.00  0.00    -0.204 NA
ATOM      3  C   UNL d   1     -47.507  13.047  22.829  0.00  0.00     0.141 A 
ATOM      4  N   UNL d   1     -48.316  12.848  22.856  0.00  0.00    -0.282 N 
ATOM      5  C   UNL d   1     -48.401  12.209  23.384  0.00  0.00     0.150 A 
ATOM      6 BR   UNL d   1     -47.181  13.660  22.365  0.00  0.00    -0.026 Br
ATOM      7  C   UNL d   1     -49.119  11.803  23.603  0.00  0.00     0.041 C 
ENDROOT
BRANCH   4   8
ATOM      8  C   UNL d   1     -48.987  13.163  22.470  0.00  0.00     0.082 C 
BRANCH   8   9
ATOM      9  C   UNL d   1     -49.344  13.863  22.730  0.00  0.00     0.018 A 
ATOM     10  C   UNL d   1     -49.966  13.831  23.264  0.00  0.00     0.002 A 
ATOM     11  C   UNL d   1     -50.334  14.517  23.534  0.00  0.00     0.000 A 
ATOM     12  C   UNL d   1     -50.089  15.252  23.276  0.00  0.00     0.000 A 
ATOM     13  C   UNL d   1     -49.457  15.302  22.733  0.00  0.00     0.000 A 
ATOM     14  C   UNL d   1     -49.076  14.628  22.450  0.00  0.00     0.002 A 
ENDBRANCH   8   9
ENDBRANCH   4   8
BRANCH   1  15
ATOM     15  N   UNL d   1     -46.305  12.545  23.468  0.00  0.00    -0.093 N 
ATOM     16  O   UNL d   1     -45.799  11.889  23.395  0.00  0.00    -0.530 OA
ATOM     17  O   UNL d   1     -45.880  13.207  23.698  0.00  0.00    -0.530 OA
ENDBRANCH   1  15
TORSDOF 3
ENDMDL
MODEL 4
REMARK VINA RESULT:      -7.9      2.167      3.414
REMARK  3 active torsions:
REMARK  status: ('A' for Active; 'I' for Inactive)
REMARK    1  A    between atoms: N_5  and  C_1 
REMARK    2  A    between atoms: C_7  and  N_4 
REMARK    3  A    between atoms: C_12  and  C_7 
ROOT
ATOM      1  C   UNL d   1     -49.271  12.122  22.746  0.00  0.00     0.232 A 
ATOM      2  N   UNL d   1     -48.914  11.424  22.982  0.00  0.00    -0.204 NA
ATOM      3  C   UNL d   1     -48.806  12.757  22.966  0.00  0.00     0.141 A 
ATOM      4  N   UNL d   1     -48.133  12.454  23.353  0.00  0.00    -0.282 N 
ATOM      5  C   UNL d   1     -48.200  11.624  23.364  0.00  0.00     0.150 A 
ATOM      6 BR   UNL d   1     -48.959  13.568  22.836  0.00  0.00    -0.026 Br
ATOM      7  C   UNL d   1     -47.654  11.059  23.696  0.00  0.00     0.041 C 
ENDROOT
BRANCH   4   8
ATOM      8  C   UNL d   1     -47.468  12.824  23.698  0.00  0.00     0.082 C 
BRANCH   8   9
ATOM      9  C   UNL d   1     -46.836  13.092  23.235  0.00  0.00     0.018 A 
ATOM     10  C   UNL d   1     -46.793  13.881  23.017  0.00  0.00     0.002 A 
ATOM     11  C   UNL d   1     -46.171  14.165  22.556  0.00  0.00     0.000 A 
ATOM     12  C   UNL d   1     -45.577  13.666  22.303  0.00  0.00     0.000 A 
ATOM     13  C   UNL d   1     -45.605  12.860  22.516  0.00  0.00     0.000 A 
ATOM     14  C   UNL d   1     -46.218  12.555  22.976  0.00  0.00     0.002 A 
ENDBRANCH   8   9
ENDBRANCH   4   8
BRANCH   1  15
ATOM     15  N   UNL d   1     -49.984  12.175  22.351  0.00  0.00    -0.093 N 
ATOM     16  O   UNL d   1     -50.075  12.264  21.529  0.00  0.00    -0.530 OA
ATOM     17  O   UNL d   1     -50.719  12.147  22.716  0.00  0.00    -0.530 OA
ENDBRANCH   1  15
TORSDOF 3
ENDMDL
