MODEL 1
REMARK VINA RESULT:       1.4      0.000      0.000
REMARK  2 active torsions:
REMARK  status: ('A' for Active; 'I' for Inactive)
REMARK    1  A    between atoms: C_7  and  C_5 
REMARK    2  A    between atoms: C_8  and  C_7 
ROOT
ATOM      1  C   UNL d   1      24.721  13.126  -1.915  0.00  0.00     0.046 C 
ENDROOT
BRANCH   1   2
ATOM      2  C   UNL d   1      24.716  12.761  -2.641  0.00  0.00     0.205 A 
ATOM      3  N   UNL d   1      24.662  11.960  -2.713  0.00  0.00    -0.120 NA
ATOM      4  N   UNL d   1      24.672  11.779  -3.521  0.00  0.00    -0.109 NA
ATOM      5  C   UNL d   1      24.734  12.493  -3.917  0.00  0.00     0.262 A 
ATOM      6  O   UNL d   1      24.761  13.077  -3.408  0.00  0.00    -0.260 OA
ATOM      7  S   UNL d   1      24.765  12.586  -4.757  0.00  0.00    -0.029 SA
ENDBRANCH   1   2
BRANCH   1   8
ATOM      8  C   UNL d   1      24.298  12.775  -1.264  0.00  0.00     0.004 A 
ATOM      9  C   UNL d   1      24.578  12.109  -0.865  0.00  0.00     0.000 A 
ATOM     10  C   UNL d   1      24.159  11.779  -0.236  0.00  0.00     0.000 A 
ATOM     11  C   UNL d   1      23.448  12.136  -0.015  0.00  0.00     0.000 A 
ATOM     12  C   UNL d   1      23.152  12.799  -0.400  0.00  0.00     0.000 A 
ATOM     13  C   UNL d   1      23.607  13.125  -1.053  0.00  0.00     0.000 A 
ENDBRANCH   1   8
TORSDOF 2
ENDMDL
