MODEL 1
REMARK VINA RESULT:      44.0      0.000      0.000
REMARK  3 active torsions:
REMARK  status: ('A' for Active; 'I' for Inactive)
REMARK       I    between atoms: C_3  and  N_1 
REMARK    1  A    between atoms: C_5  and  C_3 
REMARK    2  A    between atoms: C_9  and  C_4 
REMARK    3  A    between atoms: C_14  and  C_6 
ROOT
ATOM      1  N   UNL d   1      13.994  13.184  -2.661  0.00  0.00    -0.193 N 
ATOM      2  N   UNL d   1      14.289  13.855  -2.264  0.00  0.00    -0.162 NA
ATOM      3  C   UNL d   1      13.952  12.438  -2.320  0.00  0.00     0.303 C 
ATOM      4  C   UNL d   1      14.240  14.497  -2.789  0.00  0.00     0.109 A 
ATOM      5  C   UNL d   1      13.771  13.431  -3.421  0.00  0.00     0.088 A 
ATOM      6  C   UNL d   1      13.920  14.233  -3.504  0.00  0.00     0.041 A 
ATOM      7  O   UNL d   1      13.647  11.779  -2.750  0.00  0.00    -0.263 OA
ENDROOT
BRANCH   3   8
ATOM      8  C   UNL d   1      14.196  12.305  -1.571  0.00  0.00     0.158 A 
ATOM      9  O   UNL d   1      14.989  12.294  -1.312  0.00  0.00    -0.296 OA
ATOM     10  C   UNL d   1      14.990  12.138  -0.504  0.00  0.00     0.134 A 
ATOM     11 BR   UNL d   1      15.684  12.078  -0.015  0.00  0.00    -0.022 Br
ATOM     12  C   UNL d   1      14.222  12.054  -0.268  0.00  0.00     0.034 A 
ATOM     13  C   UNL d   1      13.732  12.153  -0.907  0.00  0.00     0.032 A 
ENDBRANCH   3   8
BRANCH   5  14
ATOM     14  C   UNL d   1      13.617  13.190  -3.696  0.00  0.00     0.018 A 
ATOM     15  C   UNL d   1      13.052  12.611  -3.534  0.00  0.00     0.002 A 
ATOM     16  C   UNL d   1      12.781  12.153  -4.151  0.00  0.00     0.000 A 
ATOM     17  C   UNL d   1      13.040  12.237  -4.915  0.00  0.00     0.000 A 
ATOM     18  C   UNL d   1      13.605  12.816  -5.077  0.00  0.00     0.000 A 
ATOM     19  C   UNL d   1      12.769  11.780  -5.530  0.00  0.00     0.000 C 
ATOM     20  C   UNL d   1      13.894  13.292  -4.469  0.00  0.00     0.002 A 
ENDBRANCH   5  14
BRANCH   4  21
ATOM     21  C   UNL d   1      14.470  15.275  -2.636  0.00  0.00     0.049 A 
ATOM     22  S   UNL d   1      14.668  15.540  -1.896  0.00  0.00    -0.085 SA
ATOM     23  C   UNL d   1      14.864  16.355  -1.991  0.00  0.00     0.035 A 
ATOM     24  C   UNL d   1      14.781  16.567  -2.784  0.00  0.00     0.007 A 
ATOM     25  C   UNL d   1      14.535  15.880  -3.168  0.00  0.00     0.009 A 
ENDBRANCH   4  21
TORSDOF 3
ENDMDL
