MODEL 1
REMARK VINA RESULT:      -9.4      0.000      0.000
REMARK  2 active torsions:
REMARK  status: ('A' for Active; 'I' for Inactive)
REMARK    1  A    between atoms: C_9  and  N_2 
REMARK    2  A    between atoms: C_7  and  C_4 
ROOT
ATOM      1  C   UNL d   1     -47.611  12.783  23.166  0.00  0.00     0.136 A 
ATOM      2  N   UNL d   1     -48.427  12.879  23.070  0.00  0.00    -0.281 N 
ATOM      3  C   UNL d   1     -47.311  12.041  23.375  0.00  0.00     0.152 A 
ATOM      4  C   UNL d   1     -48.939  12.232  23.184  0.00  0.00     0.175 A 
ATOM      5  N   UNL d   1     -48.631  11.494  23.393  0.00  0.00    -0.188 NA
ATOM      6  C   UNL d   1     -47.818  11.400  23.488  0.00  0.00     0.292 A 
ATOM      7  C   UNL d   1     -46.498  11.946  23.470  0.00  0.00     0.108 C 
ATOM      8  N   UNL d   1     -45.680  11.847  23.567  0.00  0.00    -0.191 NA
ATOM      9  S   UNL d   1     -47.098  13.419  23.054  0.00  0.00    -0.058 SA
ATOM     10  O   UNL d   1     -47.506  10.659  23.698  0.00  0.00    -0.264 OA
ENDROOT
BRANCH   2  11
ATOM     11  C   UNL d   1     -48.729  13.613  22.862  0.00  0.00     0.066 A 
ATOM     12  C   UNL d   1     -48.810  13.810  22.065  0.00  0.00     0.020 A 
ATOM     13  C   UNL d   1     -49.114  14.548  21.860  0.00  0.00     0.031 A 
ATOM     14  C   UNL d   1     -49.337  15.087  22.446  0.00  0.00     0.140 A 
ATOM     15  C   UNL d   1     -49.254  14.886  23.246  0.00  0.00     0.031 A 
ATOM     16  F   UNL d   1     -49.641  15.827  22.232  0.00  0.00    -0.204 F 
ATOM     17  C   UNL d   1     -48.950  14.148  23.453  0.00  0.00     0.020 A 
ENDBRANCH   2  11
BRANCH   4  18
ATOM     18  C   UNL d   1     -49.752  12.327  23.089  0.00  0.00     0.135 A 
ATOM     19  O   UNL d   1     -50.159  12.302  22.377  0.00  0.00    -0.302 OA
ATOM     20  C   UNL d   1     -50.954  12.422  22.541  0.00  0.00     0.123 A 
ATOM     21  C   UNL d   1     -51.038  12.521  23.353  0.00  0.00     0.029 A 
ATOM     22  C   UNL d   1     -50.304  12.463  23.698  0.00  0.00     0.030 A 
ENDBRANCH   4  18
TORSDOF 2
ENDMDL
MODEL 2
REMARK VINA RESULT:      -8.5      1.783      3.104
REMARK  2 active torsions:
REMARK  status: ('A' for Active; 'I' for Inactive)
REMARK    1  A    between atoms: C_9  and  N_2 
REMARK    2  A    between atoms: C_7  and  C_4 
ROOT
ATOM      1  C   UNL d   1     -48.896  14.375  22.895  0.00  0.00     0.136 A 
ATOM      2  N   UNL d   1     -48.536  13.632  22.886  0.00  0.00    -0.281 N 
ATOM      3  C   UNL d   1     -49.704  14.434  23.067  0.00  0.00     0.152 A 
ATOM      4  C   UNL d   1     -48.985  12.949  23.048  0.00  0.00     0.175 A 
ATOM      5  N   UNL d   1     -49.791  13.016  23.219  0.00  0.00    -0.188 NA
ATOM      6  C   UNL d   1     -50.149  13.758  23.228  0.00  0.00     0.292 A 
ATOM      7  C   UNL d   1     -50.062  15.176  23.076  0.00  0.00     0.108 C 
ATOM      8  N   UNL d   1     -50.427  15.921  23.086  0.00  0.00    -0.191 NA
ATOM      9  S   UNL d   1     -48.459  15.056  22.735  0.00  0.00    -0.058 SA
ATOM     10  O   UNL d   1     -50.959  13.828  23.399  0.00  0.00    -0.264 OA
ENDROOT
BRANCH   2  11
ATOM     11  C   UNL d   1     -47.735  13.569  22.716  0.00  0.00     0.066 A 
ATOM     12  C   UNL d   1     -47.493  13.425  21.940  0.00  0.00     0.020 A 
ATOM     13  C   UNL d   1     -46.689  13.363  21.773  0.00  0.00     0.031 A 
ATOM     14  C   UNL d   1     -46.128  13.442  22.376  0.00  0.00     0.140 A 
ATOM     15  C   UNL d   1     -46.375  13.586  23.154  0.00  0.00     0.031 A 
ATOM     16  F   UNL d   1     -45.322  13.378  22.200  0.00  0.00    -0.204 F 
ATOM     17  C   UNL d   1     -47.179  13.649  23.322  0.00  0.00     0.020 A 
ENDBRANCH   2  11
BRANCH   4  18
ATOM     18  C   UNL d   1     -48.627  12.207  23.039  0.00  0.00     0.135 A 
ATOM     19  O   UNL d   1     -48.522  11.731  22.378  0.00  0.00    -0.302 OA
ATOM     20  C   UNL d   1     -48.143  11.046  22.623  0.00  0.00     0.123 A 
ATOM     21  C   UNL d   1     -48.013  11.098  23.434  0.00  0.00     0.029 A 
ATOM     22  C   UNL d   1     -48.307  11.808  23.698  0.00  0.00     0.030 A 
ENDBRANCH   4  18
TORSDOF 2
ENDMDL
MODEL 3
REMARK VINA RESULT:      -8.0      2.202      3.898
REMARK  2 active torsions:
REMARK  status: ('A' for Active; 'I' for Inactive)
REMARK    1  A    between atoms: C_9  and  N_2 
REMARK    2  A    between atoms: C_7  and  C_4 
ROOT
ATOM      1  C   UNL d   1     -49.313  13.762  22.830  0.00  0.00     0.136 A 
ATOM      2  N   UNL d   1     -48.526  13.513  22.786  0.00  0.00    -0.281 N 
ATOM      3  C   UNL d   1     -49.491  14.566  22.744  0.00  0.00     0.152 A 
ATOM      4  C   UNL d   1     -47.920  14.069  22.656  0.00  0.00     0.175 A 
ATOM      5  N   UNL d   1     -48.106  14.870  22.571  0.00  0.00    -0.188 NA
ATOM      6  C   UNL d   1     -48.890  15.117  22.615  0.00  0.00     0.292 A 
ATOM      7  C   UNL d   1     -50.276  14.814  22.788  0.00  0.00     0.108 C 
ATOM      8  N   UNL d   1     -51.064  15.066  22.831  0.00  0.00    -0.191 NA
ATOM      9  S   UNL d   1     -49.920  13.218  22.958  0.00  0.00    -0.058 SA
ATOM     10  O   UNL d   1     -49.079  15.922  22.530  0.00  0.00    -0.264 OA
ENDROOT
BRANCH   2  11
ATOM     11  C   UNL d   1     -48.345  12.717  22.871  0.00  0.00     0.066 A 
ATOM     12  C   UNL d   1     -48.139  12.423  23.614  0.00  0.00     0.020 A 
ATOM     13  C   UNL d   1     -47.958  11.624  23.696  0.00  0.00     0.031 A 
ATOM     14  C   UNL d   1     -47.982  11.119  23.041  0.00  0.00     0.140 A 
ATOM     15  C   UNL d   1     -48.189  11.418  22.296  0.00  0.00     0.031 A 
ATOM     16  F   UNL d   1     -47.799  10.317  23.131  0.00  0.00    -0.204 F 
ATOM     17  C   UNL d   1     -48.371  12.218  22.213  0.00  0.00     0.020 A 
ENDBRANCH   2  11
BRANCH   4  18
ATOM     18  C   UNL d   1     -47.135  13.822  22.612  0.00  0.00     0.135 A 
ATOM     19  O   UNL d   1     -46.767  13.504  21.951  0.00  0.00    -0.302 OA
ATOM     20  C   UNL d   1     -45.990  13.338  22.155  0.00  0.00     0.123 A 
ATOM     21  C   UNL d   1     -45.878  13.552  22.942  0.00  0.00     0.029 A 
ATOM     22  C   UNL d   1     -46.576  13.851  23.230  0.00  0.00     0.030 A 
ENDBRANCH   4  18
TORSDOF 2
ENDMDL
MODEL 4
REMARK VINA RESULT:      -7.3      1.809      2.959
REMARK  2 active torsions:
REMARK  status: ('A' for Active; 'I' for Inactive)
REMARK    1  A    between atoms: C_9  and  N_2 
REMARK    2  A    between atoms: C_7  and  C_4 
ROOT
ATOM      1  C   UNL d   1     -48.885  12.357  23.116  0.00  0.00     0.136 A 
ATOM      2  N   UNL d   1     -48.632  13.108  22.882  0.00  0.00    -0.281 N 
ATOM      3  C   UNL d   1     -49.693  12.216  23.229  0.00  0.00     0.152 A 
ATOM      4  C   UNL d   1     -49.189  13.716  22.761  0.00  0.00     0.175 A 
ATOM      5  N   UNL d   1     -49.994  13.567  22.876  0.00  0.00    -0.188 NA
ATOM      6  C   UNL d   1     -50.245  12.818  23.109  0.00  0.00     0.292 A 
ATOM      7  C   UNL d   1     -49.944  11.467  23.463  0.00  0.00     0.108 C 
ATOM      8  N   UNL d   1     -50.201  10.714  23.698  0.00  0.00    -0.191 NA
ATOM      9  S   UNL d   1     -48.341  11.749  23.238  0.00  0.00    -0.058 SA
ATOM     10  O   UNL d   1     -51.053  12.666  23.225  0.00  0.00    -0.264 OA
ENDROOT
BRANCH   2  11
ATOM     11  C   UNL d   1     -47.832  13.252  22.769  0.00  0.00     0.066 A 
ATOM     12  C   UNL d   1     -47.496  13.126  22.026  0.00  0.00     0.020 A 
ATOM     13  C   UNL d   1     -46.693  13.271  21.916  0.00  0.00     0.031 A 
ATOM     14  C   UNL d   1     -46.226  13.541  22.543  0.00  0.00     0.140 A 
ATOM     15  C   UNL d   1     -46.567  13.666  23.288  0.00  0.00     0.031 A 
ATOM     16  F   UNL d   1     -45.419  13.685  22.424  0.00  0.00    -0.204 F 
ATOM     17  C   UNL d   1     -47.370  13.521  23.400  0.00  0.00     0.020 A 
ENDBRANCH   2  11
BRANCH   4  18
ATOM     18  C   UNL d   1     -48.938  14.465  22.528  0.00  0.00     0.135 A 
ATOM     19  O   UNL d   1     -48.764  14.697  21.759  0.00  0.00    -0.302 OA
ATOM     20  C   UNL d   1     -48.537  15.485  21.783  0.00  0.00     0.123 A 
ATOM     21  C   UNL d   1     -48.571  15.740  22.564  0.00  0.00     0.029 A 
ATOM     22  C   UNL d   1     -48.816  15.120  23.028  0.00  0.00     0.030 A 
ENDBRANCH   4  18
TORSDOF 2
ENDMDL
MODEL 5
REMARK VINA RESULT:      -6.5      9.399     10.500
REMARK  2 active torsions:
REMARK  status: ('A' for Active; 'I' for Inactive)
REMARK    1  A    between atoms: C_9  and  N_2 
REMARK    2  A    between atoms: C_7  and  C_4 
ROOT
ATOM      1  C   UNL d   1     -39.453  14.471  19.666  0.00  0.00     0.136 A 
ATOM      2  N   UNL d   1     -39.688  14.633  18.890  0.00  0.00    -0.281 N 
ATOM      3  C   UNL d   1     -39.895  14.774  20.297  0.00  0.00     0.152 A 
ATOM      4  C   UNL d   1     -40.365  15.097  18.749  0.00  0.00     0.175 A 
ATOM      5  N   UNL d   1     -40.801  15.396  19.384  0.00  0.00    -0.188 NA
ATOM      6  C   UNL d   1     -40.566  15.234  20.157  0.00  0.00     0.292 A 
ATOM      7  C   UNL d   1     -39.660  14.612  21.070  0.00  0.00     0.108 C 
ATOM      8  N   UNL d   1     -39.426  14.451  21.850  0.00  0.00    -0.191 NA
ATOM      9  S   UNL d   1     -38.784  14.012  19.815  0.00  0.00    -0.058 SA
ATOM     10  O   UNL d   1     -41.003  15.533  20.797  0.00  0.00    -0.264 OA
ENDROOT
BRANCH   2  11
ATOM     11  C   UNL d   1     -39.253  14.335  18.262  0.00  0.00     0.066 A 
ATOM     12  C   UNL d   1     -39.441  13.594  17.951  0.00  0.00     0.020 A 
ATOM     13  C   UNL d   1     -39.002  13.298  17.320  0.00  0.00     0.031 A 
ATOM     14  C   UNL d   1     -38.378  13.737  17.000  0.00  0.00     0.140 A 
ATOM     15  C   UNL d   1     -38.192  14.481  17.315  0.00  0.00     0.031 A 
ATOM     16  F   UNL d   1     -37.942  13.432  16.366  0.00  0.00    -0.204 F 
ATOM     17  C   UNL d   1     -38.631  14.778  17.946  0.00  0.00     0.020 A 
ENDBRANCH   2  11
BRANCH   4  18
ATOM     18  C   UNL d   1     -40.600  15.259  17.976  0.00  0.00     0.135 A 
ATOM     19  O   UNL d   1     -41.098  14.795  17.517  0.00  0.00    -0.302 OA
ATOM     20  C   UNL d   1     -41.181  15.164  16.789  0.00  0.00     0.123 A 
ATOM     21  C   UNL d   1     -40.736  15.856  16.798  0.00  0.00     0.029 A 
ATOM     22  C   UNL d   1     -40.376  15.922  17.523  0.00  0.00     0.030 A 
ENDBRANCH   4  18
TORSDOF 2
ENDMDL
