MODEL 1
REMARK VINA RESULT:       4.7      0.000      0.000
REMARK  2 active torsions:
REMARK  status: ('A' for Active; 'I' for Inactive)
REMARK    1  A    between atoms: C_5  and  N_2 
REMARK    2  A    between atoms: C_4  and  C_5 
ROOT
ATOM      1  C   UNL d   1      23.571  12.022  -1.972  0.00  0.00     0.206 A 
ATOM      2  N   UNL d   1      24.265  12.372  -1.684  0.00  0.00    -0.279 N 
ATOM      3  N   UNL d   1      23.650  11.942  -2.799  0.00  0.00    -0.215 NA
ATOM      4  C   UNL d   1      24.387  12.243  -3.008  0.00  0.00     0.120 A 
ATOM      5  C   UNL d   1      24.768  12.508  -2.324  0.00  0.00     0.103 A 
ATOM      6  S   UNL d   1      22.917  11.792  -1.520  0.00  0.00    -0.038 SA
ENDROOT
BRANCH   2   7
ATOM      7  C   UNL d   1      24.427  12.555  -0.890  0.00  0.00     0.089 C 
BRANCH   7   8
ATOM      8  C   UNL d   1      24.263  13.303  -0.600  0.00  0.00     0.047 A 
ATOM      9  S   UNL d   1      23.576  13.530  -0.210  0.00  0.00    -0.085 SA
ATOM     10  C   UNL d   1      23.639  14.330  -0.014  0.00  0.00     0.035 A 
ATOM     11  C   UNL d   1      24.375  14.595  -0.289  0.00  0.00     0.007 A 
ATOM     12  C   UNL d   1      24.757  13.961  -0.650  0.00  0.00     0.009 A 
ENDBRANCH   7   8
ENDBRANCH   2   7
TORSDOF 2
ENDMDL
