MODEL 1
REMARK VINA RESULT:      66.6      0.000      0.000
REMARK  5 active torsions:
REMARK  status: ('A' for Active; 'I' for Inactive)
REMARK    1  A    between atoms: C_11  and  C_3 
REMARK    2  A    between atoms: C_13  and  N_5 
REMARK    3  A    between atoms: C_12  and  C_7 
REMARK    4  A    between atoms: O_21  and  C_11 
REMARK    5  A    between atoms: C_20  and  C_13 
ROOT
ATOM      1  C   UNL d   1     -50.898  26.268  33.404  0.00  0.00     0.080 A 
ATOM      2  C   UNL d   1     -50.103  26.502  33.379  0.00  0.00     0.267 A 
ATOM      3  C   UNL d   1     -51.881  25.241  33.430  0.00  0.00     0.106 A 
ATOM      4  C   UNL d   1     -51.491  26.841  33.429  0.00  0.00     0.108 A 
ATOM      5  N   UNL d   1     -49.911  27.314  33.379  0.00  0.00    -0.271 N 
ATOM      6  C   UNL d   1     -52.480  25.816  33.455  0.00  0.00     0.208 A 
ATOM      7  C   UNL d   1     -51.093  25.473  33.405  0.00  0.00     0.015 A 
ATOM      8  O   UNL d   1     -52.284  26.616  33.454  0.00  0.00    -0.288 OA
ATOM      9  C   UNL d   1     -51.310  27.645  33.429  0.00  0.00     0.043 A 
ATOM     10  C   UNL d   1     -50.519  27.878  33.404  0.00  0.00     0.069 A 
ATOM     11  O   UNL d   1     -49.498  25.937  33.354  0.00  0.00    -0.267 OA
ATOM     12  N   UNL d   1     -53.271  25.584  33.480  0.00  0.00    -0.121 N 
ATOM     13  C   UNL d   1     -50.321  28.696  33.404  0.00  0.00     0.019 C 
ENDROOT
BRANCH   7  14
ATOM     14  C   UNL d   1     -50.498  24.906  33.380  0.00  0.00     0.001 A 
ATOM     15  C   UNL d   1     -50.701  24.103  33.359  0.00  0.00     0.001 A 
ATOM     16  C   UNL d   1     -50.105  23.537  33.334  0.00  0.00     0.011 A 
ATOM     17  C   UNL d   1     -49.312  23.764  33.331  0.00  0.00     0.058 A 
ATOM     18  C   UNL d   1     -49.110  24.570  33.352  0.00  0.00     0.011 A 
ATOM     19 CL   UNL d   1     -48.716  23.197  33.306  0.00  0.00    -0.082 Cl
ATOM     20  C   UNL d   1     -49.706  25.138  33.377  0.00  0.00     0.001 A 
ENDBRANCH   7  14
BRANCH   3  21
ATOM     21  C   UNL d   1     -52.076  24.442  33.430  0.00  0.00     0.299 C 
ATOM     22  O   UNL d   1     -51.491  23.871  33.547  0.00  0.00    -0.259 OA
BRANCH  21  23
ATOM     23  O   UNL d   1     -52.859  24.207  33.313  0.00  0.00    -0.296 OA
ATOM     24  C   UNL d   1     -53.222  23.693  33.847  0.00  0.00     0.185 C 
ENDBRANCH  21  23
ENDBRANCH   3  21
BRANCH   5  25
ATOM     25  C   UNL d   1     -49.119  27.546  33.354  0.00  0.00     0.108 C 
BRANCH  25  26
ATOM     26  C   UNL d   1     -48.777  27.912  34.006  0.00  0.00     0.118 A 
ATOM     27  O   UNL d   1     -48.117  28.415  33.995  0.00  0.00    -0.304 OA
ATOM     28  C   UNL d   1     -47.961  28.657  34.770  0.00  0.00     0.123 A 
ATOM     29  C   UNL d   1     -48.521  28.307  35.266  0.00  0.00     0.029 A 
ATOM     30  C   UNL d   1     -49.024  27.848  34.797  0.00  0.00     0.028 A 
ENDBRANCH  25  26
ENDBRANCH   5  25
TORSDOF 5
ENDMDL
