MODEL 1
REMARK VINA RESULT:      42.5      0.000      0.000
REMARK  5 active torsions:
REMARK  status: ('A' for Active; 'I' for Inactive)
REMARK    1  A    between atoms: C_6  and  S_1 
REMARK    2  A    between atoms: C_9  and  S_1 
REMARK    3  A    between atoms: C_2  and  S_11 
REMARK    4  A    between atoms: N_4  and  C_3 
REMARK    5  A    between atoms: S_11  and  C_10 
ROOT
ATOM      1  C   UNL d   1      14.098  13.446  -2.104  0.00  0.00     0.133 A 
ATOM      2  C   UNL d   1      14.585  13.161  -1.502  0.00  0.00     0.035 A 
ATOM      3  C   UNL d   1      14.481  12.393  -1.215  0.00  0.00     0.094 A 
ATOM      4  C   UNL d   1      13.506  12.959  -2.420  0.00  0.00     0.054 A 
ATOM      5  C   UNL d   1      13.889  11.912  -1.533  0.00  0.00     0.012 A 
ATOM      6  C   UNL d   1      13.404  12.195  -2.134  0.00  0.00     0.009 A 
ENDROOT
BRANCH   4   7
ATOM      7  S   UNL d   1      13.017  13.243  -3.023  0.00  0.00    -0.047 SA
BRANCH   7   8
ATOM      8  C   UNL d   1      13.138  12.994  -3.800  0.00  0.00     0.194 A 
ATOM      9  N   UNL d   1      13.644  13.345  -4.344  0.00  0.00    -0.220 NA
ATOM     10  C   UNL d   1      13.591  12.918  -5.050  0.00  0.00     0.101 A 
ATOM     11  C   UNL d   1      13.962  13.008  -5.773  0.00  0.00     0.021 A 
ATOM     12  C   UNL d   1      13.049  12.306  -4.930  0.00  0.00     0.101 A 
ATOM     13  C   UNL d   1      13.797  12.490  -6.387  0.00  0.00     0.002 A 
ATOM     14  C   UNL d   1      13.254  11.874  -6.273  0.00  0.00     0.002 A 
ATOM     15  C   UNL d   1      12.881  11.784  -5.543  0.00  0.00     0.021 A 
ATOM     16  N   UNL d   1      12.771  12.354  -4.161  0.00  0.00    -0.220 NA
ENDBRANCH   7   8
ENDBRANCH   4   7
BRANCH   1  17
ATOM     17  N   UNL d   1      14.200  14.213  -2.392  0.00  0.00    -0.113 N 
ATOM     18  O   UNL d   1      13.549  14.713  -2.472  0.00  0.00    -0.532 OA
ATOM     19  O   UNL d   1      14.952  14.480  -2.598  0.00  0.00    -0.532 OA
ENDBRANCH   1  17
BRANCH   3  20
ATOM     20  S   UNL d   1      14.965  12.110  -0.617  0.00  0.00     0.278 S 
ATOM     21  O   UNL d   1      14.317  11.780  -0.237  0.00  0.00    -0.213 OA
ATOM     22  O   UNL d   1      15.450  11.826  -0.015  0.00  0.00    -0.213 OA
BRANCH  20  23
ATOM     23  C   UNL d   1      15.622  12.440  -0.995  0.00  0.00     0.503 C 
ATOM     24  F   UNL d   1      16.219  12.742  -1.336  0.00  0.00    -0.157 F 
ATOM     25  F   UNL d   1      15.992  13.211  -0.870  0.00  0.00    -0.157 F 
ATOM     26  F   UNL d   1      16.121  12.107  -1.617  0.00  0.00    -0.157 F 
ENDBRANCH  20  23
ENDBRANCH   3  20
TORSDOF 5
ENDMDL
MODEL 2
REMARK VINA RESULT:      44.3      3.660      4.767
REMARK  5 active torsions:
REMARK  status: ('A' for Active; 'I' for Inactive)
REMARK    1  A    between atoms: C_6  and  S_1 
REMARK    2  A    between atoms: C_9  and  S_1 
REMARK    3  A    between atoms: C_2  and  S_11 
REMARK    4  A    between atoms: N_4  and  C_3 
REMARK    5  A    between atoms: S_11  and  C_10 
ROOT
ATOM      1  C   UNL d   1      15.358  16.435  -1.177  0.00  0.00     0.133 A 
ATOM      2  C   UNL d   1      15.275  16.813  -1.905  0.00  0.00     0.035 A 
ATOM      3  C   UNL d   1      14.877  16.435  -2.523  0.00  0.00     0.094 A 
ATOM      4  C   UNL d   1      15.042  15.676  -1.067  0.00  0.00     0.054 A 
ATOM      5  C   UNL d   1      14.564  15.679  -2.409  0.00  0.00     0.012 A 
ATOM      6  C   UNL d   1      14.647  15.302  -1.683  0.00  0.00     0.009 A 
ENDROOT
BRANCH   4   7
ATOM      7  S   UNL d   1      15.125  15.296  -0.338  0.00  0.00    -0.047 SA
BRANCH   7   8
ATOM      8  C   UNL d   1      14.952  14.492  -0.272  0.00  0.00     0.194 A 
ATOM      9  N   UNL d   1      14.202  14.169  -0.176  0.00  0.00    -0.220 NA
ATOM     10  C   UNL d   1      14.285  13.347  -0.134  0.00  0.00     0.101 A 
ATOM     11  C   UNL d   1      13.739  12.746  -0.042  0.00  0.00     0.021 A 
ATOM     12  C   UNL d   1      15.090  13.175  -0.206  0.00  0.00     0.101 A 
ATOM     13  C   UNL d   1      13.987  11.964  -0.020  0.00  0.00     0.002 A 
ATOM     14  C   UNL d   1      14.794  11.785  -0.092  0.00  0.00     0.002 A 
ATOM     15  C   UNL d   1      15.343  12.393  -0.185  0.00  0.00     0.021 A 
ATOM     16  N   UNL d   1      15.498  13.880  -0.291  0.00  0.00    -0.220 NA
ENDBRANCH   7   8
ENDBRANCH   4   7
BRANCH   1  17
ATOM     17  N   UNL d   1      15.756  16.810  -0.557  0.00  0.00    -0.113 N 
ATOM     18  O   UNL d   1      15.343  17.306  -0.043  0.00  0.00    -0.532 OA
ATOM     19  O   UNL d   1      16.565  16.690  -0.453  0.00  0.00    -0.532 OA
ENDBRANCH   1  17
BRANCH   3  20
ATOM     20  S   UNL d   1      14.794  16.812  -3.246  0.00  0.00     0.278 S 
ATOM     21  O   UNL d   1      14.925  17.540  -2.892  0.00  0.00    -0.213 OA
ATOM     22  O   UNL d   1      14.711  17.191  -3.973  0.00  0.00    -0.213 OA
BRANCH  20  23
ATOM     23  C   UNL d   1      14.661  16.081  -3.610  0.00  0.00     0.503 C 
ATOM     24  F   UNL d   1      14.542  15.418  -3.941  0.00  0.00    -0.157 F 
ATOM     25  F   UNL d   1      15.187  15.623  -4.120  0.00  0.00    -0.157 F 
ATOM     26  F   UNL d   1      13.961  15.574  -3.581  0.00  0.00    -0.157 F 
ENDBRANCH  20  23
ENDBRANCH   3  20
TORSDOF 5
ENDMDL
MODEL 3
REMARK VINA RESULT:      44.8      2.180      2.631
REMARK  5 active torsions:
REMARK  status: ('A' for Active; 'I' for Inactive)
REMARK    1  A    between atoms: C_6  and  S_1 
REMARK    2  A    between atoms: C_9  and  S_1 
REMARK    3  A    between atoms: C_2  and  S_11 
REMARK    4  A    between atoms: N_4  and  C_3 
REMARK    5  A    between atoms: S_11  and  C_10 
ROOT
ATOM      1  C   UNL d   1      14.999  14.668  -0.661  0.00  0.00     0.133 A 
ATOM      2  C   UNL d   1      15.133  13.934  -0.309  0.00  0.00     0.035 A 
ATOM      3  C   UNL d   1      14.947  13.240  -0.717  0.00  0.00     0.094 A 
ATOM      4  C   UNL d   1      14.677  14.707  -1.424  0.00  0.00     0.054 A 
ATOM      5  C   UNL d   1      14.626  13.284  -1.477  0.00  0.00     0.012 A 
ATOM      6  C   UNL d   1      14.493  14.016  -1.828  0.00  0.00     0.009 A 
ENDROOT
BRANCH   4   7
ATOM      7  S   UNL d   1      14.543  15.441  -1.778  0.00  0.00    -0.047 SA
BRANCH   7   8
ATOM      8  C   UNL d   1      14.433  15.490  -2.594  0.00  0.00     0.194 A 
ATOM      9  N   UNL d   1      14.868  15.958  -3.110  0.00  0.00    -0.220 NA
ATOM     10  C   UNL d   1      14.572  15.836  -3.872  0.00  0.00     0.101 A 
ATOM     11  C   UNL d   1      14.783  16.148  -4.598  0.00  0.00     0.021 A 
ATOM     12  C   UNL d   1      13.954  15.291  -3.814  0.00  0.00     0.101 A 
ATOM     13  C   UNL d   1      14.382  15.920  -5.276  0.00  0.00     0.002 A 
ATOM     14  C   UNL d   1      13.761  15.373  -5.224  0.00  0.00     0.002 A 
ATOM     15  C   UNL d   1      13.549  15.060  -4.492  0.00  0.00     0.021 A 
ATOM     16  N   UNL d   1      13.870  15.079  -3.028  0.00  0.00    -0.220 NA
ENDBRANCH   7   8
ENDBRANCH   4   7
BRANCH   1  17
ATOM     17  N   UNL d   1      15.185  15.363  -0.254  0.00  0.00    -0.113 N 
ATOM     18  O   UNL d   1      14.584  15.881  -0.027  0.00  0.00    -0.532 OA
ATOM     19  O   UNL d   1      15.970  15.540  -0.076  0.00  0.00    -0.532 OA
ENDBRANCH   1  17
BRANCH   3  20
ATOM     20  S   UNL d   1      15.080  12.511  -0.367  0.00  0.00     0.278 S 
ATOM     21  O   UNL d   1      15.767  12.795  -0.019  0.00  0.00    -0.213 OA
ATOM     22  O   UNL d   1      15.215  11.779  -0.014  0.00  0.00    -0.213 OA
BRANCH  20  23
ATOM     23  C   UNL d   1      14.389  12.219  -0.714  0.00  0.00     0.503 C 
ATOM     24  F   UNL d   1      13.762  11.953  -1.031  0.00  0.00    -0.157 F 
ATOM     25  F   UNL d   1      14.291  11.797  -1.461  0.00  0.00    -0.157 F 
ATOM     26  F   UNL d   1      13.575  12.254  -0.426  0.00  0.00    -0.157 F 
ENDBRANCH  20  23
ENDBRANCH   3  20
TORSDOF 5
ENDMDL
