MODEL 1
REMARK VINA RESULT:      31.1      0.000      0.000
REMARK  6 active torsions:
REMARK  status: ('A' for Active; 'I' for Inactive)
REMARK    1  A    between atoms: C_2  and  S_1 
REMARK    2  A    between atoms: N_8  and  S_1 
REMARK    3  A    between atoms: O_15  and  C_3 
REMARK    4  A    between atoms: C_14  and  N_8 
REMARK    5  A    between atoms: N_10  and  C_17 
REMARK    6  A    between atoms: C_17  and  C_14 
ROOT
ATOM      1  S   UNL d   1      13.970  12.583  -2.019  0.00  0.00     0.287 S 
ATOM      2  O   UNL d   1      14.638  13.001  -2.281  0.00  0.00    -0.198 OA
ATOM      3  O   UNL d   1      13.306  12.168  -1.761  0.00  0.00    -0.198 OA
ENDROOT
BRANCH   1   4
ATOM      4  C   UNL d   1      13.688  12.555  -2.791  0.00  0.00     0.128 A 
ATOM      5  C   UNL d   1      13.451  13.252  -3.175  0.00  0.00     0.118 A 
ATOM      6  C   UNL d   1      13.169  13.225  -3.948  0.00  0.00     0.091 A 
ATOM      7 CL   UNL d   1      12.935  13.918  -4.324  0.00  0.00    -0.079 Cl
ATOM      8  C   UNL d   1      13.121  12.503  -4.344  0.00  0.00     0.070 A 
ATOM      9  C   UNL d   1      13.355  11.808  -3.967  0.00  0.00     0.013 A 
ATOM     10 CL   UNL d   1      12.839  12.474  -5.117  0.00  0.00    -0.081 Cl
ATOM     11  C   UNL d   1      13.640  11.833  -3.187  0.00  0.00     0.016 A 
BRANCH   5  12
ATOM     12  O   UNL d   1      13.499  13.974  -2.778  0.00  0.00    -0.327 OA
ATOM     13  C   UNL d   1      13.695  14.660  -3.191  0.00  0.00     0.181 C 
ENDBRANCH   5  12
ENDBRANCH   1   4
BRANCH   1  14
ATOM     14  N   UNL d   1      14.254  12.612  -1.242  0.00  0.00    -0.155 NA
BRANCH  14  15
ATOM     15  C   UNL d   1      14.509  13.328  -0.924  0.00  0.00     0.131 C 
BRANCH  15  16
ATOM     16  C   UNL d   1      15.018  13.330  -0.277  0.00  0.00     0.102 C 
BRANCH  16  17
ATOM     17  N   UNL d   1      15.568  13.938  -0.191  0.00  0.00    -0.298 N 
ATOM     18  C   UNL d   1      16.381  13.763  -0.145  0.00  0.00     0.107 A 
ATOM     19  C   UNL d   1      16.929  14.366  -0.059  0.00  0.00     0.142 A 
ATOM     20  O   UNL d   1      16.677  15.151  -0.018  0.00  0.00    -0.300 OA
ATOM     21  C   UNL d   1      15.868  15.325  -0.064  0.00  0.00     0.142 A 
ATOM     22  C   UNL d   1      15.311  14.719  -0.151  0.00  0.00     0.107 A 
ENDBRANCH  16  17
ENDBRANCH  15  16
ENDBRANCH  14  15
ENDBRANCH   1  14
TORSDOF 6
ENDMDL
MODEL 2
REMARK VINA RESULT:      32.2      1.838      2.351
REMARK  6 active torsions:
REMARK  status: ('A' for Active; 'I' for Inactive)
REMARK    1  A    between atoms: C_2  and  S_1 
REMARK    2  A    between atoms: N_8  and  S_1 
REMARK    3  A    between atoms: O_15  and  C_3 
REMARK    4  A    between atoms: C_14  and  N_8 
REMARK    5  A    between atoms: N_10  and  C_17 
REMARK    6  A    between atoms: C_17  and  C_14 
ROOT
ATOM      1  S   UNL d   1      13.171  12.576  -3.763  0.00  0.00     0.287 S 
ATOM      2  O   UNL d   1      13.417  11.896  -4.173  0.00  0.00    -0.198 OA
ATOM      3  O   UNL d   1      12.929  13.251  -3.359  0.00  0.00    -0.198 OA
ENDROOT
BRANCH   1   4
ATOM      4  C   UNL d   1      13.370  13.036  -4.415  0.00  0.00     0.128 A 
ATOM      5  C   UNL d   1      13.466  13.857  -4.333  0.00  0.00     0.118 A 
ATOM      6  C   UNL d   1      13.665  14.318  -4.986  0.00  0.00     0.091 A 
ATOM      7 CL   UNL d   1      13.759  15.131  -4.900  0.00  0.00    -0.079 Cl
ATOM      8  C   UNL d   1      13.769  13.966  -5.724  0.00  0.00     0.070 A 
ATOM      9  C   UNL d   1      13.675  13.152  -5.810  0.00  0.00     0.013 A 
ATOM     10 CL   UNL d   1      13.968  14.426  -6.377  0.00  0.00    -0.081 Cl
ATOM     11  C   UNL d   1      13.474  12.684  -5.153  0.00  0.00     0.016 A 
BRANCH   5  12
ATOM     12  O   UNL d   1      13.362  14.210  -3.595  0.00  0.00    -0.327 OA
ATOM     13  C   UNL d   1      13.478  15.020  -3.504  0.00  0.00     0.181 C 
ENDBRANCH   5  12
ENDBRANCH   1   4
BRANCH   1  14
ATOM     14  N   UNL d   1      12.972  12.111  -3.108  0.00  0.00    -0.155 NA
BRANCH  14  15
ATOM     15  C   UNL d   1      13.562  11.843  -2.598  0.00  0.00     0.131 C 
BRANCH  15  16
ATOM     16  C   UNL d   1      13.408  11.779  -1.792  0.00  0.00     0.102 C 
BRANCH  16  17
ATOM     17  N   UNL d   1      13.984  12.002  -1.247  0.00  0.00    -0.298 N 
ATOM     18  C   UNL d   1      13.768  12.423  -0.561  0.00  0.00     0.107 A 
ATOM     19  C   UNL d   1      14.339  12.646  -0.017  0.00  0.00     0.142 A 
ATOM     20  O   UNL d   1      15.131  12.455  -0.147  0.00  0.00    -0.300 OA
ATOM     21  C   UNL d   1      15.346  12.036  -0.829  0.00  0.00     0.142 A 
ATOM     22  C   UNL d   1      14.772  11.809  -1.381  0.00  0.00     0.107 A 
ENDBRANCH  16  17
ENDBRANCH  15  16
ENDBRANCH  14  15
ENDBRANCH   1  14
TORSDOF 6
ENDMDL
