MODEL 1
REMARK VINA RESULT:      -3.5      0.000      0.000
REMARK  4 active torsions:
REMARK  status: ('A' for Active; 'I' for Inactive)
REMARK    1  A    between atoms: S_2  and  C_1 
REMARK    2  A    between atoms: C_10  and  S_2 
REMARK    3  A    between atoms: N_7  and  C_5 
REMARK    4  A    between atoms: C_11  and  N_7 
ROOT
ATOM      1  C   UNL d   1      31.296  16.387 -23.897  0.00  0.00     0.187 A 
ATOM      2  N   UNL d   1      31.805  16.866 -23.467  0.00  0.00    -0.208 NA
ATOM      3  C   UNL d   1      31.728  16.016 -24.495  0.00  0.00     0.118 A 
ATOM      4  C   UNL d   1      32.553  16.794 -23.798  0.00  0.00     0.196 A 
ATOM      5  S   UNL d   1      32.507  16.276 -24.424  0.00  0.00    -0.035 SA
ATOM      6 CL   UNL d   1      31.440  15.493 -25.050  0.00  0.00    -0.073 Cl
ENDROOT
BRANCH   1   7
ATOM      7  S   UNL d   1      30.487  16.289 -23.759  0.00  0.00     0.228 S 
ATOM      8  O   UNL d   1      30.380  16.959 -24.221  0.00  0.00    -0.216 OA
ATOM      9  O   UNL d   1      30.604  15.619 -23.299  0.00  0.00    -0.216 OA
BRANCH   7  10
ATOM     10  C   UNL d   1      29.668  16.260 -23.669  0.00  0.00     0.089 A 
ATOM     11  C   UNL d   1      29.181  16.753 -24.129  0.00  0.00     0.011 A 
ATOM     12  C   UNL d   1      28.355  16.720 -24.034  0.00  0.00     0.001 A 
ATOM     13  C   UNL d   1      28.016  16.203 -23.487  0.00  0.00     0.000 A 
ATOM     14  C   UNL d   1      28.513  15.709 -23.027  0.00  0.00     0.001 A 
ATOM     15  C   UNL d   1      29.332  15.739 -23.119  0.00  0.00     0.011 A 
ENDBRANCH   7  10
ENDBRANCH   1   7
BRANCH   4  16
ATOM     16  N   UNL d   1      33.231  17.181 -23.536  0.00  0.00    -0.221 NA
BRANCH  16  17
ATOM     17  C   UNL d   1      33.231  18.000 -23.460  0.00  0.00     0.087 A 
ATOM     18  C   UNL d   1      33.220  18.337 -22.720  0.00  0.00     0.061 A 
ATOM     19  C   UNL d   1      33.220  19.153 -22.639  0.00  0.00     0.197 A 
ATOM     20  O   UNL d   1      33.210  19.490 -21.890  0.00  0.00    -0.286 OA
ATOM     21  C   UNL d   1      33.230  19.633 -23.309  0.00  0.00     0.042 A 
ATOM     22  C   UNL d   1      33.241  19.287 -24.058  0.00  0.00     0.005 A 
ATOM     23  C   UNL d   1      33.241  18.472 -24.138  0.00  0.00     0.019 A 
ENDBRANCH  16  17
ENDBRANCH   4  16
TORSDOF 4
ENDMDL
MODEL 2
REMARK VINA RESULT:      -3.1      2.149      2.930
REMARK  4 active torsions:
REMARK  status: ('A' for Active; 'I' for Inactive)
REMARK    1  A    between atoms: S_2  and  C_1 
REMARK    2  A    between atoms: C_10  and  S_2 
REMARK    3  A    between atoms: N_7  and  C_5 
REMARK    4  A    between atoms: C_11  and  N_7 
ROOT
ATOM      1  C   UNL d   1      32.426  18.588 -23.530  0.00  0.00     0.187 A 
ATOM      2  N   UNL d   1      32.519  18.780 -22.738  0.00  0.00    -0.208 NA
ATOM      3  C   UNL d   1      32.853  19.131 -23.983  0.00  0.00     0.118 A 
ATOM      4  C   UNL d   1      33.004  19.442 -22.698  0.00  0.00     0.196 A 
ATOM      5  S   UNL d   1      33.208  19.655 -23.456  0.00  0.00    -0.035 SA
ATOM      6 CL   UNL d   1      32.913  19.144 -24.796  0.00  0.00    -0.073 Cl
ENDROOT
BRANCH   1   7
ATOM      7  S   UNL d   1      31.981  17.959 -23.829  0.00  0.00     0.228 S 
ATOM      8  O   UNL d   1      32.580  17.472 -23.552  0.00  0.00    -0.216 OA
ATOM      9  O   UNL d   1      31.387  18.455 -24.104  0.00  0.00    -0.216 OA
BRANCH   7  10
ATOM     10  C   UNL d   1      31.599  17.281 -24.099  0.00  0.00     0.089 A 
ATOM     11  C   UNL d   1      30.860  17.342 -24.478  0.00  0.00     0.011 A 
ATOM     12  C   UNL d   1      30.478  16.654 -24.749  0.00  0.00     0.001 A 
ATOM     13  C   UNL d   1      30.826  15.912 -24.645  0.00  0.00     0.000 A 
ATOM     14  C   UNL d   1      31.569  15.858 -24.263  0.00  0.00     0.001 A 
ATOM     15  C   UNL d   1      31.951  16.538 -23.993  0.00  0.00     0.011 A 
ENDBRANCH   7  10
ENDBRANCH   1   7
BRANCH   4  16
ATOM     16  N   UNL d   1      33.240  19.820 -22.005  0.00  0.00    -0.221 NA
BRANCH  16  17
ATOM     17  C   UNL d   1      32.946  20.566 -21.827  0.00  0.00     0.087 A 
ATOM     18  C   UNL d   1      32.409  20.655 -21.221  0.00  0.00     0.061 A 
ATOM     19  C   UNL d   1      32.113  21.397 -21.039  0.00  0.00     0.197 A 
ATOM     20  O   UNL d   1      31.572  21.483 -20.427  0.00  0.00    -0.286 OA
ATOM     21  C   UNL d   1      32.359  22.056 -21.469  0.00  0.00     0.042 A 
ATOM     22  C   UNL d   1      32.903  21.962 -22.082  0.00  0.00     0.005 A 
ATOM     23  C   UNL d   1      33.199  21.220 -22.264  0.00  0.00     0.019 A 
ENDBRANCH  16  17
ENDBRANCH   4  16
TORSDOF 4
ENDMDL
MODEL 3
REMARK VINA RESULT:      -2.9      2.870      5.231
REMARK  4 active torsions:
REMARK  status: ('A' for Active; 'I' for Inactive)
REMARK    1  A    between atoms: S_2  and  C_1 
REMARK    2  A    between atoms: C_10  and  S_2 
REMARK    3  A    between atoms: N_7  and  C_5 
REMARK    4  A    between atoms: C_11  and  N_7 
ROOT
ATOM      1  C   UNL d   1      32.934  20.309 -22.180  0.00  0.00     0.187 A 
ATOM      2  N   UNL d   1      32.910  20.026 -22.950  0.00  0.00    -0.208 NA
ATOM      3  C   UNL d   1      33.140  19.686 -21.679  0.00  0.00     0.118 A 
ATOM      4  C   UNL d   1      33.100  19.227 -22.928  0.00  0.00     0.196 A 
ATOM      5  S   UNL d   1      33.240  19.020 -22.154  0.00  0.00    -0.035 SA
ATOM      6 CL   UNL d   1      33.227  19.722 -20.869  0.00  0.00    -0.073 Cl
ENDROOT
BRANCH   1   7
ATOM      7  S   UNL d   1      32.780  21.084 -21.942  0.00  0.00     0.228 S 
ATOM      8  O   UNL d   1      33.238  21.317 -22.583  0.00  0.00    -0.216 OA
ATOM      9  O   UNL d   1      32.324  20.843 -21.304  0.00  0.00    -0.216 OA
BRANCH   7  10
ATOM     10  C   UNL d   1      32.673  21.884 -21.770  0.00  0.00     0.089 A 
ATOM     11  C   UNL d   1      32.186  22.112 -21.136  0.00  0.00     0.011 A 
ATOM     12  C   UNL d   1      32.081  22.920 -20.966  0.00  0.00     0.001 A 
ATOM     13  C   UNL d   1      32.457  23.496 -21.423  0.00  0.00     0.000 A 
ATOM     14  C   UNL d   1      32.946  23.259 -22.060  0.00  0.00     0.001 A 
ATOM     15  C   UNL d   1      33.053  22.459 -22.231  0.00  0.00     0.011 A 
ENDBRANCH   7  10
ENDBRANCH   1   7
BRANCH   4  16
ATOM     16  N   UNL d   1      33.140  18.727 -23.581  0.00  0.00    -0.221 NA
BRANCH  16  17
ATOM     17  C   UNL d   1      32.553  18.165 -23.702  0.00  0.00     0.087 A 
ATOM     18  C   UNL d   1      31.891  18.360 -24.135  0.00  0.00     0.061 A 
ATOM     19  C   UNL d   1      31.302  17.804 -24.259  0.00  0.00     0.197 A 
ATOM     20  O   UNL d   1      30.636  18.004 -24.696  0.00  0.00    -0.286 OA
ATOM     21  C   UNL d   1      31.379  17.045 -23.946  0.00  0.00     0.042 A 
ATOM     22  C   UNL d   1      32.051  16.852 -23.508  0.00  0.00     0.005 A 
ATOM     23  C   UNL d   1      32.639  17.408 -23.384  0.00  0.00     0.019 A 
ENDBRANCH  16  17
ENDBRANCH   4  16
TORSDOF 4
ENDMDL
