MODEL 1
REMARK VINA RESULT:      -5.3      0.000      0.000
REMARK  3 active torsions:
REMARK  status: ('A' for Active; 'I' for Inactive)
REMARK    1  A    between atoms: C_3  and  C_5 
REMARK    2  A    between atoms: O_13  and  C_6 
REMARK    3  A    between atoms: O_15  and  C_8 
ROOT
ATOM      1  C   UNL d   1     -41.614-122.519 -52.850  0.00  0.00     0.021 A 
ATOM      2  C   UNL d   1     -41.577-121.933 -52.279  0.00  0.00     0.028 A 
ATOM      3  C   UNL d   1     -41.415-122.116 -51.498  0.00  0.00     0.116 A 
ATOM      4  C   UNL d   1     -41.287-122.902 -51.282  0.00  0.00     0.116 A 
ATOM      5  C   UNL d   1     -41.484-123.314 -52.632  0.00  0.00     0.004 A 
ATOM      6  C   UNL d   1     -41.321-123.505 -51.848  0.00  0.00     0.026 A 
ENDROOT
BRANCH   1   7
ATOM      7  C   UNL d   1     -41.777-122.328 -53.633  0.00  0.00     0.103 A 
ATOM      8  N   UNL d   1     -42.479-121.939 -53.826  0.00  0.00    -0.145 NA
ATOM      9  N   UNL d   1     -42.643-121.747 -54.610  0.00  0.00    -0.106 NA
ATOM     10  C   UNL d   1     -42.105-121.946 -55.201  0.00  0.00     0.297 A 
ATOM     11  O   UNL d   1     -42.267-121.754 -55.993  0.00  0.00    -0.264 OA
ATOM     12  C   UNL d   1     -41.397-122.339 -55.006  0.00  0.00     0.066 A 
ATOM     13  C   UNL d   1     -41.232-122.530 -54.223  0.00  0.00     0.026 A 
ENDBRANCH   1   7
BRANCH   3  14
ATOM     14  O   UNL d   1     -41.380-121.518 -50.930  0.00  0.00    -0.326 OA
ATOM     15  C   UNL d   1     -41.123-120.763 -51.143  0.00  0.00     0.181 C 
ENDBRANCH   3  14
BRANCH   4  16
ATOM     16  O   UNL d   1     -41.122-123.093 -50.494  0.00  0.00    -0.326 OA
ATOM     17  C   UNL d   1     -41.477-123.750 -50.148  0.00  0.00     0.181 C 
ENDBRANCH   4  16
TORSDOF 3
ENDMDL
MODEL 2
REMARK VINA RESULT:      -4.5      2.385      4.317
REMARK  3 active torsions:
REMARK  status: ('A' for Active; 'I' for Inactive)
REMARK    1  A    between atoms: C_3  and  C_5 
REMARK    2  A    between atoms: O_13  and  C_6 
REMARK    3  A    between atoms: O_15  and  C_8 
ROOT
ATOM      1  C   UNL d   1     -41.631-123.124 -50.466  0.00  0.00     0.021 A 
ATOM      2  C   UNL d   1     -41.457-122.405 -50.820  0.00  0.00     0.028 A 
ATOM      3  C   UNL d   1     -41.297-122.360 -51.621  0.00  0.00     0.116 A 
ATOM      4  C   UNL d   1     -41.312-123.046 -52.079  0.00  0.00     0.116 A 
ATOM      5  C   UNL d   1     -41.647-123.817 -50.928  0.00  0.00     0.004 A 
ATOM      6  C   UNL d   1     -41.487-123.778 -51.735  0.00  0.00     0.026 A 
ENDROOT
BRANCH   1   7
ATOM      7  C   UNL d   1     -41.791-123.162 -49.659  0.00  0.00     0.103 A 
ATOM      8  N   UNL d   1     -41.178-123.291 -49.123  0.00  0.00    -0.145 NA
ATOM      9  N   UNL d   1     -41.337-123.330 -48.315  0.00  0.00    -0.106 NA
ATOM     10  C   UNL d   1     -42.110-123.240 -48.046  0.00  0.00     0.297 A 
ATOM     11  O   UNL d   1     -42.274-123.279 -47.232  0.00  0.00    -0.264 OA
ATOM     12  C   UNL d   1     -42.729-123.110 -48.588  0.00  0.00     0.066 A 
ATOM     13  C   UNL d   1     -42.570-123.071 -49.395  0.00  0.00     0.026 A 
ENDBRANCH   1   7
BRANCH   3  14
ATOM     14  O   UNL d   1     -41.123-121.632 -51.969  0.00  0.00    -0.326 OA
ATOM     15  C   UNL d   1     -41.135-120.944 -51.511  0.00  0.00     0.181 C 
ENDBRANCH   3  14
BRANCH   4  16
ATOM     16  O   UNL d   1     -41.152-123.005 -52.890  0.00  0.00    -0.326 OA
ATOM     17  C   UNL d   1     -41.332-123.644 -53.377  0.00  0.00     0.181 C 
ENDBRANCH   4  16
TORSDOF 3
ENDMDL
MODEL 3
REMARK VINA RESULT:      -4.1      1.437      2.054
REMARK  3 active torsions:
REMARK  status: ('A' for Active; 'I' for Inactive)
REMARK    1  A    between atoms: C_3  and  C_5 
REMARK    2  A    between atoms: O_13  and  C_6 
REMARK    3  A    between atoms: O_15  and  C_8 
ROOT
ATOM      1  C   UNL d   1     -41.603-123.064 -51.185  0.00  0.00     0.021 A 
ATOM      2  C   UNL d   1     -42.173-122.674 -50.744  0.00  0.00     0.028 A 
ATOM      3  C   UNL d   1     -42.277-122.840 -49.949  0.00  0.00     0.116 A 
ATOM      4  C   UNL d   1     -41.801-123.409 -49.587  0.00  0.00     0.116 A 
ATOM      5  C   UNL d   1     -41.123-123.640 -50.818  0.00  0.00     0.004 A 
ATOM      6  C   UNL d   1     -41.222-123.812 -50.019  0.00  0.00     0.026 A 
ENDROOT
BRANCH   1   7
ATOM      7  C   UNL d   1     -41.504-122.892 -51.983  0.00  0.00     0.103 A 
ATOM      8  N   UNL d   1     -41.684-123.460 -52.554  0.00  0.00    -0.145 NA
ATOM      9  N   UNL d   1     -41.585-123.288 -53.353  0.00  0.00    -0.106 NA
ATOM     10  C   UNL d   1     -41.305-122.548 -53.581  0.00  0.00     0.297 A 
ATOM     11  O   UNL d   1     -41.203-122.371 -54.386  0.00  0.00    -0.264 OA
ATOM     12  C   UNL d   1     -41.123-121.975 -53.004  0.00  0.00     0.066 A 
ATOM     13  C   UNL d   1     -41.222-122.146 -52.205  0.00  0.00     0.026 A 
ENDBRANCH   1   7
BRANCH   3  14
ATOM     14  O   UNL d   1     -42.853-122.441 -49.513  0.00  0.00    -0.326 OA
ATOM     15  C   UNL d   1     -43.606-122.329 -49.834  0.00  0.00     0.181 C 
ENDBRANCH   3  14
BRANCH   4  16
ATOM     16  O   UNL d   1     -41.903-123.581 -48.784  0.00  0.00    -0.326 OA
ATOM     17  C   UNL d   1     -41.257-123.815 -48.329  0.00  0.00     0.181 C 
ENDBRANCH   4  16
TORSDOF 3
ENDMDL
