MODEL 1
REMARK VINA RESULT:      24.9      0.000      0.000
REMARK  3 active torsions:
REMARK  status: ('A' for Active; 'I' for Inactive)
REMARK    1  A    between atoms: S_2  and  N_1 
REMARK    2  A    between atoms: C_7  and  S_2 
REMARK    3  A    between atoms: C_14  and  C_6 
ROOT
ATOM      1  S   UNL d   1      44.718 -15.396  36.894  0.00  0.00     0.273 S 
ATOM      2  O   UNL d   1      44.902 -15.991  37.363  0.00  0.00    -0.200 OA
ATOM      3  O   UNL d   1      44.721 -14.774  36.498  0.00  0.00    -0.200 OA
ENDROOT
BRANCH   1   4
ATOM      4  N   UNL d   1      45.386 -15.088  37.018  0.00  0.00    -0.202 N 
ATOM      5  C   UNL d   1      46.045 -15.349  36.757  0.00  0.00     0.218 A 
ATOM      6  N   UNL d   1      46.590 -14.883  37.002  0.00  0.00    -0.178 NA
ATOM      7  S   UNL d   1      46.017 -15.976  36.335  0.00  0.00    -0.037 SA
ATOM      8  C   UNL d   1      46.262 -14.346  37.408  0.00  0.00     0.298 A 
ATOM      9  C   UNL d   1      45.522 -14.469  37.420  0.00  0.00     0.135 A 
ATOM     10  O   UNL d   1      46.647 -13.790  37.736  0.00  0.00    -0.264 OA
BRANCH   9  11
ATOM     11  C   UNL d   1      45.003 -14.054  37.767  0.00  0.00     0.022 C 
ATOM     12  C   UNL d   1      44.642 -14.335  38.362  0.00  0.00     0.002 C 
ATOM     13  C   UNL d   1      44.845 -13.363  37.523  0.00  0.00     0.002 C 
ENDBRANCH   9  11
ENDBRANCH   1   4
BRANCH   1  14
ATOM     14  C   UNL d   1      43.963 -15.679  36.714  0.00  0.00     0.104 A 
ATOM     15  C   UNL d   1      43.849 -16.474  36.511  0.00  0.00     0.012 A 
ATOM     16  C   UNL d   1      43.094 -16.757  36.330  0.00  0.00     0.001 A 
ATOM     17  C   UNL d   1      44.519 -16.983  36.492  0.00  0.00     0.001 C 
ATOM     18  C   UNL d   1      42.446 -16.249  36.352  0.00  0.00     0.000 A 
ATOM     19  C   UNL d   1      42.551 -15.452  36.554  0.00  0.00     0.001 A 
ATOM     20  C   UNL d   1      43.313 -15.166  36.736  0.00  0.00     0.013 A 
ATOM     21  C   UNL d   1      41.896 -14.938  36.576  0.00  0.00     0.000 C 
ENDBRANCH   1  14
TORSDOF 3
ENDMDL
MODEL 2
REMARK VINA RESULT:      25.7      1.426      3.041
REMARK  3 active torsions:
REMARK  status: ('A' for Active; 'I' for Inactive)
REMARK    1  A    between atoms: S_2  and  N_1 
REMARK    2  A    between atoms: C_7  and  S_2 
REMARK    3  A    between atoms: C_14  and  C_6 
ROOT
ATOM      1  S   UNL d   1      44.325 -15.535  36.955  0.00  0.00     0.273 S 
ATOM      2  O   UNL d   1      44.012 -15.195  37.582  0.00  0.00    -0.200 OA
ATOM      3  O   UNL d   1      44.437 -15.912  36.331  0.00  0.00    -0.200 OA
ENDROOT
BRANCH   1   4
ATOM      4  N   UNL d   1      43.653 -15.789  36.754  0.00  0.00    -0.202 N 
ATOM      5  C   UNL d   1      43.509 -16.469  36.460  0.00  0.00     0.218 A 
ATOM      6  N   UNL d   1      42.764 -16.513  36.332  0.00  0.00    -0.178 NA
ATOM      7  S   UNL d   1      44.103 -16.927  36.363  0.00  0.00    -0.037 SA
ATOM      8  C   UNL d   1      42.460 -15.863  36.548  0.00  0.00     0.298 A 
ATOM      9  C   UNL d   1      43.004 -15.416  36.808  0.00  0.00     0.135 A 
ATOM     10  O   UNL d   1      41.724 -15.720  36.497  0.00  0.00    -0.264 OA
BRANCH   9  11
ATOM     11  C   UNL d   1      42.923 -14.720  37.076  0.00  0.00     0.022 C 
ATOM     12  C   UNL d   1      42.900 -14.610  37.817  0.00  0.00     0.002 C 
ATOM     13  C   UNL d   1      42.866 -14.138  36.606  0.00  0.00     0.002 C 
ENDBRANCH   9  11
ENDBRANCH   1   4
BRANCH   1  14
ATOM     14  C   UNL d   1      45.096 -15.288  37.117  0.00  0.00     0.104 A 
ATOM     15  C   UNL d   1      45.519 -15.616  37.749  0.00  0.00     0.012 A 
ATOM     16  C   UNL d   1      46.291 -15.369  37.911  0.00  0.00     0.001 A 
ATOM     17  C   UNL d   1      45.144 -16.205  38.219  0.00  0.00     0.001 C 
ATOM     18  C   UNL d   1      46.646 -14.791  37.443  0.00  0.00     0.000 A 
ATOM     19  C   UNL d   1      46.230 -14.458  36.809  0.00  0.00     0.001 A 
ATOM     20  C   UNL d   1      45.451 -14.707  36.646  0.00  0.00     0.013 A 
ATOM     21  C   UNL d   1      46.589 -13.874  36.336  0.00  0.00     0.000 C 
ENDBRANCH   1  14
TORSDOF 3
ENDMDL
