MODEL 1
REMARK VINA RESULT:      18.6      0.000      0.000
REMARK  2 active torsions:
REMARK  status: ('A' for Active; 'I' for Inactive)
REMARK    1  A    between atoms: C_2  and  S_1 
REMARK    2  A    between atoms: N_4  and  S_1 
ROOT
ATOM      1  S   UNL d   1      13.573  12.734  -3.080  0.00  0.00     0.275 S 
ATOM      2  O   UNL d   1      14.151  13.317  -3.077  0.00  0.00    -0.199 OA
ATOM      3  O   UNL d   1      12.996  12.150  -3.079  0.00  0.00    -0.199 OA
ENDROOT
BRANCH   1   4
ATOM      4  C   UNL d   1      13.260  13.025  -3.781  0.00  0.00     0.143 A 
ATOM      5  C   UNL d   1      13.067  13.814  -3.926  0.00  0.00     0.117 A 
ATOM      6  N   UNL d   1      12.771  13.862  -4.694  0.00  0.00    -0.147 NA
ATOM      7  C   UNL d   1      13.153  14.446  -3.402  0.00  0.00     0.023 C 
ATOM      8  N   UNL d   1      12.783  13.101  -5.018  0.00  0.00    -0.147 NA
ATOM      9  C   UNL d   1      13.084  12.592  -4.451  0.00  0.00     0.117 A 
ATOM     10  C   UNL d   1      13.192  11.780  -4.542  0.00  0.00     0.023 C 
ENDBRANCH   1   4
BRANCH   1  11
ATOM     11  N   UNL d   1      13.864  12.416  -2.373  0.00  0.00    -0.225 N 
ATOM     12  C   UNL d   1      14.686  12.389  -2.236  0.00  0.00     0.118 A 
ATOM     13  C   UNL d   1      14.976  12.071  -1.529  0.00  0.00     0.142 A 
ATOM     14  O   UNL d   1      14.456  11.780  -0.961  0.00  0.00    -0.300 OA
ATOM     15  C   UNL d   1      13.642  11.806  -1.095  0.00  0.00     0.142 A 
ATOM     16  C   UNL d   1      13.343  12.123  -1.802  0.00  0.00     0.118 A 
ENDBRANCH   1  11
TORSDOF 2
ENDMDL
