MODEL 1
REMARK VINA RESULT:      -8.5      0.000      0.000
REMARK  5 active torsions:
REMARK  status: ('A' for Active; 'I' for Inactive)
REMARK    1  A    between atoms: C_3  and  C_1 
REMARK    2  A    between atoms: C_4  and  C_3 
REMARK    3  A    between atoms: C_7  and  C_4 
REMARK    4  A    between atoms: C_10  and  C_7 
REMARK    5  A    between atoms: O_19  and  C_9 
ROOT
ATOM      1  C   UNL d   1      53.103  32.286  53.098  0.00  0.00     0.199 C 
ATOM      2  O   UNL d   1      53.788  32.721  52.948  0.00  0.00    -0.286 OA
ENDROOT
BRANCH   1   3
ATOM      3  C   UNL d   1      53.157  31.493  53.312  0.00  0.00     0.078 A 
ATOM      4  C   UNL d   1      53.532  31.280  54.015  0.00  0.00     0.201 A 
ATOM      5  C   UNL d   1      53.585  30.482  54.228  0.00  0.00     0.066 A 
ATOM      6  O   UNL d   1      53.855  31.857  54.507  0.00  0.00    -0.286 OA
ATOM      7  C   UNL d   1      53.264  29.902  53.739  0.00  0.00     0.097 A 
ATOM      8  C   UNL d   1      52.889  30.116  53.036  0.00  0.00     0.025 A 
ATOM      9  C   UNL d   1      52.835  30.910  52.822  0.00  0.00     0.008 A 
BRANCH   7  10
ATOM     10  O   UNL d   1      53.317  29.102  53.952  0.00  0.00    -0.328 OA
ATOM     11  C   UNL d   1      53.211  28.875  54.737  0.00  0.00     0.181 C 
ENDBRANCH   7  10
ENDBRANCH   1   3
BRANCH   1  12
ATOM     12  C   UNL d   1      52.365  32.645  53.034  0.00  0.00     0.042 C 
BRANCH  12  13
ATOM     13  C   UNL d   1      52.306  33.448  52.832  0.00  0.00     0.003 C 
BRANCH  13  14
ATOM     14  C   UNL d   1      51.568  33.796  52.729  0.00  0.00     0.000 A 
ATOM     15  C   UNL d   1      51.335  34.038  51.975  0.00  0.00     0.001 A 
ATOM     16  C   UNL d   1      50.597  34.386  51.870  0.00  0.00     0.011 A 
ATOM     17  C   UNL d   1      50.095  34.487  52.545  0.00  0.00     0.058 A 
ATOM     18  C   UNL d   1      50.328  34.250  53.273  0.00  0.00     0.011 A 
ATOM     19 CL   UNL d   1      49.359  34.832  52.453  0.00  0.00    -0.082 Cl
ATOM     20  C   UNL d   1      51.066  33.902  53.377  0.00  0.00     0.001 A 
ENDBRANCH  13  14
ENDBRANCH  12  13
ENDBRANCH   1  12
TORSDOF 5
ENDMDL
MODEL 2
REMARK VINA RESULT:      -8.3      1.715      2.116
REMARK  5 active torsions:
REMARK  status: ('A' for Active; 'I' for Inactive)
REMARK    1  A    between atoms: C_3  and  C_1 
REMARK    2  A    between atoms: C_4  and  C_3 
REMARK    3  A    between atoms: C_7  and  C_4 
REMARK    4  A    between atoms: C_10  and  C_7 
REMARK    5  A    between atoms: O_19  and  C_9 
ROOT
ATOM      1  C   UNL d   1      52.893  31.640  52.955  0.00  0.00     0.199 C 
ATOM      2  O   UNL d   1      52.669  31.707  52.164  0.00  0.00    -0.286 OA
ENDROOT
BRANCH   1   3
ATOM      3  C   UNL d   1      52.997  30.897  53.293  0.00  0.00     0.078 A 
ATOM      4  C   UNL d   1      52.343  30.419  53.448  0.00  0.00     0.201 A 
ATOM      5  C   UNL d   1      52.449  29.672  53.788  0.00  0.00     0.066 A 
ATOM      6  O   UNL d   1      51.582  30.681  53.267  0.00  0.00    -0.286 OA
ATOM      7  C   UNL d   1      53.208  29.406  53.970  0.00  0.00     0.097 A 
ATOM      8  C   UNL d   1      53.862  29.885  53.815  0.00  0.00     0.025 A 
ATOM      9  C   UNL d   1      53.757  30.628  53.477  0.00  0.00     0.008 A 
BRANCH   7  10
ATOM     10  O   UNL d   1      53.316  28.657  54.311  0.00  0.00    -0.328 OA
ATOM     11  C   UNL d   1      53.410  28.584  55.126  0.00  0.00     0.181 C 
ENDBRANCH   7  10
ENDBRANCH   1   3
BRANCH   1  12
ATOM     12  C   UNL d   1      53.013  32.317  53.408  0.00  0.00     0.042 C 
BRANCH  12  13
ATOM     13  C   UNL d   1      53.134  33.051  53.039  0.00  0.00     0.003 C 
BRANCH  13  14
ATOM     14  C   UNL d   1      53.088  33.747  53.476  0.00  0.00     0.000 A 
ATOM     15  C   UNL d   1      53.547  33.830  54.156  0.00  0.00     0.001 A 
ATOM     16  C   UNL d   1      53.502  34.526  54.594  0.00  0.00     0.011 A 
ATOM     17  C   UNL d   1      52.982  35.140  54.330  0.00  0.00     0.058 A 
ATOM     18  C   UNL d   1      52.540  35.052  53.669  0.00  0.00     0.011 A 
ATOM     19 CL   UNL d   1      52.929  35.835  54.757  0.00  0.00    -0.082 Cl
ATOM     20  C   UNL d   1      52.585  34.356  53.233  0.00  0.00     0.001 A 
ENDBRANCH  13  14
ENDBRANCH  12  13
ENDBRANCH   1  12
TORSDOF 5
ENDMDL
MODEL 3
REMARK VINA RESULT:      -8.3      2.313      4.578
REMARK  5 active torsions:
REMARK  status: ('A' for Active; 'I' for Inactive)
REMARK    1  A    between atoms: C_3  and  C_1 
REMARK    2  A    between atoms: C_4  and  C_3 
REMARK    3  A    between atoms: C_7  and  C_4 
REMARK    4  A    between atoms: C_10  and  C_7 
REMARK    5  A    between atoms: O_19  and  C_9 
ROOT
ATOM      1  C   UNL d   1      52.465  32.630  52.806  0.00  0.00     0.199 C 
ATOM      2  O   UNL d   1      52.151  32.523  52.051  0.00  0.00    -0.286 OA
ENDROOT
BRANCH   1   3
ATOM      3  C   UNL d   1      52.490  33.381  53.139  0.00  0.00     0.078 A 
ATOM      4  C   UNL d   1      51.790  33.771  53.333  0.00  0.00     0.201 A 
ATOM      5  C   UNL d   1      51.816  34.527  53.669  0.00  0.00     0.066 A 
ATOM      6  O   UNL d   1      51.060  33.411  53.195  0.00  0.00    -0.286 OA
ATOM      7  C   UNL d   1      52.543  34.889  53.809  0.00  0.00     0.097 A 
ATOM      8  C   UNL d   1      53.244  34.500  53.615  0.00  0.00     0.025 A 
ATOM      9  C   UNL d   1      53.218  33.748  53.281  0.00  0.00     0.008 A 
BRANCH   7  10
ATOM     10  O   UNL d   1      52.571  35.648  54.146  0.00  0.00    -0.328 OA
ATOM     11  C   UNL d   1      53.089  35.804  54.767  0.00  0.00     0.181 C 
ENDBRANCH   7  10
ENDBRANCH   1   3
BRANCH   1  12
ATOM     12  C   UNL d   1      52.755  31.984  53.226  0.00  0.00     0.042 C 
BRANCH  12  13
ATOM     13  C   UNL d   1      52.850  31.249  52.851  0.00  0.00     0.003 C 
BRANCH  13  14
ATOM     14  C   UNL d   1      53.003  30.574  53.295  0.00  0.00     0.000 A 
ATOM     15  C   UNL d   1      52.474  29.942  53.270  0.00  0.00     0.001 A 
ATOM     16  C   UNL d   1      52.627  29.266  53.714  0.00  0.00     0.011 A 
ATOM     17  C   UNL d   1      53.328  29.240  54.188  0.00  0.00     0.058 A 
ATOM     18  C   UNL d   1      53.837  29.857  54.208  0.00  0.00     0.011 A 
ATOM     19 CL   UNL d   1      53.490  28.574  54.634  0.00  0.00    -0.082 Cl
ATOM     20  C   UNL d   1      53.683  30.532  53.764  0.00  0.00     0.001 A 
ENDBRANCH  13  14
ENDBRANCH  12  13
ENDBRANCH   1  12
TORSDOF 5
ENDMDL
MODEL 4
REMARK VINA RESULT:      -8.0      2.472      4.608
REMARK  5 active torsions:
REMARK  status: ('A' for Active; 'I' for Inactive)
REMARK    1  A    between atoms: C_3  and  C_1 
REMARK    2  A    between atoms: C_4  and  C_3 
REMARK    3  A    between atoms: C_7  and  C_4 
REMARK    4  A    between atoms: C_10  and  C_7 
REMARK    5  A    between atoms: O_19  and  C_9 
ROOT
ATOM      1  C   UNL d   1      52.138  33.012  52.888  0.00  0.00     0.199 C 
ATOM      2  O   UNL d   1      52.234  32.300  52.481  0.00  0.00    -0.286 OA
ENDROOT
BRANCH   1   3
ATOM      3  C   UNL d   1      51.457  33.460  52.778  0.00  0.00     0.078 A 
ATOM      4  C   UNL d   1      51.394  33.961  52.125  0.00  0.00     0.201 A 
ATOM      5  C   UNL d   1      50.709  34.412  52.016  0.00  0.00     0.066 A 
ATOM      6  O   UNL d   1      52.010  34.015  51.580  0.00  0.00    -0.286 OA
ATOM      7  C   UNL d   1      50.091  34.361  52.558  0.00  0.00     0.097 A 
ATOM      8  C   UNL d   1      50.154  33.860  53.211  0.00  0.00     0.025 A 
ATOM      9  C   UNL d   1      50.836  33.411  53.321  0.00  0.00     0.008 A 
BRANCH   7  10
ATOM     10  O   UNL d   1      49.403  34.812  52.450  0.00  0.00    -0.328 OA
ATOM     11  C   UNL d   1      49.093  35.250  53.075  0.00  0.00     0.181 C 
ENDBRANCH   7  10
ENDBRANCH   1   3
BRANCH   1  12
ATOM     12  C   UNL d   1      52.723  33.273  53.405  0.00  0.00     0.042 C 
BRANCH  12  13
ATOM     13  C   UNL d   1      53.312  32.750  53.668  0.00  0.00     0.003 C 
BRANCH  13  14
ATOM     14  C   UNL d   1      53.912  33.019  54.163  0.00  0.00     0.000 A 
ATOM     15  C   UNL d   1      53.820  32.963  54.981  0.00  0.00     0.001 A 
ATOM     16  C   UNL d   1      54.420  33.231  55.476  0.00  0.00     0.011 A 
ATOM     17  C   UNL d   1      55.120  33.559  55.129  0.00  0.00     0.058 A 
ATOM     18  C   UNL d   1      55.202  33.610  54.335  0.00  0.00     0.011 A 
ATOM     19 CL   UNL d   1      55.722  33.828  55.611  0.00  0.00    -0.082 Cl
ATOM     20  C   UNL d   1      54.602  33.341  53.840  0.00  0.00     0.001 A 
ENDBRANCH  13  14
ENDBRANCH  12  13
ENDBRANCH   1  12
TORSDOF 5
ENDMDL
MODEL 5
REMARK VINA RESULT:      -7.8      2.085      4.501
REMARK  5 active torsions:
REMARK  status: ('A' for Active; 'I' for Inactive)
REMARK    1  A    between atoms: C_3  and  C_1 
REMARK    2  A    between atoms: C_4  and  C_3 
REMARK    3  A    between atoms: C_7  and  C_4 
REMARK    4  A    between atoms: C_10  and  C_7 
REMARK    5  A    between atoms: O_19  and  C_9 
ROOT
ATOM      1  C   UNL d   1      52.794  33.114  53.006  0.00  0.00     0.199 C 
ATOM      2  O   UNL d   1      53.529  33.412  52.779  0.00  0.00    -0.286 OA
ENDROOT
BRANCH   1   3
ATOM      3  C   UNL d   1      52.134  33.604  53.011  0.00  0.00     0.078 A 
ATOM      4  C   UNL d   1      52.061  34.194  53.583  0.00  0.00     0.201 A 
ATOM      5  C   UNL d   1      51.397  34.687  53.587  0.00  0.00     0.066 A 
ATOM      6  O   UNL d   1      52.649  34.296  54.154  0.00  0.00    -0.286 OA
ATOM      7  C   UNL d   1      50.808  34.588  53.019  0.00  0.00     0.097 A 
ATOM      8  C   UNL d   1      50.881  33.999  52.446  0.00  0.00     0.025 A 
ATOM      9  C   UNL d   1      51.542  33.508  52.442  0.00  0.00     0.008 A 
BRANCH   7  10
ATOM     10  O   UNL d   1      50.141  35.082  53.021  0.00  0.00    -0.328 OA
ATOM     11  C   UNL d   1      49.441  34.831  52.667  0.00  0.00     0.181 C 
ENDBRANCH   7  10
ENDBRANCH   1   3
BRANCH   1  12
ATOM     12  C   UNL d   1      52.720  32.324  53.229  0.00  0.00     0.042 C 
BRANCH  12  13
ATOM     13  C   UNL d   1      53.333  31.787  53.072  0.00  0.00     0.003 C 
BRANCH  13  14
ATOM     14  C   UNL d   1      53.309  31.027  53.387  0.00  0.00     0.000 A 
ATOM     15  C   UNL d   1      52.962  30.418  52.953  0.00  0.00     0.001 A 
ATOM     16  C   UNL d   1      52.937  29.658  53.268  0.00  0.00     0.011 A 
ATOM     17  C   UNL d   1      53.271  29.523  54.034  0.00  0.00     0.058 A 
ATOM     18  C   UNL d   1      53.606  30.119  54.450  0.00  0.00     0.011 A 
ATOM     19 CL   UNL d   1      53.252  28.772  54.357  0.00  0.00    -0.082 Cl
ATOM     20  C   UNL d   1      53.631  30.879  54.134  0.00  0.00     0.001 A 
ENDBRANCH  13  14
ENDBRANCH  12  13
ENDBRANCH   1  12
TORSDOF 5
ENDMDL
MODEL 6
REMARK VINA RESULT:      -7.2      1.579      2.354
REMARK  5 active torsions:
REMARK  status: ('A' for Active; 'I' for Inactive)
REMARK    1  A    between atoms: C_3  and  C_1 
REMARK    2  A    between atoms: C_4  and  C_3 
REMARK    3  A    between atoms: C_7  and  C_4 
REMARK    4  A    between atoms: C_10  and  C_7 
REMARK    5  A    between atoms: O_19  and  C_9 
ROOT
ATOM      1  C   UNL d   1      52.525  33.099  52.978  0.00  0.00     0.199 C 
ATOM      2  O   UNL d   1      52.648  32.640  52.304  0.00  0.00    -0.286 OA
ENDROOT
BRANCH   1   3
ATOM      3  C   UNL d   1      53.090  33.113  53.576  0.00  0.00     0.078 A 
ATOM      4  C   UNL d   1      53.355  32.408  53.911  0.00  0.00     0.201 A 
ATOM      5  C   UNL d   1      53.923  32.424  54.513  0.00  0.00     0.066 A 
ATOM      6  O   UNL d   1      53.056  31.684  53.651  0.00  0.00    -0.286 OA
ATOM      7  C   UNL d   1      54.224  33.145  54.775  0.00  0.00     0.097 A 
ATOM      8  C   UNL d   1      53.959  33.850  54.440  0.00  0.00     0.025 A 
ATOM      9  C   UNL d   1      53.393  33.835  53.841  0.00  0.00     0.008 A 
BRANCH   7  10
ATOM     10  O   UNL d   1      54.794  33.162  55.378  0.00  0.00    -0.328 OA
ATOM     11  C   UNL d   1      55.307  33.804  55.443  0.00  0.00     0.181 C 
ENDBRANCH   7  10
ENDBRANCH   1   3
BRANCH   1  12
ATOM     12  C   UNL d   1      51.836  33.543  53.053  0.00  0.00     0.042 C 
BRANCH  12  13
ATOM     13  C   UNL d   1      51.414  33.778  52.378  0.00  0.00     0.003 C 
BRANCH  13  14
ATOM     14  C   UNL d   1      50.695  34.170  52.454  0.00  0.00     0.000 A 
ATOM     15  C   UNL d   1      50.180  34.204  51.811  0.00  0.00     0.001 A 
ATOM     16  C   UNL d   1      49.460  34.596  51.887  0.00  0.00     0.011 A 
ATOM     17  C   UNL d   1      49.269  34.956  52.629  0.00  0.00     0.058 A 
ATOM     18  C   UNL d   1      49.773  34.920  53.249  0.00  0.00     0.011 A 
ATOM     19 CL   UNL d   1      48.557  35.348  52.716  0.00  0.00    -0.082 Cl
ATOM     20  C   UNL d   1      50.492  34.527  53.172  0.00  0.00     0.001 A 
ENDBRANCH  13  14
ENDBRANCH  12  13
ENDBRANCH   1  12
TORSDOF 5
ENDMDL
