MODEL 1
REMARK VINA RESULT:      19.5      0.000      0.000
REMARK  4 active torsions:
REMARK  status: ('A' for Active; 'I' for Inactive)
REMARK    1  A    between atoms: N_3  and  C_1 
REMARK       I    between atoms: C_7  and  N_3 
REMARK    2  A    between atoms: C_12  and  N_3 
REMARK    3  A    between atoms: C_17  and  C_12 
REMARK    4  A    between atoms: N_18  and  C_17 
ROOT
ATOM      1  C   UNL d   1      46.149 -17.570  43.858  0.00  0.00     0.182 A 
ATOM      2  N   UNL d   1      46.632 -16.894  43.765  0.00  0.00    -0.222 NA
ATOM      3  S   UNL d   1      45.431 -17.326  44.198  0.00  0.00    -0.048 SA
ATOM      4  C   UNL d   1      46.213 -16.241  44.047  0.00  0.00     0.092 A 
ATOM      5  C   UNL d   1      45.478 -16.504  44.312  0.00  0.00     0.052 A 
ATOM      6  C   UNL d   1      46.414 -15.449  44.091  0.00  0.00     0.046 A 
ATOM      7  C   UNL d   1      44.942 -15.962  44.624  0.00  0.00     0.034 A 
ATOM      8  C   UNL d   1      45.876 -14.918  44.402  0.00  0.00     0.121 A 
ATOM      9  C   UNL d   1      45.147 -15.170  44.667  0.00  0.00     0.120 A 
ATOM     10  O   UNL d   1      44.731 -14.509  44.948  0.00  0.00    -0.300 OA
ATOM     11  O   UNL d   1      45.919 -14.097  44.518  0.00  0.00    -0.299 OA
ATOM     12  C   UNL d   1      45.211 -13.841  44.855  0.00  0.00     0.304 A 
ENDROOT
BRANCH   1  13
ATOM     13  N   UNL d   1      46.357 -18.344  43.646  0.00  0.00    -0.251 N 
ATOM     14  C   UNL d   1      46.270 -18.950  44.205  0.00  0.00     0.267 C 
ATOM     15  O   UNL d   1      45.983 -18.787  44.954  0.00  0.00    -0.267 OA
ATOM     16  C   UNL d   1      46.478 -19.724  43.992  0.00  0.00     0.066 C 
BRANCH  13  17
ATOM     17  C   UNL d   1      46.647 -18.509  42.889  0.00  0.00     0.104 C 
BRANCH  17  18
ATOM     18  C   UNL d   1      46.173 -18.905  42.342  0.00  0.00     0.100 C 
BRANCH  18  19
ATOM     19  N   UNL d   1      46.435 -19.010  41.565  0.00  0.00    -0.299 N 
ATOM     20  C   UNL d   1      46.501 -18.361  41.060  0.00  0.00     0.100 C 
ATOM     21  C   UNL d   1      46.633 -19.764  41.294  0.00  0.00     0.100 C 
ENDBRANCH  18  19
ENDBRANCH  17  18
ENDBRANCH  13  17
ENDBRANCH   1  13
TORSDOF 4
ENDMDL
MODEL 2
REMARK VINA RESULT:      20.5      1.541      4.469
REMARK  4 active torsions:
REMARK  status: ('A' for Active; 'I' for Inactive)
REMARK    1  A    between atoms: N_3  and  C_1 
REMARK       I    between atoms: C_7  and  N_3 
REMARK    2  A    between atoms: C_12  and  N_3 
REMARK    3  A    between atoms: C_17  and  C_12 
REMARK    4  A    between atoms: N_18  and  C_17 
ROOT
ATOM      1  C   UNL d   1      45.468 -15.721  44.417  0.00  0.00     0.182 A 
ATOM      2  N   UNL d   1      45.528 -16.038  43.646  0.00  0.00    -0.222 NA
ATOM      3  S   UNL d   1      45.699 -16.310  44.955  0.00  0.00    -0.048 SA
ATOM      4  C   UNL d   1      45.794 -16.816  43.711  0.00  0.00     0.092 A 
ATOM      5  C   UNL d   1      45.899 -16.984  44.512  0.00  0.00     0.052 A 
ATOM      6  C   UNL d   1      45.951 -17.383  43.143  0.00  0.00     0.046 A 
ATOM      7  C   UNL d   1      46.164 -17.730  44.739  0.00  0.00     0.034 A 
ATOM      8  C   UNL d   1      46.213 -18.121  43.376  0.00  0.00     0.121 A 
ATOM      9  C   UNL d   1      46.320 -18.294  44.166  0.00  0.00     0.120 A 
ATOM     10  O   UNL d   1      46.587 -19.078  44.226  0.00  0.00    -0.300 OA
ATOM     11  O   UNL d   1      46.415 -18.797  42.937  0.00  0.00    -0.299 OA
ATOM     12  C   UNL d   1      46.646 -19.391  43.461  0.00  0.00     0.304 A 
ENDROOT
BRANCH   1  13
ATOM     13  N   UNL d   1      45.220 -14.951  44.603  0.00  0.00    -0.251 N 
ATOM     14  C   UNL d   1      44.418 -14.818  44.769  0.00  0.00     0.267 C 
ATOM     15  O   UNL d   1      43.882 -15.435  44.750  0.00  0.00    -0.267 OA
ATOM     16  C   UNL d   1      44.171 -14.049  44.955  0.00  0.00     0.066 C 
BRANCH  13  17
ATOM     17  C   UNL d   1      45.763 -14.327  44.623  0.00  0.00     0.104 C 
BRANCH  17  18
ATOM     18  C   UNL d   1      45.495 -13.547  44.634  0.00  0.00     0.100 C 
BRANCH  18  19
ATOM     19  N   UNL d   1      46.004 -12.932  44.420  0.00  0.00    -0.299 N 
ATOM     20  C   UNL d   1      45.908 -12.550  43.695  0.00  0.00     0.100 C 
ATOM     21  C   UNL d   1      46.608 -12.698  44.930  0.00  0.00     0.100 C 
ENDBRANCH  18  19
ENDBRANCH  17  18
ENDBRANCH  13  17
ENDBRANCH   1  13
TORSDOF 4
ENDMDL
