MODEL 1
REMARK VINA RESULT:      -3.5      0.000      0.000
REMARK  5 active torsions:
REMARK  status: ('A' for Active; 'I' for Inactive)
REMARK    1  A    between atoms: N_5  and  S_1 
REMARK    2  A    between atoms: C_7  and  S_1 
REMARK       I    between atoms: C_4  and  N_2 
REMARK    3  A    between atoms: C_3  and  N_11 
REMARK    4  A    between atoms: C_6  and  C_4 
REMARK    5  A    between atoms: N_11  and  C_19 
ROOT
ATOM      1  C   UNL d   1      56.963   0.044  32.034  0.00  0.00     0.104 A 
ATOM      2  C   UNL d   1      57.293   0.682  31.602  0.00  0.00     0.014 A 
ATOM      3  C   UNL d   1      57.183  -0.749  31.836  0.00  0.00     0.014 A 
ATOM      4  C   UNL d   1      58.042  -0.261  30.796  0.00  0.00     0.084 A 
ATOM      5  C   UNL d   1      57.836   0.528  30.979  0.00  0.00     0.020 A 
ATOM      6  C   UNL d   1      57.715  -0.899  31.225  0.00  0.00     0.020 A 
ENDROOT
BRANCH   4   7
ATOM      7  N   UNL d   1      58.582  -0.413  30.177  0.00  0.00    -0.217 NA
BRANCH   7   8
ATOM      8  C   UNL d   1      59.234   0.006  30.125  0.00  0.00     0.224 C 
ATOM      9  N   UNL d   1      60.211  -0.429  29.332  0.00  0.00    -0.178 NA
ATOM     10  C   UNL d   1      60.134  -1.092  28.925  0.00  0.00     0.287 C 
ATOM     11  O   UNL d   1      60.714  -1.349  28.455  0.00  0.00    -0.265 OA
ATOM     12  S   UNL d   1      59.324   0.681  30.532  0.00  0.00    -0.037 SA
BRANCH  10  13
ATOM     13  C   UNL d   1      59.460  -1.511  28.988  0.00  0.00     0.087 A 
ATOM     14  S   UNL d   1      58.807  -1.413  28.570  0.00  0.00    -0.082 SA
ATOM     15  C   UNL d   1      58.279  -1.951  28.819  0.00  0.00     0.036 A 
ATOM     16  C   UNL d   1      58.605  -2.363  29.373  0.00  0.00     0.008 A 
ATOM     17  C   UNL d   1      59.334  -2.103  29.489  0.00  0.00     0.012 A 
ENDBRANCH  10  13
ENDBRANCH   7   8
ENDBRANCH   4   7
BRANCH   1  18
ATOM     18  S   UNL d   1      56.420   0.198  32.659  0.00  0.00     0.271 S 
ATOM     19  O   UNL d   1      55.957   0.642  32.146  0.00  0.00    -0.200 OA
ATOM     20  O   UNL d   1      56.894  -0.258  33.184  0.00  0.00    -0.200 OA
BRANCH  18  21
ATOM     21  N   UNL d   1      55.889   0.348  33.267  0.00  0.00    -0.229 N 
ATOM     22  C   UNL d   1      56.185   0.528  34.056  0.00  0.00     0.092 A 
ATOM     23  C   UNL d   1      55.652   0.678  34.668  0.00  0.00     0.020 A 
ATOM     24  C   UNL d   1      54.812   0.652  34.504  0.00  0.00     0.003 A 
ATOM     25  C   UNL d   1      54.541   0.480  33.749  0.00  0.00     0.020 A 
ATOM     26  C   UNL d   1      55.081   0.327  33.129  0.00  0.00     0.092 A 
ENDBRANCH  18  21
ENDBRANCH   1  18
TORSDOF 5
ENDMDL
MODEL 2
REMARK VINA RESULT:      -1.9      1.434      5.383
REMARK  5 active torsions:
REMARK  status: ('A' for Active; 'I' for Inactive)
REMARK    1  A    between atoms: N_5  and  S_1 
REMARK    2  A    between atoms: C_7  and  S_1 
REMARK       I    between atoms: C_4  and  N_2 
REMARK    3  A    between atoms: C_3  and  N_11 
REMARK    4  A    between atoms: C_6  and  C_4 
REMARK    5  A    between atoms: N_11  and  C_19 
ROOT
ATOM      1  C   UNL d   1      58.152  -0.140  31.178  0.00  0.00     0.104 A 
ATOM      2  C   UNL d   1      57.569  -0.701  31.401  0.00  0.00     0.014 A 
ATOM      3  C   UNL d   1      58.262   0.553  31.652  0.00  0.00     0.014 A 
ATOM      4  C   UNL d   1      57.225   0.121  32.545  0.00  0.00     0.084 A 
ATOM      5  C   UNL d   1      57.103  -0.569  32.088  0.00  0.00     0.020 A 
ATOM      6  C   UNL d   1      57.806   0.682  32.326  0.00  0.00     0.020 A 
ENDROOT
BRANCH   4   7
ATOM      7  N   UNL d   1      56.763   0.251  33.227  0.00  0.00    -0.217 NA
BRANCH   7   8
ATOM      8  C   UNL d   1      57.106   0.483  33.884  0.00  0.00     0.224 C 
ATOM      9  N   UNL d   1      56.363   0.612  34.981  0.00  0.00    -0.178 NA
ATOM     10  C   UNL d   1      55.597   0.459  34.969  0.00  0.00     0.287 C 
ATOM     11  O   UNL d   1      55.157   0.536  35.621  0.00  0.00    -0.265 OA
ATOM     12  S   UNL d   1      57.883   0.642  33.910  0.00  0.00    -0.037 SA
BRANCH  10  13
ATOM     13  C   UNL d   1      55.259   0.222  34.288  0.00  0.00     0.087 A 
ATOM     14  S   UNL d   1      54.924   0.678  33.749  0.00  0.00    -0.082 SA
ATOM     15  C   UNL d   1      54.662   0.207  33.166  0.00  0.00     0.036 A 
ATOM     16  C   UNL d   1      54.834  -0.514  33.349  0.00  0.00     0.008 A 
ATOM     17  C   UNL d   1      55.203  -0.521  34.040  0.00  0.00     0.012 A 
ENDBRANCH  10  13
ENDBRANCH   7   8
ENDBRANCH   4   7
BRANCH   1  18
ATOM     18  S   UNL d   1      58.618  -0.272  30.490  0.00  0.00     0.271 S 
ATOM     19  O   UNL d   1      59.215   0.195  30.805  0.00  0.00    -0.200 OA
ATOM     20  O   UNL d   1      58.006  -0.751  30.167  0.00  0.00    -0.200 OA
BRANCH  18  21
ATOM     21  N   UNL d   1      59.073  -0.400  29.819  0.00  0.00    -0.229 N 
ATOM     22  C   UNL d   1      59.416  -1.178  29.677  0.00  0.00     0.092 A 
ATOM     23  C   UNL d   1      59.873  -1.307  29.003  0.00  0.00     0.020 A 
ATOM     24  C   UNL d   1      59.998  -0.661  28.455  0.00  0.00     0.003 A 
ATOM     25  C   UNL d   1      59.667   0.076  28.599  0.00  0.00     0.020 A 
ATOM     26  C   UNL d   1      59.204   0.207  29.283  0.00  0.00     0.092 A 
ENDBRANCH  18  21
ENDBRANCH   1  18
TORSDOF 5
ENDMDL
