MODEL 1
REMARK VINA RESULT:      -4.9      0.000      0.000
REMARK  2 active torsions:
REMARK  status: ('A' for Active; 'I' for Inactive)
REMARK    1  A    between atoms: C_8  and  N_1 
REMARK    2  A    between atoms: O_15  and  C_14 
ROOT
ATOM      1  N   UNL d   1     -41.545-122.489 -51.194  0.00  0.00    -0.243 N 
ATOM      2  C   UNL d   1     -41.318-121.767 -51.427  0.00  0.00     0.251 A 
ATOM      3  C   UNL d   1     -41.597-122.988 -51.820  0.00  0.00     0.264 A 
ATOM      4  C   UNL d   1     -41.215-121.795 -52.264  0.00  0.00     0.129 A 
ATOM      5  C   UNL d   1     -41.388-122.551 -52.507  0.00  0.00     0.047 A 
ATOM      6  C   UNL d   1     -41.399-122.960 -53.253  0.00  0.00     0.001 A 
ATOM      7  C   UNL d   1     -41.308-122.570 -53.146  0.00  0.00    -0.009 A 
ATOM      8  C   UNL d   1     -41.220-122.728 -54.123  0.00  0.00    -0.000 A 
ATOM      9  C   UNL d   1     -41.131-122.337 -53.997  0.00  0.00    -0.004 A 
ATOM     10  C   UNL d   1     -41.632-123.663 -52.937  0.00  0.00    -0.004 A 
ATOM     11  O   UNL d   1     -41.206-121.103 -50.916  0.00  0.00    -0.271 OA
ATOM     12  O   UNL d   1     -41.846-123.817 -51.645  0.00  0.00    -0.267 OA
ENDROOT
BRANCH   1  13
ATOM     13  C   UNL d   1     -41.701-122.682 -50.417  0.00  0.00     0.092 A 
ATOM     14  C   UNL d   1     -42.449-122.534 -50.092  0.00  0.00     0.110 A 
ATOM     15  C   UNL d   1     -42.599-122.729 -49.314  0.00  0.00     0.026 A 
ATOM     16  C   UNL d   1     -42.010-123.073 -48.850  0.00  0.00     0.002 A 
ATOM     17  C   UNL d   1     -41.279-123.216 -49.173  0.00  0.00     0.002 A 
ATOM     18  C   UNL d   1     -41.123-123.021 -49.957  0.00  0.00     0.020 A 
BRANCH  14  19
ATOM     19  O   UNL d   1     -43.018-122.192 -50.572  0.00  0.00    -0.327 OA
ATOM     20  C   UNL d   1     -43.726-122.114 -50.348  0.00  0.00     0.181 C 
ENDBRANCH  14  19
ENDBRANCH   1  13
TORSDOF 2
ENDMDL
MODEL 2
REMARK VINA RESULT:      -4.1      1.037      3.697
REMARK  2 active torsions:
REMARK  status: ('A' for Active; 'I' for Inactive)
REMARK    1  A    between atoms: C_8  and  N_1 
REMARK    2  A    between atoms: O_15  and  C_14 
ROOT
ATOM      1  N   UNL d   1     -42.227-123.044 -50.152  0.00  0.00    -0.243 N 
ATOM      2  C   UNL d   1     -42.911-122.680 -49.989  0.00  0.00     0.251 A 
ATOM      3  C   UNL d   1     -41.902-123.352 -49.487  0.00  0.00     0.264 A 
ATOM      4  C   UNL d   1     -43.043-122.755 -49.159  0.00  0.00     0.129 A 
ATOM      5  C   UNL d   1     -42.417-123.171 -48.848  0.00  0.00     0.047 A 
ATOM      6  C   UNL d   1     -42.194-123.440 -48.073  0.00  0.00     0.001 A 
ATOM      7  C   UNL d   1     -42.520-123.227 -48.215  0.00  0.00    -0.009 A 
ATOM      8  C   UNL d   1     -42.563-123.380 -47.234  0.00  0.00    -0.000 A 
ATOM      9  C   UNL d   1     -42.886-123.165 -47.395  0.00  0.00    -0.004 A 
ATOM     10  C   UNL d   1     -41.511-123.788 -48.320  0.00  0.00    -0.004 A 
ATOM     11  O   UNL d   1     -43.405-122.293 -50.556  0.00  0.00    -0.271 OA
ATOM     12  O   UNL d   1     -41.133-123.776 -49.583  0.00  0.00    -0.267 OA
ENDROOT
BRANCH   1  13
ATOM     13  C   UNL d   1     -41.910-123.090 -50.903  0.00  0.00     0.092 A 
ATOM     14  C   UNL d   1     -41.504-122.443 -51.224  0.00  0.00     0.110 A 
ATOM     15  C   UNL d   1     -41.190-122.494 -51.975  0.00  0.00     0.026 A 
ATOM     16  C   UNL d   1     -41.275-123.187 -52.415  0.00  0.00     0.002 A 
ATOM     17  C   UNL d   1     -41.673-123.817 -52.096  0.00  0.00     0.002 A 
ATOM     18  C   UNL d   1     -41.992-123.771 -51.339  0.00  0.00     0.020 A 
BRANCH  14  19
ATOM     19  O   UNL d   1     -41.432-121.766 -50.768  0.00  0.00    -0.327 OA
ATOM     20  C   UNL d   1     -41.123-121.141 -51.037  0.00  0.00     0.181 C 
ENDBRANCH  14  19
ENDBRANCH   1  13
TORSDOF 2
ENDMDL
MODEL 3
REMARK VINA RESULT:      -3.1      1.082      1.527
REMARK  2 active torsions:
REMARK  status: ('A' for Active; 'I' for Inactive)
REMARK    1  A    between atoms: C_8  and  N_1 
REMARK    2  A    between atoms: O_15  and  C_14 
ROOT
ATOM      1  N   UNL d   1     -41.659-122.541 -52.654  0.00  0.00    -0.243 N 
ATOM      2  C   UNL d   1     -41.416-121.800 -52.790  0.00  0.00     0.251 A 
ATOM      3  C   UNL d   1     -41.898-122.892 -53.334  0.00  0.00     0.264 A 
ATOM      4  C   UNL d   1     -41.502-121.655 -53.616  0.00  0.00     0.129 A 
ATOM      5  C   UNL d   1     -41.801-122.332 -53.953  0.00  0.00     0.047 A 
ATOM      6  C   UNL d   1     -42.018-122.573 -54.740  0.00  0.00     0.001 A 
ATOM      7  C   UNL d   1     -41.865-122.220 -54.584  0.00  0.00    -0.009 A 
ATOM      8  C   UNL d   1     -42.011-122.171 -55.565  0.00  0.00    -0.000 A 
ATOM      9  C   UNL d   1     -41.857-121.822 -55.391  0.00  0.00    -0.004 A 
ATOM     10  C   UNL d   1     -42.246-123.313 -54.520  0.00  0.00    -0.004 A 
ATOM     11  O   UNL d   1     -41.127-121.266 -52.201  0.00  0.00    -0.271 OA
ATOM     12  O   UNL d   1     -42.186-123.724 -53.269  0.00  0.00    -0.267 OA
ENDROOT
BRANCH   1  13
ATOM     13  C   UNL d   1     -41.660-122.885 -51.914  0.00  0.00     0.092 A 
ATOM     14  C   UNL d   1     -42.207-122.642 -51.341  0.00  0.00     0.110 A 
ATOM     15  C   UNL d   1     -42.203-122.989 -50.603  0.00  0.00     0.026 A 
ATOM     16  C   UNL d   1     -41.657-123.581 -50.425  0.00  0.00     0.002 A 
ATOM     17  C   UNL d   1     -41.123-123.816 -50.990  0.00  0.00     0.002 A 
ATOM     18  C   UNL d   1     -41.123-123.469 -51.735  0.00  0.00     0.020 A 
BRANCH  14  19
ATOM     19  O   UNL d   1     -42.739-122.052 -51.541  0.00  0.00    -0.327 OA
ATOM     20  C   UNL d   1     -43.284-121.840 -51.076  0.00  0.00     0.181 C 
ENDBRANCH  14  19
ENDBRANCH   1  13
TORSDOF 2
ENDMDL
MODEL 4
REMARK VINA RESULT:      -2.7      1.327      3.408
REMARK  2 active torsions:
REMARK  status: ('A' for Active; 'I' for Inactive)
REMARK    1  A    between atoms: C_8  and  N_1 
REMARK    2  A    between atoms: O_15  and  C_14 
ROOT
ATOM      1  N   UNL d   1     -41.511-122.384 -52.984  0.00  0.00    -0.243 N 
ATOM      2  C   UNL d   1     -41.269-121.717 -52.633  0.00  0.00     0.251 A 
ATOM      3  C   UNL d   1     -41.596-122.974 -52.448  0.00  0.00     0.264 A 
ATOM      4  C   UNL d   1     -41.190-121.881 -51.810  0.00  0.00     0.129 A 
ATOM      5  C   UNL d   1     -41.392-122.660 -51.695  0.00  0.00     0.047 A 
ATOM      6  C   UNL d   1     -41.437-123.182 -51.025  0.00  0.00     0.001 A 
ATOM      7  C   UNL d   1     -41.331-122.784 -51.066  0.00  0.00    -0.009 A 
ATOM      8  C   UNL d   1     -41.276-123.098 -50.125  0.00  0.00    -0.000 A 
ATOM      9  C   UNL d   1     -41.171-122.695 -50.185  0.00  0.00    -0.004 A 
ATOM     10  C   UNL d   1     -41.682-123.817 -51.455  0.00  0.00    -0.004 A 
ATOM     11  O   UNL d   1     -41.123-120.983 -53.028  0.00  0.00    -0.271 OA
ATOM     12  O   UNL d   1     -41.864-123.755 -52.759  0.00  0.00    -0.267 OA
ENDROOT
BRANCH   1  13
ATOM     13  C   UNL d   1     -41.651-122.445 -53.786  0.00  0.00     0.092 A 
ATOM     14  C   UNL d   1     -42.332-122.108 -54.117  0.00  0.00     0.110 A 
ATOM     15  C   UNL d   1     -42.467-122.172 -54.919  0.00  0.00     0.026 A 
ATOM     16  C   UNL d   1     -41.929-122.570 -55.401  0.00  0.00     0.002 A 
ATOM     17  C   UNL d   1     -41.263-122.897 -55.071  0.00  0.00     0.002 A 
ATOM     18  C   UNL d   1     -41.123-122.836 -54.264  0.00  0.00     0.020 A 
BRANCH  14  19
ATOM     19  O   UNL d   1     -42.853-121.718 -53.619  0.00  0.00    -0.327 OA
ATOM     20  C   UNL d   1     -43.547-121.545 -53.833  0.00  0.00     0.181 C 
ENDBRANCH  14  19
ENDBRANCH   1  13
TORSDOF 2
ENDMDL
