MODEL 1
REMARK VINA RESULT:      14.1      0.000      0.000
REMARK  5 active torsions:
REMARK  status: ('A' for Active; 'I' for Inactive)
REMARK    1  A    between atoms: C_13  and  C_4 
REMARK    2  A    between atoms: C_7  and  S_11 
REMARK    3  A    between atoms: O_14  and  C_7 
REMARK    4  A    between atoms: S_11  and  C_13 
REMARK    5  A    between atoms: C_16  and  O_14 
ROOT
ATOM      1  C   UNL d   1     -58.484 -98.761 -44.308  0.00  0.00     0.148 A 
ATOM      2  N   UNL d   1     -58.296 -98.758 -43.498  0.00  0.00    -0.288 N 
ATOM      3  N   UNL d   1     -57.753 -98.763 -44.718  0.00  0.00    -0.226 NA
ATOM      4  C   UNL d   1     -57.139 -98.762 -44.179  0.00  0.00     0.107 A 
ATOM      5  C   UNL d   1     -57.476 -98.758 -43.413  0.00  0.00     0.101 A 
ATOM      6  C   UNL d   1     -59.270 -98.761 -44.557  0.00  0.00     0.035 A 
ATOM      7  C   UNL d   1     -58.917 -98.755 -42.940  0.00  0.00     0.082 A 
ATOM      8  C   UNL d   1     -59.700 -98.755 -43.196  0.00  0.00     0.019 A 
ATOM      9  C   UNL d   1     -59.879 -98.759 -43.998  0.00  0.00     0.004 A 
ATOM     10  C   UNL d   1     -59.457 -98.765 -45.370  0.00  0.00     0.003 C 
ENDROOT
BRANCH   4  11
ATOM     11  C   UNL d   1     -56.331 -98.763 -44.346  0.00  0.00     0.059 C 
BRANCH  11  12
ATOM     12  S   UNL d   1     -55.883 -99.430 -44.200  0.00  0.00    -0.049 SA
BRANCH  12  13
ATOM     13  C   UNL d   1     -55.201 -99.579 -44.656  0.00  0.00     0.185 C 
ATOM     14  S   UNL d   1     -54.783 -98.954 -44.970  0.00  0.00    -0.044 SA
BRANCH  13  15
ATOM     15  O   UNL d   1     -54.959-100.354 -44.784  0.00  0.00    -0.288 OA
BRANCH  15  16
ATOM     16  C   UNL d   1     -54.712-101.128 -44.904  0.00  0.00     0.124 C 
ATOM     17  C   UNL d   1     -54.933-101.722 -44.371  0.00  0.00     0.029 C 
ENDBRANCH  15  16
ENDBRANCH  13  15
ENDBRANCH  12  13
ENDBRANCH  11  12
ENDBRANCH   4  11
TORSDOF 5
ENDMDL
