MODEL 1
REMARK VINA RESULT:      27.4      0.000      0.000
REMARK  8 active torsions:
REMARK  status: ('A' for Active; 'I' for Inactive)
REMARK    1  A    between atoms: C_8  and  N_3 
REMARK    2  A    between atoms: S_7  and  C_5 
REMARK    3  A    between atoms: C_17  and  S_7 
REMARK    4  A    between atoms: C_20  and  C_8 
REMARK    5  A    between atoms: C_9  and  C_17 
REMARK       I    between atoms: N_12  and  C_9 
REMARK    6  A    between atoms: C_11  and  C_13 
REMARK    7  A    between atoms: C_13  and  N_12 
REMARK    8  A    between atoms: O_21  and  C_15 
ROOT
ATOM      1  N   UNL d   1      46.258 -17.461  43.479  0.00  0.00    -0.185 NA
ATOM      2  C   UNL d   1      46.451 -17.955  42.846  0.00  0.00     0.354 A 
ATOM      3  N   UNL d   1      46.450 -18.776  42.950  0.00  0.00    -0.258 N 
ATOM      4  C   UNL d   1      46.067 -18.599  44.306  0.00  0.00     0.040 A 
ATOM      5  C   UNL d   1      46.066 -17.782  44.209  0.00  0.00     0.117 A 
ATOM      6  C   UNL d   1      46.258 -19.098  43.680  0.00  0.00     0.070 A 
ATOM      7  O   UNL d   1      46.647 -17.627  42.101  0.00  0.00    -0.244 OA
ATOM      8  C   UNL d   1      45.903 -19.084  44.953  0.00  0.00     0.004 A 
ATOM      9  C   UNL d   1      46.217 -19.880  43.922  0.00  0.00     0.018 A 
ATOM     10  C   UNL d   1      45.993 -19.867  44.726  0.00  0.00     0.002 A 
ENDROOT
BRANCH   5  11
ATOM     11  S   UNL d   1      45.872 -17.287  44.843  0.00  0.00    -0.062 SA
BRANCH  11  12
ATOM     12  C   UNL d   1      46.154 -16.514  44.867  0.00  0.00     0.099 C 
BRANCH  12  13
ATOM     13  C   UNL d   1      45.621 -15.882  44.804  0.00  0.00     0.286 C 
ATOM     14  N   UNL d   1      45.888 -15.111  44.806  0.00  0.00    -0.206 NA
ATOM     15  O   UNL d   1      44.803 -16.035  44.737  0.00  0.00    -0.265 OA
BRANCH  14  16
ATOM     16  C   UNL d   1      45.356 -14.480  44.743  0.00  0.00     0.104 C 
BRANCH  16  17
ATOM     17  C   UNL d   1      45.627 -13.722  44.592  0.00  0.00     0.042 A 
ATOM     18  C   UNL d   1      45.192 -13.209  44.109  0.00  0.00     0.096 A 
ATOM     19  C   UNL d   1      45.467 -12.447  43.959  0.00  0.00     0.024 A 
ATOM     20  C   UNL d   1      46.174 -12.187  44.285  0.00  0.00     0.002 A 
ATOM     21  C   UNL d   1      46.618 -12.692  44.770  0.00  0.00     0.000 A 
ATOM     22  C   UNL d   1      46.347 -13.465  44.927  0.00  0.00     0.004 A 
BRANCH  18  23
ATOM     23  O   UNL d   1      44.475 -13.463  43.774  0.00  0.00    -0.328 OA
ATOM     24  C   UNL d   1      43.776 -13.390  44.215  0.00  0.00     0.181 C 
ENDBRANCH  18  23
ENDBRANCH  16  17
ENDBRANCH  14  16
ENDBRANCH  12  13
ENDBRANCH  11  12
ENDBRANCH   5  11
BRANCH   3  25
ATOM     25  C   UNL d   1      46.643 -19.272  42.316  0.00  0.00     0.085 C 
BRANCH  25  26
ATOM     26  C   UNL d   1      46.381 -19.086  41.554  0.00  0.00     0.021 A 
ATOM     27  C   UNL d   1      45.863 -18.460  41.442  0.00  0.00     0.022 A 
ATOM     28  C   UNL d   1      45.606 -18.282  40.677  0.00  0.00     0.099 A 
ATOM     29  N   UNL d   1      45.864 -18.725  40.032  0.00  0.00    -0.242 NA
ATOM     30  C   UNL d   1      46.379 -19.347  40.151  0.00  0.00     0.099 A 
ATOM     31  C   UNL d   1      46.647 -19.537  40.922  0.00  0.00     0.022 A 
ENDBRANCH  25  26
ENDBRANCH   3  25
TORSDOF 8
ENDMDL
