MODEL 1
REMARK VINA RESULT:      -3.3      0.000      0.000
REMARK  1 active torsions:
REMARK  status: ('A' for Active; 'I' for Inactive)
REMARK    1  A    between atoms: C_7  and  C_4 
ROOT
ATOM      1  N   UNL d   1      32.373  22.291 -21.366  0.00  0.00    -0.211 NA
ATOM      2  C   UNL d   1      32.255  22.970 -20.912  0.00  0.00     0.140 A 
ATOM      3  C   UNL d   1      32.536  22.998 -20.136  0.00  0.00     0.051 A 
ATOM      4  C   UNL d   1      32.773  21.638 -21.044  0.00  0.00     0.183 A 
ATOM      5  C   UNL d   1      32.936  22.345 -19.814  0.00  0.00     0.104 A 
ATOM      6  O   UNL d   1      33.053  21.667 -20.268  0.00  0.00    -0.289 OA
ATOM      7  S   UNL d   1      31.858  23.621 -21.229  0.00  0.00    -0.057 SA
ATOM      8  C   UNL d   1      32.420  23.673 -19.680  0.00  0.00     0.004 A 
ATOM      9  C   UNL d   1      33.209  22.379 -19.050  0.00  0.00     0.025 A 
ATOM     10  C   UNL d   1      32.697  23.699 -18.917  0.00  0.00     0.000 A 
ATOM     11  C   UNL d   1      33.091  23.058 -18.596  0.00  0.00     0.002 A 
ENDROOT
BRANCH   4  12
ATOM     12  C   UNL d   1      32.890  20.960 -21.498  0.00  0.00     0.041 A 
ATOM     13  C   UNL d   1      32.775  20.215 -21.159  0.00  0.00     0.004 A 
ATOM     14  C   UNL d   1      32.890  19.536 -21.606  0.00  0.00     0.007 A 
ATOM     15  C   UNL d   1      33.124  19.595 -22.406  0.00  0.00     0.035 A 
ATOM     16  C   UNL d   1      33.238  20.340 -22.741  0.00  0.00     0.007 A 
ATOM     17 BR   UNL d   1      33.241  18.913 -22.861  0.00  0.00    -0.049 Br
ATOM     18  C   UNL d   1      33.122  21.027 -22.289  0.00  0.00     0.004 A 
ENDBRANCH   4  12
TORSDOF 1
ENDMDL
MODEL 2
REMARK VINA RESULT:      -3.1      5.584      6.910
REMARK  1 active torsions:
REMARK  status: ('A' for Active; 'I' for Inactive)
REMARK    1  A    between atoms: C_7  and  C_4 
ROOT
ATOM      1  N   UNL d   1      31.214  15.959 -24.489  0.00  0.00    -0.211 NA
ATOM      2  C   UNL d   1      31.983  16.211 -24.656  0.00  0.00     0.140 A 
ATOM      3  C   UNL d   1      32.232  16.958 -24.410  0.00  0.00     0.051 A 
ATOM      4  C   UNL d   1      30.694  16.457 -24.074  0.00  0.00     0.183 A 
ATOM      5  C   UNL d   1      31.712  17.456 -23.996  0.00  0.00     0.104 A 
ATOM      6  O   UNL d   1      30.944  17.204 -23.829  0.00  0.00    -0.289 OA
ATOM      7  S   UNL d   1      32.503  15.718 -25.067  0.00  0.00    -0.057 SA
ATOM      8  C   UNL d   1      32.997  17.212 -24.575  0.00  0.00     0.004 A 
ATOM      9  C   UNL d   1      31.964  18.190 -23.757  0.00  0.00     0.025 A 
ATOM     10  C   UNL d   1      33.241  17.947 -24.332  0.00  0.00     0.000 A 
ATOM     11  C   UNL d   1      32.732  18.441 -23.924  0.00  0.00     0.002 A 
ENDROOT
BRANCH   4  12
ATOM     12  C   UNL d   1      29.926  16.206 -23.908  0.00  0.00     0.041 A 
ATOM     13  C   UNL d   1      29.300  16.457 -24.386  0.00  0.00     0.004 A 
ATOM     14  C   UNL d   1      28.534  16.210 -24.225  0.00  0.00     0.007 A 
ATOM     15  C   UNL d   1      28.384  15.704 -23.578  0.00  0.00     0.035 A 
ATOM     16  C   UNL d   1      29.010  15.455 -23.103  0.00  0.00     0.007 A 
ATOM     17 BR   UNL d   1      27.612  15.453 -23.413  0.00  0.00    -0.049 Br
ATOM     18  C   UNL d   1      29.785  15.705 -23.265  0.00  0.00     0.004 A 
ENDBRANCH   4  12
TORSDOF 1
ENDMDL
MODEL 3
REMARK VINA RESULT:      -3.0      2.746      3.922
REMARK  1 active torsions:
REMARK  status: ('A' for Active; 'I' for Inactive)
REMARK    1  A    between atoms: C_7  and  C_4 
ROOT
ATOM      1  N   UNL d   1      32.896  19.175 -23.973  0.00  0.00    -0.211 NA
ATOM      2  C   UNL d   1      33.069  19.963 -23.798  0.00  0.00     0.140 A 
ATOM      3  C   UNL d   1      33.069  20.219 -23.013  0.00  0.00     0.051 A 
ATOM      4  C   UNL d   1      32.724  18.641 -23.360  0.00  0.00     0.183 A 
ATOM      5  C   UNL d   1      32.897  19.684 -22.401  0.00  0.00     0.104 A 
ATOM      6  O   UNL d   1      32.725  18.897 -22.576  0.00  0.00    -0.289 OA
ATOM      7  S   UNL d   1      33.240  20.497 -24.404  0.00  0.00    -0.057 SA
ATOM      8  C   UNL d   1      33.241  21.003 -22.835  0.00  0.00     0.004 A 
ATOM      9  C   UNL d   1      32.900  19.942 -21.631  0.00  0.00     0.025 A 
ATOM     10  C   UNL d   1      33.241  21.253 -22.063  0.00  0.00     0.000 A 
ATOM     11  C   UNL d   1      33.072  20.730 -21.457  0.00  0.00     0.002 A 
ENDROOT
BRANCH   4  12
ATOM     12  C   UNL d   1      32.552  17.853 -23.535  0.00  0.00     0.041 A 
ATOM     13  C   UNL d   1      31.787  17.644 -23.769  0.00  0.00     0.004 A 
ATOM     14  C   UNL d   1      31.609  16.862 -23.944  0.00  0.00     0.007 A 
ATOM     15  C   UNL d   1      32.200  16.275 -23.888  0.00  0.00     0.035 A 
ATOM     16  C   UNL d   1      32.962  16.487 -23.655  0.00  0.00     0.007 A 
ATOM     17 BR   UNL d   1      32.025  15.485 -24.064  0.00  0.00    -0.049 Br
ATOM     18  C   UNL d   1      33.143  17.277 -23.477  0.00  0.00     0.004 A 
ENDBRANCH   4  12
TORSDOF 1
ENDMDL
MODEL 4
REMARK VINA RESULT:      -2.7      2.546      4.791
REMARK  1 active torsions:
REMARK  status: ('A' for Active; 'I' for Inactive)
REMARK    1  A    between atoms: C_7  and  C_4 
ROOT
ATOM      1  N   UNL d   1      33.165  19.737 -23.505  0.00  0.00    -0.211 NA
ATOM      2  C   UNL d   1      33.145  19.144 -24.079  0.00  0.00     0.140 A 
ATOM      3  C   UNL d   1      33.034  18.358 -23.852  0.00  0.00     0.051 A 
ATOM      4  C   UNL d   1      33.074  19.543 -22.702  0.00  0.00     0.183 A 
ATOM      5  C   UNL d   1      32.943  18.164 -23.049  0.00  0.00     0.104 A 
ATOM      6  O   UNL d   1      32.963  18.758 -22.477  0.00  0.00    -0.289 OA
ATOM      7  S   UNL d   1      33.235  19.332 -24.878  0.00  0.00    -0.057 SA
ATOM      8  C   UNL d   1      33.013  17.763 -24.421  0.00  0.00     0.004 A 
ATOM      9  C   UNL d   1      32.834  17.389 -22.834  0.00  0.00     0.025 A 
ATOM     10  C   UNL d   1      32.904  16.991 -24.196  0.00  0.00     0.000 A 
ATOM     11  C   UNL d   1      32.814  16.796 -23.407  0.00  0.00     0.002 A 
ENDROOT
BRANCH   4  12
ATOM     12  C   UNL d   1      33.094  20.137 -22.130  0.00  0.00     0.041 A 
ATOM     13  C   UNL d   1      33.220  19.937 -21.337  0.00  0.00     0.004 A 
ATOM     14  C   UNL d   1      33.241  20.522 -20.763  0.00  0.00     0.007 A 
ATOM     15  C   UNL d   1      33.136  21.323 -20.976  0.00  0.00     0.035 A 
ATOM     16  C   UNL d   1      33.011  21.519 -21.767  0.00  0.00     0.007 A 
ATOM     17 BR   UNL d   1      33.156  21.917 -20.400  0.00  0.00    -0.049 Br
ATOM     18  C   UNL d   1      32.989  20.927 -22.349  0.00  0.00     0.004 A 
ENDBRANCH   4  12
TORSDOF 1
ENDMDL
MODEL 5
REMARK VINA RESULT:      -2.7      0.819      1.162
REMARK  1 active torsions:
REMARK  status: ('A' for Active; 'I' for Inactive)
REMARK    1  A    between atoms: C_7  and  C_4 
ROOT
ATOM      1  N   UNL d   1      33.028  22.057 -22.270  0.00  0.00    -0.211 NA
ATOM      2  C   UNL d   1      33.000  22.803 -21.918  0.00  0.00     0.140 A 
ATOM      3  C   UNL d   1      33.070  22.872 -21.099  0.00  0.00     0.051 A 
ATOM      4  C   UNL d   1      33.127  21.378 -21.801  0.00  0.00     0.183 A 
ATOM      5  C   UNL d   1      33.169  22.194 -20.630  0.00  0.00     0.104 A 
ATOM      6  O   UNL d   1      33.197  21.449 -20.982  0.00  0.00    -0.289 OA
ATOM      7  S   UNL d   1      32.902  23.479 -22.381  0.00  0.00    -0.057 SA
ATOM      8  C   UNL d   1      33.043  23.614 -20.744  0.00  0.00     0.004 A 
ATOM      9  C   UNL d   1      33.238  22.270 -19.824  0.00  0.00     0.025 A 
ATOM     10  C   UNL d   1      33.112  23.681 -19.938  0.00  0.00     0.000 A 
ATOM     11  C   UNL d   1      33.210  23.016 -19.472  0.00  0.00     0.002 A 
ENDROOT
BRANCH   4  12
ATOM     12  C   UNL d   1      33.155  20.633 -22.153  0.00  0.00     0.041 A 
ATOM     13  C   UNL d   1      33.198  20.571 -22.977  0.00  0.00     0.004 A 
ATOM     14  C   UNL d   1      33.227  19.832 -23.334  0.00  0.00     0.007 A 
ATOM     15  C   UNL d   1      33.212  19.140 -22.866  0.00  0.00     0.035 A 
ATOM     16  C   UNL d   1      33.168  19.205 -22.045  0.00  0.00     0.007 A 
ATOM     17 BR   UNL d   1      33.240  18.393 -23.222  0.00  0.00    -0.049 Br
ATOM     18  C   UNL d   1      33.140  19.952 -21.684  0.00  0.00     0.004 A 
ENDBRANCH   4  12
TORSDOF 1
ENDMDL
MODEL 6
REMARK VINA RESULT:      -2.5      3.319      5.539
REMARK  1 active torsions:
REMARK  status: ('A' for Active; 'I' for Inactive)
REMARK    1  A    between atoms: C_7  and  C_4 
ROOT
ATOM      1  N   UNL d   1      32.405  18.422 -23.984  0.00  0.00    -0.211 NA
ATOM      2  C   UNL d   1      32.293  17.687 -24.344  0.00  0.00     0.140 A 
ATOM      3  C   UNL d   1      32.572  17.003 -23.974  0.00  0.00     0.051 A 
ATOM      4  C   UNL d   1      32.797  18.473 -23.253  0.00  0.00     0.183 A 
ATOM      5  C   UNL d   1      32.964  17.055 -23.243  0.00  0.00     0.104 A 
ATOM      6  O   UNL d   1      33.075  17.790 -22.885  0.00  0.00    -0.289 OA
ATOM      7  S   UNL d   1      31.904  17.632 -25.070  0.00  0.00    -0.057 SA
ATOM      8  C   UNL d   1      32.462  16.269 -24.329  0.00  0.00     0.004 A 
ATOM      9  C   UNL d   1      33.235  16.379 -22.885  0.00  0.00     0.025 A 
ATOM     10  C   UNL d   1      32.737  15.598 -23.964  0.00  0.00     0.000 A 
ATOM     11  C   UNL d   1      33.123  15.644 -23.244  0.00  0.00     0.002 A 
ENDROOT
BRANCH   4  12
ATOM     12  C   UNL d   1      32.908  19.208 -22.895  0.00  0.00     0.041 A 
ATOM     13  C   UNL d   1      32.808  19.284 -22.078  0.00  0.00     0.004 A 
ATOM     14  C   UNL d   1      32.917  20.012 -21.715  0.00  0.00     0.007 A 
ATOM     15  C   UNL d   1      33.130  20.679 -22.171  0.00  0.00     0.035 A 
ATOM     16  C   UNL d   1      33.229  20.600 -22.986  0.00  0.00     0.007 A 
ATOM     17 BR   UNL d   1      33.241  21.416 -21.809  0.00  0.00    -0.049 Br
ATOM     18  C   UNL d   1      33.118  19.864 -23.353  0.00  0.00     0.004 A 
ENDBRANCH   4  12
TORSDOF 1
ENDMDL
MODEL 7
REMARK VINA RESULT:      -2.2      2.278      4.393
REMARK  1 active torsions:
REMARK  status: ('A' for Active; 'I' for Inactive)
REMARK    1  A    between atoms: C_7  and  C_4 
ROOT
ATOM      1  N   UNL d   1      33.185  19.799 -22.034  0.00  0.00    -0.211 NA
ATOM      2  C   UNL d   1      33.186  19.239 -22.640  0.00  0.00     0.140 A 
ATOM      3  C   UNL d   1      33.202  19.487 -23.427  0.00  0.00     0.051 A 
ATOM      4  C   UNL d   1      33.201  20.610 -22.215  0.00  0.00     0.183 A 
ATOM      5  C   UNL d   1      33.218  20.298 -23.608  0.00  0.00     0.104 A 
ATOM      6  O   UNL d   1      33.218  20.857 -23.002  0.00  0.00    -0.289 OA
ATOM      7  S   UNL d   1      33.170  18.433 -22.464  0.00  0.00    -0.057 SA
ATOM      8  C   UNL d   1      33.203  18.932 -24.034  0.00  0.00     0.004 A 
ATOM      9  C   UNL d   1      33.234  20.535 -24.385  0.00  0.00     0.025 A 
ATOM     10  C   UNL d   1      33.219  19.178 -24.808  0.00  0.00     0.000 A 
ATOM     11  C   UNL d   1      33.235  19.975 -24.991  0.00  0.00     0.002 A 
ENDROOT
BRANCH   4  12
ATOM     12  C   UNL d   1      33.201  21.169 -21.608  0.00  0.00     0.041 A 
ATOM     13  C   UNL d   1      33.168  21.974 -21.794  0.00  0.00     0.004 A 
ATOM     14  C   UNL d   1      33.167  22.535 -21.195  0.00  0.00     0.007 A 
ATOM     15  C   UNL d   1      33.200  22.295 -20.396  0.00  0.00     0.035 A 
ATOM     16  C   UNL d   1      33.232  21.491 -20.214  0.00  0.00     0.007 A 
ATOM     17 BR   UNL d   1      33.199  22.858 -19.788  0.00  0.00    -0.049 Br
ATOM     18  C   UNL d   1      33.233  20.924 -20.819  0.00  0.00     0.004 A 
ENDBRANCH   4  12
TORSDOF 1
ENDMDL
MODEL 8
REMARK VINA RESULT:      -1.8      5.649      6.883
REMARK  1 active torsions:
REMARK  status: ('A' for Active; 'I' for Inactive)
REMARK    1  A    between atoms: C_7  and  C_4 
ROOT
ATOM      1  N   UNL d   1      29.743  17.130 -24.773  0.00  0.00    -0.211 NA
ATOM      2  C   UNL d   1      29.035  16.758 -24.571  0.00  0.00     0.140 A 
ATOM      3  C   UNL d   1      28.985  16.321 -23.873  0.00  0.00     0.051 A 
ATOM      4  C   UNL d   1      30.405  17.065 -24.274  0.00  0.00     0.183 A 
ATOM      5  C   UNL d   1      29.646  16.256 -23.374  0.00  0.00     0.104 A 
ATOM      6  O   UNL d   1      30.354  16.628 -23.576  0.00  0.00    -0.289 OA
ATOM      7  S   UNL d   1      28.375  16.820 -25.065  0.00  0.00    -0.057 SA
ATOM      8  C   UNL d   1      28.280  15.948 -23.669  0.00  0.00     0.004 A 
ATOM      9  C   UNL d   1      29.590  15.825 -22.688  0.00  0.00     0.025 A 
ATOM     10  C   UNL d   1      28.233  15.519 -22.981  0.00  0.00     0.000 A 
ATOM     11  C   UNL d   1      28.882  15.453 -22.487  0.00  0.00     0.002 A 
ENDROOT
BRANCH   4  12
ATOM     12  C   UNL d   1      31.112  17.437 -24.476  0.00  0.00     0.041 A 
ATOM     13  C   UNL d   1      31.205  18.246 -24.333  0.00  0.00     0.004 A 
ATOM     14  C   UNL d   1      31.907  18.622 -24.532  0.00  0.00     0.007 A 
ATOM     15  C   UNL d   1      32.531  18.189 -24.879  0.00  0.00     0.035 A 
ATOM     16  C   UNL d   1      32.435  17.382 -25.019  0.00  0.00     0.007 A 
ATOM     17 BR   UNL d   1      33.241  18.565 -25.081  0.00  0.00    -0.049 Br
ATOM     18  C   UNL d   1      31.726  17.001 -24.819  0.00  0.00     0.004 A 
ENDBRANCH   4  12
TORSDOF 1
ENDMDL
MODEL 9
REMARK VINA RESULT:      -1.5      1.673      2.389
REMARK  1 active torsions:
REMARK  status: ('A' for Active; 'I' for Inactive)
REMARK    1  A    between atoms: C_7  and  C_4 
ROOT
ATOM      1  N   UNL d   1      32.857  20.648 -21.490  0.00  0.00    -0.211 NA
ATOM      2  C   UNL d   1      32.833  21.415 -21.186  0.00  0.00     0.140 A 
ATOM      3  C   UNL d   1      32.962  22.059 -21.686  0.00  0.00     0.051 A 
ATOM      4  C   UNL d   1      33.010  20.525 -22.297  0.00  0.00     0.183 A 
ATOM      5  C   UNL d   1      33.115  21.935 -22.493  0.00  0.00     0.104 A 
ATOM      6  O   UNL d   1      33.139  21.169 -22.796  0.00  0.00    -0.289 OA
ATOM      7  S   UNL d   1      32.680  21.542 -20.384  0.00  0.00    -0.057 SA
ATOM      8  C   UNL d   1      32.938  22.825 -21.386  0.00  0.00     0.004 A 
ATOM      9  C   UNL d   1      33.241  22.573 -22.979  0.00  0.00     0.025 A 
ATOM     10  C   UNL d   1      33.065  23.457 -21.880  0.00  0.00     0.000 A 
ATOM     11  C   UNL d   1      33.217  23.340 -22.675  0.00  0.00     0.002 A 
ENDROOT
BRANCH   4  12
ATOM     12  C   UNL d   1      33.034  19.758 -22.600  0.00  0.00     0.041 A 
ATOM     13  C   UNL d   1      32.873  19.629 -23.401  0.00  0.00     0.004 A 
ATOM     14  C   UNL d   1      32.895  18.869 -23.709  0.00  0.00     0.007 A 
ATOM     15  C   UNL d   1      33.081  18.222 -23.215  0.00  0.00     0.035 A 
ATOM     16  C   UNL d   1      33.241  18.354 -22.417  0.00  0.00     0.007 A 
ATOM     17 BR   UNL d   1      33.104  17.453 -23.521  0.00  0.00    -0.049 Br
ATOM     18  C   UNL d   1      33.219  19.122 -22.105  0.00  0.00     0.004 A 
ENDBRANCH   4  12
TORSDOF 1
ENDMDL
