MODEL 1
REMARK VINA RESULT:      24.6      0.000      0.000
REMARK  3 active torsions:
REMARK  status: ('A' for Active; 'I' for Inactive)
REMARK    1  A    between atoms: C_10  and  C_3 
REMARK    2  A    between atoms: O_13  and  C_10 
REMARK    3  A    between atoms: C_12  and  O_13 
ROOT
ATOM      1  C   UNL d   1      14.719  14.398  -1.077  0.00  0.00     0.002 A 
ATOM      2  C   UNL d   1      14.252  13.849  -1.477  0.00  0.00     0.025 A 
ATOM      3  C   UNL d   1      15.173  14.154  -0.418  0.00  0.00     0.000 A 
ATOM      4  C   UNL d   1      15.152  13.366  -0.171  0.00  0.00     0.002 A 
ATOM      5  C   UNL d   1      14.231  13.065  -1.233  0.00  0.00     0.100 A 
ATOM      6  C   UNL d   1      14.685  12.821  -0.575  0.00  0.00     0.025 A 
ATOM      7  C   UNL d   1      14.743  15.179  -1.317  0.00  0.00     0.000 A 
ATOM      8  C   UNL d   1      15.640  14.697  -0.015  0.00  0.00     0.000 A 
ATOM      9  C   UNL d   1      15.207  15.730  -0.920  0.00  0.00     0.000 A 
ATOM     10  C   UNL d   1      15.660  15.486  -0.261  0.00  0.00     0.000 A 
ENDROOT
BRANCH   5  11
ATOM     11  O   UNL d   1      13.763  12.512  -1.635  0.00  0.00    -0.304 OA
BRANCH  11  12
ATOM     12  C   UNL d   1      14.102  12.054  -2.239  0.00  0.00     0.142 C 
BRANCH  12  13
ATOM     13  C   UNL d   1      13.721  11.980  -2.967  0.00  0.00     0.115 A 
ATOM     14  N   UNL d   1      14.065  12.068  -3.713  0.00  0.00    -0.217 NA
ATOM     15  C   UNL d   1      13.479  11.946  -4.282  0.00  0.00     0.215 A 
ATOM     16  S   UNL d   1      12.769  11.782  -3.883  0.00  0.00    -0.045 SA
ATOM     17  N   UNL d   1      13.585  11.982  -5.098  0.00  0.00    -0.120 N 
ATOM     18  C   UNL d   1      12.915  11.802  -3.072  0.00  0.00     0.060 A 
ENDBRANCH  12  13
ENDBRANCH  11  12
ENDBRANCH   5  11
TORSDOF 3
ENDMDL
