MODEL 1
REMARK VINA RESULT:      57.6      0.000      0.000
REMARK  6 active torsions:
REMARK  status: ('A' for Active; 'I' for Inactive)
REMARK    1  A    between atoms: N_2  and  C_1 
REMARK       I    between atoms: C_4  and  N_2 
REMARK    2  A    between atoms: C_21  and  N_2 
REMARK    3  A    between atoms: C_6  and  C_4 
REMARK    4  A    between atoms: C_23  and  C_21 
REMARK    5  A    between atoms: C_25  and  C_23 
REMARK    6  A    between atoms: N_24  and  C_25 
ROOT
ATOM      1  N   UNL d   1      14.363  14.921  -2.433  0.00  0.00    -0.252 N 
ATOM      2  C   UNL d   1      14.598  15.683  -2.656  0.00  0.00     0.272 C 
ATOM      3  O   UNL d   1      14.605  15.902  -3.443  0.00  0.00    -0.266 OA
ENDROOT
BRANCH   1   4
ATOM      4  C   UNL d   1      14.132  14.378  -3.023  0.00  0.00     0.182 A 
ATOM      5  N   UNL d   1      13.616  13.740  -2.915  0.00  0.00    -0.222 NA
ATOM      6  C   UNL d   1      13.538  13.345  -3.640  0.00  0.00     0.092 A 
ATOM      7  C   UNL d   1      13.108  12.689  -3.855  0.00  0.00     0.046 A 
ATOM      8  C   UNL d   1      14.007  13.739  -4.190  0.00  0.00     0.052 A 
ATOM      9  C   UNL d   1      13.134  12.409  -4.632  0.00  0.00     0.121 A 
ATOM     10  O   UNL d   1      12.774  11.782  -5.006  0.00  0.00    -0.299 OA
ATOM     11  C   UNL d   1      13.601  12.803  -5.179  0.00  0.00     0.120 A 
ATOM     12  C   UNL d   1      13.017  11.783  -5.791  0.00  0.00     0.304 A 
ATOM     13  O   UNL d   1      13.526  12.410  -5.902  0.00  0.00    -0.300 OA
ATOM     14  C   UNL d   1      14.040  13.469  -4.964  0.00  0.00     0.034 A 
ATOM     15  S   UNL d   1      14.377  14.379  -3.816  0.00  0.00    -0.048 SA
ENDBRANCH   1   4
BRANCH   1  16
ATOM     16  C   UNL d   1      14.355  14.700  -1.637  0.00  0.00     0.086 C 
BRANCH  16  17
ATOM     17  C   UNL d   1      14.838  14.075  -1.378  0.00  0.00     0.038 C 
BRANCH  17  18
ATOM     18  C   UNL d   1      14.502  13.441  -0.969  0.00  0.00     0.082 C 
BRANCH  18  19
ATOM     19  N   UNL d   1      14.984  12.849  -0.658  0.00  0.00    -0.300 N 
ATOM     20  C   UNL d   1      15.612  13.049  -0.163  0.00  0.00     0.100 C 
ATOM     21  C   UNL d   1      14.838  12.058  -0.842  0.00  0.00     0.100 C 
ENDBRANCH  18  19
ENDBRANCH  17  18
ENDBRANCH  16  17
ENDBRANCH   1  16
BRANCH   2  22
ATOM     22  C   UNL d   1      14.826  16.219  -2.068  0.00  0.00     0.087 A 
ATOM     23  S   UNL d   1      14.969  16.050  -1.263  0.00  0.00    -0.071 SA
ATOM     24  C   UNL d   1      15.183  16.759  -0.891  0.00  0.00     0.087 A 
ATOM     25 CL   UNL d   1      15.378  16.858  -0.077  0.00  0.00    -0.075 Cl
ATOM     26  C   UNL d   1      15.171  17.354  -1.457  0.00  0.00     0.019 A 
ATOM     27  C   UNL d   1      14.953  17.027  -2.177  0.00  0.00     0.013 A 
ENDBRANCH   2  22
TORSDOF 6
ENDMDL
MODEL 2
REMARK VINA RESULT:      59.3      2.108      3.926
REMARK  6 active torsions:
REMARK  status: ('A' for Active; 'I' for Inactive)
REMARK    1  A    between atoms: N_2  and  C_1 
REMARK       I    between atoms: C_4  and  N_2 
REMARK    2  A    between atoms: C_21  and  N_2 
REMARK    3  A    between atoms: C_6  and  C_4 
REMARK    4  A    between atoms: C_23  and  C_21 
REMARK    5  A    between atoms: C_25  and  C_23 
REMARK    6  A    between atoms: N_24  and  C_25 
ROOT
ATOM      1  N   UNL d   1      14.395  14.029  -2.138  0.00  0.00    -0.252 N 
ATOM      2  C   UNL d   1      14.632  14.033  -1.345  0.00  0.00     0.272 C 
ATOM      3  O   UNL d   1      15.006  14.686  -1.027  0.00  0.00    -0.266 OA
ENDROOT
BRANCH   1   4
ATOM      4  C   UNL d   1      14.543  14.701  -2.611  0.00  0.00     0.182 A 
ATOM      5  N   UNL d   1      14.802  14.689  -3.397  0.00  0.00    -0.222 NA
ATOM      6  C   UNL d   1      14.879  15.473  -3.655  0.00  0.00     0.092 A 
ATOM      7  C   UNL d   1      15.110  15.788  -4.368  0.00  0.00     0.046 A 
ATOM      8  C   UNL d   1      14.667  15.964  -3.028  0.00  0.00     0.052 A 
ATOM      9  C   UNL d   1      15.137  16.606  -4.475  0.00  0.00     0.121 A 
ATOM     10  O   UNL d   1      15.340  17.075  -5.109  0.00  0.00    -0.299 OA
ATOM     11  C   UNL d   1      14.926  17.094  -3.851  0.00  0.00     0.120 A 
ATOM     12  C   UNL d   1      15.257  17.860  -4.880  0.00  0.00     0.304 A 
ATOM     13  O   UNL d   1      15.002  17.876  -4.106  0.00  0.00    -0.300 OA
ATOM     14  C   UNL d   1      14.690  16.779  -3.124  0.00  0.00     0.034 A 
ATOM     15  S   UNL d   1      14.459  15.493  -2.380  0.00  0.00    -0.048 SA
ENDBRANCH   1   4
BRANCH   1  16
ATOM     16  C   UNL d   1      14.016  13.369  -2.460  0.00  0.00     0.086 C 
BRANCH  16  17
ATOM     17  C   UNL d   1      13.642  13.428  -3.199  0.00  0.00     0.038 C 
BRANCH  17  18
ATOM     18  C   UNL d   1      13.149  12.818  -3.458  0.00  0.00     0.082 C 
BRANCH  18  19
ATOM     19  N   UNL d   1      13.096  12.643  -4.262  0.00  0.00    -0.300 N 
ATOM     20  C   UNL d   1      13.328  11.902  -4.536  0.00  0.00     0.100 C 
ATOM     21  C   UNL d   1      12.812  13.209  -4.790  0.00  0.00     0.100 C 
ENDBRANCH  18  19
ENDBRANCH  17  18
ENDBRANCH  16  17
ENDBRANCH   1  16
BRANCH   2  22
ATOM     22  C   UNL d   1      14.483  13.365  -0.879  0.00  0.00     0.087 A 
ATOM     23  S   UNL d   1      13.753  12.970  -0.788  0.00  0.00    -0.071 SA
ATOM     24  C   UNL d   1      13.874  12.335  -0.270  0.00  0.00     0.087 A 
ATOM     25 CL   UNL d   1      13.294  11.780  -0.014  0.00  0.00    -0.075 Cl
ATOM     26  C   UNL d   1      14.664  12.339  -0.047  0.00  0.00     0.019 A 
ATOM     27  C   UNL d   1      15.039  12.967  -0.417  0.00  0.00     0.013 A 
ENDBRANCH   2  22
TORSDOF 6
ENDMDL
