MODEL 1
REMARK VINA RESULT:      -6.6      0.000      0.000
REMARK  4 active torsions:
REMARK  status: ('A' for Active; 'I' for Inactive)
REMARK    1  A    between atoms: C_6  and  N_3 
REMARK    2  A    between atoms: C_13  and  N_4 
REMARK    3  A    between atoms: C_5  and  C_6 
REMARK       I    between atoms: N_10  and  C_5 
REMARK    4  A    between atoms: C_14  and  N_10 
ROOT
ATOM      1  C   UNL d   1     -47.422  12.345  23.226  0.00  0.00     0.322 A 
ATOM      2  C   UNL d   1     -46.598  12.388  23.198  0.00  0.00     0.322 A 
ATOM      3  N   UNL d   1     -47.877  12.871  22.792  0.00  0.00    -0.262 N 
ATOM      4  N   UNL d   1     -46.230  12.956  22.735  0.00  0.00    -0.267 N 
ATOM      5  C   UNL d   1     -47.509  13.442  22.326  0.00  0.00     0.102 A 
ATOM      6  O   UNL d   1     -47.790  11.770  23.694  0.00  0.00    -0.261 OA
ATOM      7  O   UNL d   1     -46.142  11.856  23.638  0.00  0.00    -0.261 OA
ATOM      8  C   UNL d   1     -46.686  13.485  22.298  0.00  0.00     0.102 A 
ENDROOT
BRANCH   3   9
ATOM      9  C   UNL d   1     -48.697  12.829  22.820  0.00  0.00     0.146 C 
BRANCH   9  10
ATOM     10  C   UNL d   1     -49.138  13.518  22.785  0.00  0.00     0.297 C 
ATOM     11  N   UNL d   1     -49.566  13.780  23.431  0.00  0.00    -0.207 NA
ATOM     12  O   UNL d   1     -49.148  13.952  22.082  0.00  0.00    -0.264 OA
BRANCH  11  13
ATOM     13  C   UNL d   1     -50.008  14.474  23.388  0.00  0.00     0.085 A 
ATOM     14  C   UNL d   1     -49.762  15.219  23.622  0.00  0.00     0.019 A 
ATOM     15  C   UNL d   1     -50.375  15.741  23.481  0.00  0.00     0.002 A 
ATOM     16  C   UNL d   1     -50.999  15.328  23.162  0.00  0.00     0.002 A 
ATOM     17  C   UNL d   1     -50.778  14.536  23.100  0.00  0.00     0.019 A 
ENDBRANCH  11  13
ENDBRANCH   9  10
ENDBRANCH   3   9
BRANCH   4  18
ATOM     18  C   UNL d   1     -45.406  12.998  22.707  0.00  0.00     0.083 C 
ATOM     19  C   UNL d   1     -45.032  13.333  22.049  0.00  0.00     0.021 C 
ENDBRANCH   4  18
TORSDOF 4
ENDMDL
MODEL 2
REMARK VINA RESULT:      -6.1      1.151      4.028
REMARK  4 active torsions:
REMARK  status: ('A' for Active; 'I' for Inactive)
REMARK    1  A    between atoms: C_6  and  N_3 
REMARK    2  A    between atoms: C_13  and  N_4 
REMARK    3  A    between atoms: C_5  and  C_6 
REMARK       I    between atoms: N_10  and  C_5 
REMARK    4  A    between atoms: C_14  and  N_10 
ROOT
ATOM      1  C   UNL d   1     -49.617  12.251  23.235  0.00  0.00     0.322 A 
ATOM      2  C   UNL d   1     -50.333  12.657  23.174  0.00  0.00     0.322 A 
ATOM      3  N   UNL d   1     -48.912  12.666  23.292  0.00  0.00    -0.262 N 
ATOM      4  N   UNL d   1     -50.344  13.477  23.169  0.00  0.00    -0.267 N 
ATOM      5  C   UNL d   1     -48.921  13.490  23.288  0.00  0.00     0.102 A 
ATOM      6  O   UNL d   1     -49.610  11.424  23.240  0.00  0.00    -0.261 OA
ATOM      7  O   UNL d   1     -51.043  12.235  23.116  0.00  0.00    -0.261 OA
ATOM      8  C   UNL d   1     -49.637  13.895  23.226  0.00  0.00     0.102 A 
ENDROOT
BRANCH   3   9
ATOM      9  C   UNL d   1     -48.199  12.263  23.354  0.00  0.00     0.146 C 
BRANCH   9  10
ATOM     10  C   UNL d   1     -47.549  12.525  22.930  0.00  0.00     0.297 C 
ATOM     11  N   UNL d   1     -46.827  12.646  23.294  0.00  0.00    -0.207 NA
ATOM     12  O   UNL d   1     -47.630  12.667  22.120  0.00  0.00    -0.264 OA
BRANCH  11  13
ATOM     13  C   UNL d   1     -46.178  12.910  22.861  0.00  0.00     0.085 A 
ATOM     14  C   UNL d   1     -45.549  12.452  22.605  0.00  0.00     0.019 A 
ATOM     15  C   UNL d   1     -45.034  12.940  22.198  0.00  0.00     0.002 A 
ATOM     16  C   UNL d   1     -45.336  13.694  22.199  0.00  0.00     0.002 A 
ATOM     17  C   UNL d   1     -46.050  13.685  22.611  0.00  0.00     0.019 A 
ENDBRANCH  11  13
ENDBRANCH   9  10
ENDBRANCH   3   9
BRANCH   4  18
ATOM     18  C   UNL d   1     -51.060  13.882  23.108  0.00  0.00     0.083 C 
ATOM     19  C   UNL d   1     -51.063  14.695  22.953  0.00  0.00     0.021 C 
ENDBRANCH   4  18
TORSDOF 4
ENDMDL
MODEL 3
REMARK VINA RESULT:      -5.7      1.244      4.288
REMARK  4 active torsions:
REMARK  status: ('A' for Active; 'I' for Inactive)
REMARK    1  A    between atoms: C_6  and  N_3 
REMARK    2  A    between atoms: C_13  and  N_4 
REMARK    3  A    between atoms: C_5  and  C_6 
REMARK       I    between atoms: N_10  and  C_5 
REMARK    4  A    between atoms: C_14  and  N_10 
ROOT
ATOM      1  C   UNL d   1     -49.087  14.756  22.802  0.00  0.00     0.322 A 
ATOM      2  C   UNL d   1     -49.879  14.531  22.861  0.00  0.00     0.322 A 
ATOM      3  N   UNL d   1     -48.492  14.202  22.908  0.00  0.00    -0.262 N 
ATOM      4  N   UNL d   1     -50.076  13.752  23.027  0.00  0.00    -0.267 N 
ATOM      5  C   UNL d   1     -48.687  13.419  23.074  0.00  0.00     0.102 A 
ATOM      6  O   UNL d   1     -48.893  15.543  22.634  0.00  0.00    -0.261 OA
ATOM      7  O   UNL d   1     -50.477  15.093  22.754  0.00  0.00    -0.261 OA
ATOM      8  C   UNL d   1     -49.479  13.194  23.134  0.00  0.00     0.102 A 
ENDROOT
BRANCH   3   9
ATOM      9  C   UNL d   1     -47.704  14.426  22.848  0.00  0.00     0.146 C 
BRANCH   9  10
ATOM     10  C   UNL d   1     -47.144  13.874  22.616  0.00  0.00     0.297 C 
ATOM     11  N   UNL d   1     -46.389  13.880  22.931  0.00  0.00    -0.207 NA
ATOM     12  O   UNL d   1     -47.351  13.306  22.054  0.00  0.00    -0.264 OA
BRANCH  11  13
ATOM     13  C   UNL d   1     -45.831  13.322  22.692  0.00  0.00     0.085 A 
ATOM     14  C   UNL d   1     -45.207  13.451  22.179  0.00  0.00     0.019 A 
ATOM     15  C   UNL d   1     -44.797  12.748  22.100  0.00  0.00     0.002 A 
ATOM     16  C   UNL d   1     -45.161  12.184  22.559  0.00  0.00     0.002 A 
ATOM     17  C   UNL d   1     -45.808  12.534  22.933  0.00  0.00     0.019 A 
ENDBRANCH  11  13
ENDBRANCH   9  10
ENDBRANCH   3   9
BRANCH   4  18
ATOM     18  C   UNL d   1     -50.867  13.527  23.087  0.00  0.00     0.083 C 
ATOM     19  C   UNL d   1     -51.064  12.728  23.168  0.00  0.00     0.021 C 
ENDBRANCH   4  18
TORSDOF 4
ENDMDL
MODEL 4
REMARK VINA RESULT:      -5.3      1.331      1.882
REMARK  4 active torsions:
REMARK  status: ('A' for Active; 'I' for Inactive)
REMARK    1  A    between atoms: C_6  and  N_3 
REMARK    2  A    between atoms: C_13  and  N_4 
REMARK    3  A    between atoms: C_5  and  C_6 
REMARK       I    between atoms: N_10  and  C_5 
REMARK    4  A    between atoms: C_14  and  N_10 
ROOT
ATOM      1  C   UNL d   1     -46.547  13.488  22.813  0.00  0.00     0.322 A 
ATOM      2  C   UNL d   1     -46.026  12.858  22.923  0.00  0.00     0.322 A 
ATOM      3  N   UNL d   1     -47.328  13.426  23.059  0.00  0.00    -0.262 N 
ATOM      4  N   UNL d   1     -46.285  12.165  23.279  0.00  0.00    -0.267 N 
ATOM      5  C   UNL d   1     -47.589  12.731  23.416  0.00  0.00     0.102 A 
ATOM      6  O   UNL d   1     -46.283  14.184  22.454  0.00  0.00    -0.261 OA
ATOM      7  O   UNL d   1     -45.240  12.924  22.675  0.00  0.00    -0.261 OA
ATOM      8  C   UNL d   1     -47.068  12.101  23.526  0.00  0.00     0.102 A 
ENDROOT
BRANCH   3   9
ATOM      9  C   UNL d   1     -47.846  14.053  22.949  0.00  0.00     0.146 C 
BRANCH   9  10
ATOM     10  C   UNL d   1     -48.632  13.901  22.773  0.00  0.00     0.297 C 
ATOM     11  N   UNL d   1     -48.953  14.117  22.053  0.00  0.00    -0.207 NA
ATOM     12  O   UNL d   1     -49.103  13.523  23.337  0.00  0.00    -0.264 OA
BRANCH  11  13
ATOM     13  C   UNL d   1     -49.744  13.961  21.883  0.00  0.00     0.085 A 
ATOM     14  C   UNL d   1     -50.035  13.300  21.497  0.00  0.00     0.019 A 
ATOM     15  C   UNL d   1     -50.848  13.375  21.449  0.00  0.00     0.002 A 
ATOM     16  C   UNL d   1     -51.064  14.076  21.799  0.00  0.00     0.002 A 
ATOM     17  C   UNL d   1     -50.381  14.449  22.073  0.00  0.00     0.019 A 
ENDBRANCH  11  13
ENDBRANCH   9  10
ENDBRANCH   3   9
BRANCH   4  18
ATOM     18  C   UNL d   1     -45.764  11.535  23.389  0.00  0.00     0.083 C 
ATOM     19  C   UNL d   1     -46.041  10.819  23.698  0.00  0.00     0.021 C 
ENDBRANCH   4  18
TORSDOF 4
ENDMDL
MODEL 5
REMARK VINA RESULT:      -5.2      8.931      9.874
REMARK  4 active torsions:
REMARK  status: ('A' for Active; 'I' for Inactive)
REMARK    1  A    between atoms: C_6  and  N_3 
REMARK    2  A    between atoms: C_13  and  N_4 
REMARK    3  A    between atoms: C_5  and  C_6 
REMARK       I    between atoms: N_10  and  C_5 
REMARK    4  A    between atoms: C_14  and  N_10 
ROOT
ATOM      1  C   UNL d   1     -40.397  14.477  17.994  0.00  0.00     0.322 A 
ATOM      2  C   UNL d   1     -40.335  14.914  17.297  0.00  0.00     0.322 A 
ATOM      3  N   UNL d   1     -39.771  14.451  18.523  0.00  0.00    -0.262 N 
ATOM      4  N   UNL d   1     -39.645  15.325  17.127  0.00  0.00    -0.267 N 
ATOM      5  C   UNL d   1     -39.077  14.863  18.354  0.00  0.00     0.102 A 
ATOM      6  O   UNL d   1     -41.095  14.064  18.161  0.00  0.00    -0.261 OA
ATOM      7  O   UNL d   1     -40.969  14.938  16.766  0.00  0.00    -0.261 OA
ATOM      8  C   UNL d   1     -39.014  15.299  17.657  0.00  0.00     0.102 A 
ENDROOT
BRANCH   3   9
ATOM      9  C   UNL d   1     -39.833  14.017  19.217  0.00  0.00     0.146 C 
BRANCH   9  10
ATOM     10  C   UNL d   1     -39.525  14.321  19.913  0.00  0.00     0.297 C 
ATOM     11  N   UNL d   1     -40.000  14.442  20.567  0.00  0.00    -0.207 NA
ATOM     12  O   UNL d   1     -38.721  14.506  19.948  0.00  0.00    -0.264 OA
BRANCH  11  13
ATOM     13  C   UNL d   1     -39.683  14.748  21.264  0.00  0.00     0.085 A 
ATOM     14  C   UNL d   1     -39.259  14.331  21.827  0.00  0.00     0.019 A 
ATOM     15  C   UNL d   1     -39.054  14.852  22.423  0.00  0.00     0.002 A 
ATOM     16  C   UNL d   1     -39.346  15.588  22.236  0.00  0.00     0.002 A 
ATOM     17  C   UNL d   1     -39.741  15.532  21.513  0.00  0.00     0.019 A 
ENDBRANCH  11  13
ENDBRANCH   9  10
ENDBRANCH   3   9
BRANCH   4  18
ATOM     18  C   UNL d   1     -39.582  15.761  16.430  0.00  0.00     0.083 C 
ATOM     19  C   UNL d   1     -38.837  15.922  16.109  0.00  0.00     0.021 C 
ENDBRANCH   4  18
TORSDOF 4
ENDMDL
MODEL 6
REMARK VINA RESULT:      -4.8      8.594     10.302
REMARK  4 active torsions:
REMARK  status: ('A' for Active; 'I' for Inactive)
REMARK    1  A    between atoms: C_6  and  N_3 
REMARK    2  A    between atoms: C_13  and  N_4 
REMARK    3  A    between atoms: C_5  and  C_6 
REMARK       I    between atoms: N_10  and  C_5 
REMARK    4  A    between atoms: C_14  and  N_10 
ROOT
ATOM      1  C   UNL d   1     -40.550  15.880  19.808  0.00  0.00     0.322 A 
ATOM      2  C   UNL d   1     -40.523  15.879  20.633  0.00  0.00     0.322 A 
ATOM      3  N   UNL d   1     -39.855  15.838  19.373  0.00  0.00    -0.262 N 
ATOM      4  N   UNL d   1     -39.803  15.837  21.023  0.00  0.00    -0.267 N 
ATOM      5  C   UNL d   1     -39.131  15.796  19.763  0.00  0.00     0.102 A 
ATOM      6  O   UNL d   1     -41.278  15.922  19.418  0.00  0.00    -0.261 OA
ATOM      7  O   UNL d   1     -41.225  15.922  21.069  0.00  0.00    -0.261 OA
ATOM      8  C   UNL d   1     -39.104  15.795  20.588  0.00  0.00     0.102 A 
ENDROOT
BRANCH   3   9
ATOM      9  C   UNL d   1     -39.882  15.838  18.552  0.00  0.00     0.146 C 
BRANCH   9  10
ATOM     10  C   UNL d   1     -39.377  15.348  18.132  0.00  0.00     0.297 C 
ATOM     11  N   UNL d   1     -39.661  14.842  17.556  0.00  0.00    -0.207 NA
ATOM     12  O   UNL d   1     -38.568  15.371  18.297  0.00  0.00    -0.264 OA
BRANCH  11  13
ATOM     13  C   UNL d   1     -39.147  14.352  17.138  0.00  0.00     0.085 A 
ATOM     14  C   UNL d   1     -38.963  13.575  17.320  0.00  0.00     0.019 A 
ATOM     15  C   UNL d   1     -38.433  13.305  16.759  0.00  0.00     0.002 A 
ATOM     16  C   UNL d   1     -38.287  13.905  16.230  0.00  0.00     0.002 A 
ATOM     17  C   UNL d   1     -38.729  14.563  16.459  0.00  0.00     0.019 A 
ENDBRANCH  11  13
ENDBRANCH   9  10
ENDBRANCH   3   9
BRANCH   4  18
ATOM     18  C   UNL d   1     -39.776  15.837  21.848  0.00  0.00     0.083 C 
ATOM     19  C   UNL d   1     -39.108  15.547  22.240  0.00  0.00     0.021 C 
ENDBRANCH   4  18
TORSDOF 4
ENDMDL
