MODEL 1
REMARK VINA RESULT:      57.1      0.000      0.000
REMARK  6 active torsions:
REMARK  status: ('A' for Active; 'I' for Inactive)
REMARK    1  A    between atoms: C_9  and  C_3 
REMARK    2  A    between atoms: C_4  and  C_18 
REMARK       I    between atoms: N_7  and  C_4 
REMARK    3  A    between atoms: S_11  and  C_5 
REMARK       I    between atoms: C_6  and  N_8 
REMARK    4  A    between atoms: C_12  and  N_7 
REMARK    5  A    between atoms: N_8  and  C_13 
REMARK    6  A    between atoms: C_18  and  S_11 
ROOT
ATOM      1  C   UNL d   1      13.701  16.644  -5.515  0.00  0.00     0.099 C 
ENDROOT
BRANCH   1   2
ATOM      2  C   UNL d   1      13.614  17.421  -5.771  0.00  0.00     0.286 C 
ATOM      3  N   UNL d   1      14.176  17.989  -5.564  0.00  0.00    -0.207 NA
ATOM      4  O   UNL d   1      12.966  17.634  -6.235  0.00  0.00    -0.265 OA
BRANCH   3   5
ATOM      5  C   UNL d   1      14.089  18.770  -5.822  0.00  0.00     0.086 A 
ATOM      6  C   UNL d   1      14.722  19.289  -5.760  0.00  0.00     0.038 A 
ATOM      7  C   UNL d   1      14.636  20.070  -6.017  0.00  0.00     0.086 A 
ATOM      8  C   UNL d   1      13.914  20.319  -6.333  0.00  0.00     0.019 A 
ATOM      9  C   UNL d   1      13.286  19.785  -6.388  0.00  0.00     0.003 A 
ATOM     10  C   UNL d   1      13.372  19.016  -6.135  0.00  0.00     0.019 A 
BRANCH   7  11
ATOM     11  N   UNL d   1      15.268  20.597  -5.959  0.00  0.00    -0.208 NA
ATOM     12  C   UNL d   1      15.156  21.343  -5.634  0.00  0.00     0.279 C 
ATOM     13  O   UNL d   1      14.399  21.566  -5.363  0.00  0.00    -0.265 OA
ATOM     14  C   UNL d   1      15.780  21.873  -5.573  0.00  0.00     0.068 C 
ENDBRANCH   7  11
ENDBRANCH   3   5
ENDBRANCH   1   2
BRANCH   1  15
ATOM     15  S   UNL d   1      13.051  16.142  -5.520  0.00  0.00    -0.061 SA
BRANCH  15  16
ATOM     16  C   UNL d   1      13.084  15.414  -5.133  0.00  0.00     0.133 A 
ATOM     17  N   UNL d   1      13.319  14.739  -5.532  0.00  0.00    -0.141 NA
ATOM     18  N   UNL d   1      13.352  14.012  -5.144  0.00  0.00    -0.148 NA
ATOM     19  C   UNL d   1      13.145  13.958  -4.343  0.00  0.00     0.104 A 
ATOM     20  C   UNL d   1      12.906  14.638  -3.937  0.00  0.00     0.023 A 
ATOM     21  C   UNL d   1      12.875  15.362  -4.327  0.00  0.00     0.029 A 
BRANCH  19  22
ATOM     22  C   UNL d   1      13.177  13.231  -3.956  0.00  0.00     0.039 A 
ATOM     23  C   UNL d   1      13.545  13.176  -3.232  0.00  0.00     0.101 A 
ATOM     24  N   UNL d   1      13.580  12.456  -2.843  0.00  0.00    -0.242 NA
ATOM     25  C   UNL d   1      13.237  11.782  -3.191  0.00  0.00     0.099 A 
ATOM     26  C   UNL d   1      12.868  11.842  -3.919  0.00  0.00     0.021 A 
ATOM     27  C   UNL d   1      12.831  12.566  -4.314  0.00  0.00     0.005 A 
ENDBRANCH  19  22
ENDBRANCH  15  16
ENDBRANCH   1  15
TORSDOF 6
ENDMDL
