MODEL 1
REMARK VINA RESULT:      69.5      0.000      0.000
REMARK  6 active torsions:
REMARK  status: ('A' for Active; 'I' for Inactive)
REMARK    1  A    between atoms: C_5  and  C_1 
REMARK    2  A    between atoms: O_8  and  C_5 
REMARK    3  A    between atoms: C_9  and  O_8 
REMARK    4  A    between atoms: C_14  and  C_10 
REMARK    5  A    between atoms: O_20  and  C_11 
REMARK    6  A    between atoms: O_21  and  C_16 
ROOT
ATOM      1  C   UNL d   1      60.382  49.179  50.620  0.00  0.00     0.305 C 
ATOM      2  O   UNL d   1      60.678  49.614  51.258  0.00  0.00    -0.259 OA
ENDROOT
BRANCH   1   3
ATOM      3  C   UNL d   1      60.695  48.427  50.452  0.00  0.00     0.127 A 
ATOM      4  C   UNL d   1      61.202  48.334  49.795  0.00  0.00     0.305 A 
ATOM      5  O   UNL d   1      61.515  47.589  49.626  0.00  0.00    -0.271 OA
ATOM      6  O   UNL d   1      61.388  48.979  49.323  0.00  0.00    -0.259 OA
ATOM      7  C   UNL d   1      61.324  46.945  50.104  0.00  0.00     0.125 A 
ATOM      8  C   UNL d   1      60.822  47.037  50.755  0.00  0.00     0.025 A 
ATOM      9  C   UNL d   1      61.637  46.201  49.935  0.00  0.00     0.117 A 
ATOM     10  C   UNL d   1      60.504  47.790  50.929  0.00  0.00     0.013 A 
ATOM     11  C   UNL d   1      60.634  46.392  51.230  0.00  0.00     0.002 A 
ATOM     12  C   UNL d   1      60.946  45.656  51.058  0.00  0.00     0.002 A 
ATOM     13  C   UNL d   1      61.449  45.556  50.410  0.00  0.00     0.026 A 
BRANCH   9  14
ATOM     14  O   UNL d   1      62.135  46.105  49.291  0.00  0.00    -0.326 OA
ATOM     15  C   UNL d   1      62.547  45.394  49.184  0.00  0.00     0.181 C 
ENDBRANCH   9  14
ENDBRANCH   1   3
BRANCH   1  16
ATOM     16  O   UNL d   1      59.778  49.491  50.152  0.00  0.00    -0.271 OA
BRANCH  16  17
ATOM     17  C   UNL d   1      59.010  49.535  50.448  0.00  0.00     0.126 A 
ATOM     18  C   UNL d   1      58.375  49.632  49.931  0.00  0.00     0.117 A 
ATOM     19  C   UNL d   1      57.607  49.677  50.219  0.00  0.00     0.029 A 
ATOM     20  C   UNL d   1      57.473  49.624  51.042  0.00  0.00     0.041 A 
ATOM     21  C   UNL d   1      58.108  49.527  51.559  0.00  0.00     0.005 A 
ATOM     22  C   UNL d   1      58.876  49.483  51.263  0.00  0.00     0.027 A 
BRANCH  18  23
ATOM     23  O   UNL d   1      58.516  49.684  49.118  0.00  0.00    -0.326 OA
ATOM     24  C   UNL d   1      59.292  49.703  48.831  0.00  0.00     0.181 C 
ENDBRANCH  18  23
BRANCH  20  25
ATOM     25  C   UNL d   1      56.692  49.670  51.336  0.00  0.00     0.196 C 
ATOM     26  O   UNL d   1      56.563  49.676  52.153  0.00  0.00    -0.287 OA
ATOM     27  C   UNL d   1      56.053  49.708  50.809  0.00  0.00     0.045 C 
ENDBRANCH  20  25
ENDBRANCH  16  17
ENDBRANCH   1  16
TORSDOF 6
ENDMDL
