MODEL 1
REMARK VINA RESULT:      -3.6      0.000      0.000
REMARK  5 active torsions:
REMARK  status: ('A' for Active; 'I' for Inactive)
REMARK    1  A    between atoms: N_2  and  C_1 
REMARK       I    between atoms: C_7  and  N_2 
REMARK    2  A    between atoms: C_17  and  N_3 
REMARK    3  A    between atoms: C_14  and  C_7 
REMARK       I    between atoms: C_10  and  N_11 
REMARK    4  A    between atoms: N_11  and  C_12 
REMARK    5  A    between atoms: C_16  and  C_17 
ROOT
ATOM      1  C   UNL d   1     -41.334-122.909 -50.751  0.00  0.00     0.182 A 
ATOM      2  N   UNL d   1     -41.384-122.248 -51.236  0.00  0.00    -0.285 N 
ATOM      3  S   UNL d   1     -41.247-123.572 -51.233  0.00  0.00    -0.048 SA
ATOM      4  C   UNL d   1     -41.244-123.318 -52.022  0.00  0.00     0.050 A 
ATOM      5  C   UNL d   1     -41.330-122.496 -52.024  0.00  0.00     0.072 A 
ATOM      6  C   UNL d   1     -41.176-123.728 -52.734  0.00  0.00     0.027 A 
ATOM      7  C   UNL d   1     -41.346-122.084 -52.738  0.00  0.00     0.020 A 
ATOM      8  C   UNL d   1     -41.192-123.316 -53.448  0.00  0.00     0.085 A 
ATOM      9  C   UNL d   1     -41.277-122.495 -53.450  0.00  0.00     0.021 A 
ENDROOT
BRANCH   1  10
ATOM     10  N   UNL d   1     -41.365-122.901 -49.926  0.00  0.00    -0.184 NA
ATOM     11  C   UNL d   1     -41.946-123.338 -49.538  0.00  0.00     0.281 C 
ATOM     12  O   UNL d   1     -42.489-123.778 -49.975  0.00  0.00    -0.265 OA
BRANCH  11  13
ATOM     13  C   UNL d   1     -41.984-123.336 -48.713  0.00  0.00     0.058 A 
ATOM     14  C   UNL d   1     -42.721-123.306 -48.320  0.00  0.00     0.005 A 
ATOM     15  C   UNL d   1     -42.759-123.303 -47.495  0.00  0.00     0.000 A 
ATOM     16  C   UNL d   1     -42.061-123.331 -47.049  0.00  0.00     0.000 A 
ATOM     17  C   UNL d   1     -41.334-123.361 -47.437  0.00  0.00     0.000 A 
ATOM     18  C   UNL d   1     -41.296-123.363 -48.262  0.00  0.00     0.005 A 
ENDBRANCH  11  13
ENDBRANCH   1  10
BRANCH   2  19
ATOM     19  C   UNL d   1     -41.475-121.464 -50.989  0.00  0.00     0.082 C 
BRANCH  19  20
ATOM     20  C   UNL d   1     -41.123-120.849 -51.409  0.00  0.00     0.019 C 
ATOM     21  C   UNL d   1     -41.140-120.082 -51.111  0.00  0.00     0.002 C 
ENDBRANCH  19  20
ENDBRANCH   2  19
BRANCH   8  22
ATOM     22  N   UNL d   1     -41.123-123.730 -54.173  0.00  0.00    -0.208 NA
ATOM     23  C   UNL d   1     -41.414-123.397 -54.860  0.00  0.00     0.279 C 
ATOM     24  O   UNL d   1     -41.344-123.807 -55.571  0.00  0.00    -0.265 OA
ATOM     25  C   UNL d   1     -41.778-122.656 -54.851  0.00  0.00     0.068 C 
ENDBRANCH   8  22
TORSDOF 5
ENDMDL
MODEL 2
REMARK VINA RESULT:      -2.9      1.264      4.889
REMARK  5 active torsions:
REMARK  status: ('A' for Active; 'I' for Inactive)
REMARK    1  A    between atoms: N_2  and  C_1 
REMARK       I    between atoms: C_7  and  N_2 
REMARK    2  A    between atoms: C_17  and  N_3 
REMARK    3  A    between atoms: C_14  and  C_7 
REMARK       I    between atoms: C_10  and  N_11 
REMARK    4  A    between atoms: N_11  and  C_12 
REMARK    5  A    between atoms: C_16  and  C_17 
ROOT
ATOM      1  C   UNL d   1     -41.836-122.278 -51.908  0.00  0.00     0.182 A 
ATOM      2  N   UNL d   1     -41.524-121.806 -51.311  0.00  0.00    -0.285 N 
ATOM      3  S   UNL d   1     -42.187-122.935 -51.554  0.00  0.00    -0.048 SA
ATOM      4  C   UNL d   1     -42.092-122.868 -50.734  0.00  0.00     0.050 A 
ATOM      5  C   UNL d   1     -41.681-122.167 -50.583  0.00  0.00     0.072 A 
ATOM      6  C   UNL d   1     -42.325-123.352 -50.109  0.00  0.00     0.027 A 
ATOM      7  C   UNL d   1     -41.503-121.950 -49.808  0.00  0.00     0.020 A 
ATOM      8  C   UNL d   1     -42.148-123.136 -49.333  0.00  0.00     0.085 A 
ATOM      9  C   UNL d   1     -41.737-122.435 -49.182  0.00  0.00     0.021 A 
ENDROOT
BRANCH   1  10
ATOM     10  N   UNL d   1     -41.799-122.116 -52.717  0.00  0.00    -0.184 NA
ATOM     11  C   UNL d   1     -41.931-122.723 -53.259  0.00  0.00     0.281 C 
ATOM     12  O   UNL d   1     -42.099-123.484 -52.990  0.00  0.00    -0.265 OA
BRANCH  11  13
ATOM     13  C   UNL d   1     -41.896-122.569 -54.069  0.00  0.00     0.058 A 
ATOM     14  C   UNL d   1     -42.547-122.230 -54.467  0.00  0.00     0.005 A 
ATOM     15  C   UNL d   1     -42.512-122.076 -55.278  0.00  0.00     0.000 A 
ATOM     16  C   UNL d   1     -41.825-122.258 -55.704  0.00  0.00     0.000 A 
ATOM     17  C   UNL d   1     -41.182-122.593 -55.310  0.00  0.00     0.000 A 
ATOM     18  C   UNL d   1     -41.217-122.747 -54.500  0.00  0.00     0.005 A 
ENDBRANCH  11  13
ENDBRANCH   1  10
BRANCH   2  19
ATOM     19  C   UNL d   1     -41.123-121.091 -51.413  0.00  0.00     0.082 C 
BRANCH  19  20
ATOM     20  C   UNL d   1     -41.537-120.380 -51.458  0.00  0.00     0.019 C 
ATOM     21  C   UNL d   1     -41.131-119.669 -51.542  0.00  0.00     0.002 C 
ENDBRANCH  19  20
ENDBRANCH   2  19
BRANCH   8  22
ATOM     22  N   UNL d   1     -42.384-123.626 -48.697  0.00  0.00    -0.208 NA
ATOM     23  C   UNL d   1     -42.888-123.332 -48.124  0.00  0.00     0.279 C 
ATOM     24  O   UNL d   1     -43.119-123.817 -47.499  0.00  0.00    -0.265 OA
ATOM     25  C   UNL d   1     -43.170-122.557 -48.164  0.00  0.00     0.068 C 
ENDBRANCH   8  22
TORSDOF 5
ENDMDL
MODEL 3
REMARK VINA RESULT:      -1.5      0.953      1.335
REMARK  5 active torsions:
REMARK  status: ('A' for Active; 'I' for Inactive)
REMARK    1  A    between atoms: N_2  and  C_1 
REMARK       I    between atoms: C_7  and  N_2 
REMARK    2  A    between atoms: C_17  and  N_3 
REMARK    3  A    between atoms: C_14  and  C_7 
REMARK       I    between atoms: C_10  and  N_11 
REMARK    4  A    between atoms: N_11  and  C_12 
REMARK    5  A    between atoms: C_16  and  C_17 
ROOT
ATOM      1  C   UNL d   1     -41.581-122.635 -51.681  0.00  0.00     0.182 A 
ATOM      2  N   UNL d   1     -41.399-121.927 -52.056  0.00  0.00    -0.285 N 
ATOM      3  S   UNL d   1     -41.832-123.170 -52.255  0.00  0.00    -0.048 SA
ATOM      4  C   UNL d   1     -41.805-122.790 -52.991  0.00  0.00     0.050 A 
ATOM      5  C   UNL d   1     -41.536-122.018 -52.868  0.00  0.00     0.072 A 
ATOM      6  C   UNL d   1     -41.990-123.045 -53.752  0.00  0.00     0.027 A 
ATOM      7  C   UNL d   1     -41.451-121.502 -53.505  0.00  0.00     0.020 A 
ATOM      8  C   UNL d   1     -41.905-122.530 -54.391  0.00  0.00     0.085 A 
ATOM      9  C   UNL d   1     -41.636-121.759 -54.267  0.00  0.00     0.021 A 
ENDROOT
BRANCH   1  10
ATOM     10  N   UNL d   1     -41.520-122.777 -50.869  0.00  0.00    -0.184 NA
ATOM     11  C   UNL d   1     -41.979-123.370 -50.526  0.00  0.00     0.281 C 
ATOM     12  O   UNL d   1     -42.493-123.814 -50.993  0.00  0.00    -0.265 OA
BRANCH  11  13
ATOM     13  C   UNL d   1     -41.924-123.518 -49.715  0.00  0.00     0.058 A 
ATOM     14  C   UNL d   1     -41.184-123.662 -49.358  0.00  0.00     0.005 A 
ATOM     15  C   UNL d   1     -41.129-123.811 -48.547  0.00  0.00     0.000 A 
ATOM     16  C   UNL d   1     -41.814-123.817 -48.081  0.00  0.00     0.000 A 
ATOM     17  C   UNL d   1     -42.545-123.675 -48.434  0.00  0.00     0.000 A 
ATOM     18  C   UNL d   1     -42.600-123.526 -49.245  0.00  0.00     0.005 A 
ENDBRANCH  11  13
ENDBRANCH   1  10
BRANCH   2  19
ATOM     19  C   UNL d   1     -41.124-121.237 -51.693  0.00  0.00     0.082 C 
BRANCH  19  20
ATOM     20  C   UNL d   1     -41.410-120.500 -51.926  0.00  0.00     0.019 C 
ATOM     21  C   UNL d   1     -41.144-119.817 -51.551  0.00  0.00     0.002 C 
ENDBRANCH  19  20
ENDBRANCH   2  19
BRANCH   8  22
ATOM     22  N   UNL d   1     -42.092-122.788 -55.165  0.00  0.00    -0.208 NA
ATOM     23  C   UNL d   1     -42.579-122.332 -55.638  0.00  0.00     0.279 C 
ATOM     24  O   UNL d   1     -42.761-122.588 -56.400  0.00  0.00    -0.265 OA
ATOM     25  C   UNL d   1     -42.891-121.619 -55.362  0.00  0.00     0.068 C 
ENDBRANCH   8  22
TORSDOF 5
ENDMDL
