MODEL 1
REMARK VINA RESULT:     -10.3      0.000      0.000
REMARK  6 active torsions:
REMARK  status: ('A' for Active; 'I' for Inactive)
REMARK    1  A    between atoms: N_6  and  S_1 
REMARK    2  A    between atoms: C_12  and  S_1 
REMARK    3  A    between atoms: C_2  and  N_5 
REMARK    4  A    between atoms: C_4  and  C_7 
REMARK       I    between atoms: N_5  and  C_4 
REMARK    5  A    between atoms: C_10  and  N_6 
REMARK    6  A    between atoms: C_15  and  C_8 
ROOT
ATOM      1  C   UNL d   1      52.264  34.355  53.385  0.00  0.00     0.076 A 
ATOM      2  C   UNL d   1      52.635  33.625  53.387  0.00  0.00     0.098 A 
ATOM      3  C   UNL d   1      52.571  34.974  53.834  0.00  0.00     0.006 A 
ATOM      4  C   UNL d   1      53.320  33.507  53.839  0.00  0.00     0.020 A 
ATOM      5  C   UNL d   1      53.256  34.856  54.286  0.00  0.00     0.000 A 
ATOM      6  C   UNL d   1      53.630  34.120  54.287  0.00  0.00     0.002 A 
ENDROOT
BRANCH   1   7
ATOM      7  C   UNL d   1      51.582  34.472  52.935  0.00  0.00     0.282 C 
ATOM      8  N   UNL d   1      50.855  34.542  53.303  0.00  0.00    -0.183 NA
ATOM      9  O   UNL d   1      51.636  34.518  52.114  0.00  0.00    -0.265 OA
BRANCH   8  10
ATOM     10  C   UNL d   1      50.170  34.660  52.851  0.00  0.00     0.197 A 
ATOM     11  N   UNL d   1      49.573  35.172  53.030  0.00  0.00    -0.221 NA
ATOM     12  C   UNL d   1      49.002  35.117  52.439  0.00  0.00     0.090 A 
ATOM     13  C   UNL d   1      49.267  34.554  51.891  0.00  0.00     0.058 A 
ATOM     14  S   UNL d   1      49.999  34.268  52.149  0.00  0.00    -0.046 SA
BRANCH  12  15
ATOM     15  C   UNL d   1      48.279  35.500  52.322  0.00  0.00     0.018 A 
ATOM     16  C   UNL d   1      48.008  36.058  52.878  0.00  0.00     0.004 A 
ATOM     17  C   UNL d   1      47.285  36.438  52.760  0.00  0.00     0.030 A 
ATOM     18  C   UNL d   1      46.840  36.259  52.089  0.00  0.00     0.140 A 
ATOM     19  C   UNL d   1      47.107  35.709  51.541  0.00  0.00     0.030 A 
ATOM     20  F   UNL d   1      46.119  36.637  51.968  0.00  0.00    -0.204 F 
ATOM     21  C   UNL d   1      47.825  35.328  51.653  0.00  0.00     0.004 A 
ENDBRANCH  12  15
ENDBRANCH   8  10
ENDBRANCH   1   7
BRANCH   2  22
ATOM     22  N   UNL d   1      52.327  33.005  52.938  0.00  0.00    -0.158 NA
BRANCH  22  23
ATOM     23  S   UNL d   1      52.569  32.207  53.090  0.00  0.00     0.285 S 
ATOM     24  O   UNL d   1      52.012  32.168  53.696  0.00  0.00    -0.198 OA
ATOM     25  O   UNL d   1      53.125  32.277  52.470  0.00  0.00    -0.198 OA
BRANCH  23  26
ATOM     26  C   UNL d   1      52.801  31.442  53.236  0.00  0.00     0.105 A 
ATOM     27  C   UNL d   1      52.235  30.843  53.239  0.00  0.00     0.013 A 
ATOM     28  C   UNL d   1      52.476  30.045  53.390  0.00  0.00     0.001 A 
ATOM     29  C   UNL d   1      53.260  29.878  53.532  0.00  0.00     0.000 A 
ATOM     30  C   UNL d   1      53.830  30.492  53.528  0.00  0.00     0.001 A 
ATOM     31  C   UNL d   1      53.477  29.101  53.677  0.00  0.00     0.000 C 
ATOM     32  C   UNL d   1      53.596  31.273  53.380  0.00  0.00     0.013 A 
ENDBRANCH  23  26
ENDBRANCH  22  23
ENDBRANCH   2  22
TORSDOF 6
ENDMDL
MODEL 2
REMARK VINA RESULT:      -8.8      2.351      6.025
REMARK  6 active torsions:
REMARK  status: ('A' for Active; 'I' for Inactive)
REMARK    1  A    between atoms: N_6  and  S_1 
REMARK    2  A    between atoms: C_12  and  S_1 
REMARK    3  A    between atoms: C_2  and  N_5 
REMARK    4  A    between atoms: C_4  and  C_7 
REMARK       I    between atoms: N_5  and  C_4 
REMARK    5  A    between atoms: C_10  and  N_6 
REMARK    6  A    between atoms: C_15  and  C_8 
ROOT
ATOM      1  C   UNL d   1      52.603  33.723  53.475  0.00  0.00     0.076 A 
ATOM      2  C   UNL d   1      51.975  34.114  53.123  0.00  0.00     0.098 A 
ATOM      3  C   UNL d   1      53.248  34.152  53.759  0.00  0.00     0.006 A 
ATOM      4  C   UNL d   1      51.986  34.940  53.052  0.00  0.00     0.020 A 
ATOM      5  C   UNL d   1      53.259  34.978  53.688  0.00  0.00     0.000 A 
ATOM      6  C   UNL d   1      52.625  35.371  53.333  0.00  0.00     0.002 A 
ENDROOT
BRANCH   1   7
ATOM      7  C   UNL d   1      52.592  32.902  53.546  0.00  0.00     0.282 C 
ATOM      8  N   UNL d   1      53.126  32.447  53.124  0.00  0.00    -0.183 NA
ATOM      9  O   UNL d   1      52.043  32.540  54.042  0.00  0.00    -0.265 OA
BRANCH   8  10
ATOM     10  C   UNL d   1      53.115  31.621  53.195  0.00  0.00     0.197 A 
ATOM     11  N   UNL d   1      53.276  31.206  53.869  0.00  0.00    -0.221 NA
ATOM     12  C   UNL d   1      53.203  30.403  53.699  0.00  0.00     0.090 A 
ATOM     13  C   UNL d   1      52.993  30.337  52.900  0.00  0.00     0.058 A 
ATOM     14  S   UNL d   1      52.937  31.100  52.584  0.00  0.00    -0.046 SA
BRANCH  12  15
ATOM     15  C   UNL d   1      53.299  29.724  54.160  0.00  0.00     0.018 A 
ATOM     16  C   UNL d   1      53.121  29.743  54.973  0.00  0.00     0.004 A 
ATOM     17  C   UNL d   1      53.218  29.062  55.431  0.00  0.00     0.030 A 
ATOM     18  C   UNL d   1      53.491  28.371  55.073  0.00  0.00     0.140 A 
ATOM     19  C   UNL d   1      53.667  28.353  54.271  0.00  0.00     0.030 A 
ATOM     20  F   UNL d   1      53.589  27.692  55.527  0.00  0.00    -0.204 F 
ATOM     21  C   UNL d   1      53.573  29.025  53.812  0.00  0.00     0.004 A 
ENDBRANCH  12  15
ENDBRANCH   8  10
ENDBRANCH   1   7
BRANCH   2  22
ATOM     22  N   UNL d   1      51.331  33.685  52.839  0.00  0.00    -0.158 NA
BRANCH  22  23
ATOM     23  S   UNL d   1      50.616  34.086  52.619  0.00  0.00     0.285 S 
ATOM     24  O   UNL d   1      50.344  33.995  53.390  0.00  0.00    -0.198 OA
ATOM     25  O   UNL d   1      50.921  34.162  51.844  0.00  0.00    -0.198 OA
BRANCH  23  26
ATOM     26  C   UNL d   1      49.932  34.469  52.407  0.00  0.00     0.105 A 
ATOM     27  C   UNL d   1      49.649  34.393  51.637  0.00  0.00     0.013 A 
ATOM     28  C   UNL d   1      48.935  34.792  51.415  0.00  0.00     0.001 A 
ATOM     29  C   UNL d   1      48.538  35.245  51.961  0.00  0.00     0.000 A 
ATOM     30  C   UNL d   1      48.831  35.318  52.743  0.00  0.00     0.001 A 
ATOM     31  C   UNL d   1      47.849  35.626  51.732  0.00  0.00     0.000 C 
ATOM     32  C   UNL d   1      49.529  34.928  52.961  0.00  0.00     0.013 A 
ENDBRANCH  23  26
ENDBRANCH  22  23
ENDBRANCH   2  22
TORSDOF 6
ENDMDL
