MODEL 1
REMARK VINA RESULT:      -5.1      0.000      0.000
REMARK  2 active torsions:
REMARK  status: ('A' for Active; 'I' for Inactive)
REMARK    1  A    between atoms: C_4  and  C_2 
REMARK    2  A    between atoms: C_8  and  C_3 
ROOT
ATOM      1  S   UNL d   1      57.019   0.474  32.035  0.00  0.00    -0.081 SA
ATOM      2  C   UNL d   1      56.607  -0.050  32.523  0.00  0.00     0.031 A 
ATOM      3  C   UNL d   1      57.298   0.046  31.371  0.00  0.00     0.094 A 
ATOM      4  C   UNL d   1      56.627  -0.808  32.166  0.00  0.00     0.007 A 
ATOM      5  C   UNL d   1      57.055  -0.740  31.456  0.00  0.00     0.013 A 
ENDROOT
BRANCH   2   6
ATOM      6  C   UNL d   1      56.241   0.132  33.232  0.00  0.00     0.025 A 
ATOM      7  C   UNL d   1      55.433   0.301  33.253  0.00  0.00     0.005 A 
ATOM      8  C   UNL d   1      55.068   0.484  33.961  0.00  0.00     0.038 A 
ATOM      9  C   UNL d   1      54.265   0.651  33.981  0.00  0.00     0.003 C 
ATOM     10  C   UNL d   1      55.510   0.499  34.661  0.00  0.00     0.184 A 
ATOM     11  N   UNL d   1      56.323   0.329  34.638  0.00  0.00    -0.224 NA
ATOM     12  N   UNL d   1      55.146   0.682  35.374  0.00  0.00    -0.127 N 
ATOM     13  C   UNL d   1      56.676   0.148  33.920  0.00  0.00     0.101 A 
ENDBRANCH   2   6
BRANCH   3  14
ATOM     14  C   UNL d   1      57.736   0.364  30.751  0.00  0.00     0.217 C 
ATOM     15  O   UNL d   1      58.547   0.510  30.860  0.00  0.00    -0.643 OA
ATOM     16  O   UNL d   1      57.391   0.537  30.039  0.00  0.00    -0.643 OA
ENDBRANCH   3  14
TORSDOF 2
ENDMDL
MODEL 2
REMARK VINA RESULT:      -5.0      1.347      1.912
REMARK  2 active torsions:
REMARK  status: ('A' for Active; 'I' for Inactive)
REMARK    1  A    between atoms: C_4  and  C_2 
REMARK    2  A    between atoms: C_8  and  C_3 
ROOT
ATOM      1  S   UNL d   1      57.592  -0.257  30.664  0.00  0.00    -0.081 SA
ATOM      2  C   UNL d   1      57.497   0.143  31.380  0.00  0.00     0.031 A 
ATOM      3  C   UNL d   1      58.288   0.031  30.296  0.00  0.00     0.094 A 
ATOM      4  C   UNL d   1      58.134   0.682  31.463  0.00  0.00     0.007 A 
ATOM      5  C   UNL d   1      58.617   0.606  30.790  0.00  0.00     0.013 A 
ENDROOT
BRANCH   2   6
ATOM      6  C   UNL d   1      56.891   0.036  31.919  0.00  0.00     0.025 A 
ATOM      7  C   UNL d   1      56.688  -0.723  32.173  0.00  0.00     0.005 A 
ATOM      8  C   UNL d   1      56.081  -0.830  32.712  0.00  0.00     0.038 A 
ATOM      9  C   UNL d   1      55.880  -1.583  32.963  0.00  0.00     0.003 C 
ATOM     10  C   UNL d   1      55.670  -0.173  33.003  0.00  0.00     0.184 A 
ATOM     11  N   UNL d   1      55.875   0.590  32.747  0.00  0.00    -0.224 NA
ATOM     12  N   UNL d   1      55.060  -0.278  33.545  0.00  0.00    -0.127 N 
ATOM     13  C   UNL d   1      56.486   0.682  32.206  0.00  0.00     0.101 A 
ENDBRANCH   2   6
BRANCH   3  14
ATOM     14  C   UNL d   1      58.581  -0.224  29.570  0.00  0.00     0.217 C 
ATOM     15  O   UNL d   1      59.375  -0.465  29.516  0.00  0.00    -0.643 OA
ATOM     16  O   UNL d   1      58.112  -0.243  28.911  0.00  0.00    -0.643 OA
ENDBRANCH   3  14
TORSDOF 2
ENDMDL
MODEL 3
REMARK VINA RESULT:      -4.9      2.426      3.624
REMARK  2 active torsions:
REMARK  status: ('A' for Active; 'I' for Inactive)
REMARK    1  A    between atoms: C_4  and  C_2 
REMARK    2  A    between atoms: C_8  and  C_3 
ROOT
ATOM      1  S   UNL d   1      56.047   0.539  33.243  0.00  0.00    -0.081 SA
ATOM      2  C   UNL d   1      56.454   0.006  32.761  0.00  0.00     0.031 A 
ATOM      3  C   UNL d   1      55.421   0.126  33.618  0.00  0.00     0.094 A 
ATOM      4  C   UNL d   1      56.084  -0.743  32.831  0.00  0.00     0.007 A 
ATOM      5  C   UNL d   1      55.448  -0.660  33.362  0.00  0.00     0.013 A 
ENDROOT
BRANCH   2   6
ATOM      6  C   UNL d   1      57.104   0.174  32.294  0.00  0.00     0.025 A 
ATOM      7  C   UNL d   1      57.088   0.014  31.484  0.00  0.00     0.005 A 
ATOM      8  C   UNL d   1      57.738   0.181  31.017  0.00  0.00     0.038 A 
ATOM      9  C   UNL d   1      57.721   0.023  30.213  0.00  0.00     0.003 C 
ATOM     10  C   UNL d   1      58.415   0.513  31.358  0.00  0.00     0.184 A 
ATOM     11  N   UNL d   1      58.431   0.673  32.173  0.00  0.00    -0.224 NA
ATOM     12  N   UNL d   1      59.070   0.682  30.891  0.00  0.00    -0.127 N 
ATOM     13  C   UNL d   1      57.771   0.499  32.629  0.00  0.00     0.101 A 
ENDBRANCH   2   6
BRANCH   3  14
ATOM     14  C   UNL d   1      54.882   0.456  34.144  0.00  0.00     0.217 C 
ATOM     15  O   UNL d   1      55.105   0.561  34.939  0.00  0.00    -0.643 OA
ATOM     16  O   UNL d   1      54.142   0.679  33.904  0.00  0.00    -0.643 OA
ENDBRANCH   3  14
TORSDOF 2
ENDMDL
MODEL 4
REMARK VINA RESULT:      -2.8      2.777      3.787
REMARK  2 active torsions:
REMARK  status: ('A' for Active; 'I' for Inactive)
REMARK    1  A    between atoms: C_4  and  C_2 
REMARK    2  A    between atoms: C_8  and  C_3 
ROOT
ATOM      1  S   UNL d   1      58.529  -1.877  29.667  0.00  0.00    -0.081 SA
ATOM      2  C   UNL d   1      58.388  -1.064  29.665  0.00  0.00     0.031 A 
ATOM      3  C   UNL d   1      58.898  -2.079  28.942  0.00  0.00     0.094 A 
ATOM      4  C   UNL d   1      58.668  -0.753  28.938  0.00  0.00     0.007 A 
ATOM      5  C   UNL d   1      58.980  -1.386  28.498  0.00  0.00     0.013 A 
ENDROOT
BRANCH   2   6
ATOM      6  C   UNL d   1      58.037  -0.631  30.264  0.00  0.00     0.025 A 
ATOM      7  C   UNL d   1      57.521  -0.996  30.795  0.00  0.00     0.005 A 
ATOM      8  C   UNL d   1      57.170  -0.564  31.394  0.00  0.00     0.038 A 
ATOM      9  C   UNL d   1      56.658  -0.927  31.921  0.00  0.00     0.003 C 
ATOM     10  C   UNL d   1      57.334   0.245  31.468  0.00  0.00     0.184 A 
ATOM     11  N   UNL d   1      57.853   0.611  30.933  0.00  0.00    -0.224 NA
ATOM     12  N   UNL d   1      56.982   0.682  32.069  0.00  0.00    -0.127 N 
ATOM     13  C   UNL d   1      58.197   0.164  30.337  0.00  0.00     0.101 A 
ENDBRANCH   2   6
BRANCH   3  14
ATOM     14  C   UNL d   1      59.131  -2.837  28.722  0.00  0.00     0.217 C 
ATOM     15  O   UNL d   1      59.940  -2.995  28.606  0.00  0.00    -0.643 OA
ATOM     16  O   UNL d   1      58.589  -3.430  28.617  0.00  0.00    -0.643 OA
ENDBRANCH   3  14
TORSDOF 2
ENDMDL
