MODEL 1
REMARK VINA RESULT:      49.9      0.000      0.000
REMARK  4 active torsions:
REMARK  status: ('A' for Active; 'I' for Inactive)
REMARK    1  A    between atoms: C_8  and  C_1 
REMARK    2  A    between atoms: N_5  and  C_2 
REMARK       I    between atoms: C_7  and  N_5 
REMARK    3  A    between atoms: C_10  and  C_7 
REMARK    4  A    between atoms: O_17  and  C_16 
ROOT
ATOM      1  N   UNL d   1     -50.026  27.237  34.208  0.00  0.00    -0.165 NA
ATOM      2  C   UNL d   1     -50.050  26.600  33.698  0.00  0.00     0.282 C 
ATOM      3  O   UNL d   1     -49.365  26.349  33.306  0.00  0.00    -0.265 OA
ENDROOT
BRANCH   1   4
ATOM      4  C   UNL d   1     -49.319  27.639  34.339  0.00  0.00     0.297 A 
ATOM      5  O   UNL d   1     -49.185  28.184  34.944  0.00  0.00    -0.253 OA
ATOM      6  C   UNL d   1     -48.405  28.454  34.874  0.00  0.00     0.212 A 
ATOM      7  N   UNL d   1     -48.067  28.075  34.231  0.00  0.00    -0.119 NA
ATOM      8  N   UNL d   1     -48.631  27.573  33.901  0.00  0.00    -0.101 NA
BRANCH   6   9
ATOM      9  C   UNL d   1     -48.040  29.009  35.372  0.00  0.00     0.072 A 
ATOM     10  S   UNL d   1     -47.785  28.875  36.140  0.00  0.00    -0.083 SA
ATOM     11  C   UNL d   1     -47.457  29.575  36.425  0.00  0.00     0.035 A 
ATOM     12  C   UNL d   1     -47.510  30.146  35.827  0.00  0.00     0.008 A 
ATOM     13  C   UNL d   1     -47.873  29.792  35.173  0.00  0.00     0.011 A 
ENDBRANCH   6   9
ENDBRANCH   1   4
BRANCH   2  14
ATOM     14  C   UNL d   1     -50.761  26.196  33.567  0.00  0.00     0.060 A 
ATOM     15  C   UNL d   1     -50.779  25.371  33.562  0.00  0.00     0.029 A 
ATOM     16  C   UNL d   1     -51.484  24.976  33.432  0.00  0.00     0.094 A 
ATOM     17  C   UNL d   1     -52.176  25.403  33.306  0.00  0.00     0.024 A 
ATOM     18  C   UNL d   1     -52.163  26.231  33.310  0.00  0.00     0.002 A 
ATOM     19  C   UNL d   1     -51.453  26.622  33.441  0.00  0.00     0.005 A 
BRANCH  16  20
ATOM     20  O   UNL d   1     -51.510  24.133  33.425  0.00  0.00    -0.328 OA
ATOM     21  C   UNL d   1     -52.216  23.742  33.550  0.00  0.00     0.181 C 
ENDBRANCH  16  20
ENDBRANCH   2  14
TORSDOF 4
ENDMDL
MODEL 2
REMARK VINA RESULT:      51.8      1.537      5.155
REMARK  4 active torsions:
REMARK  status: ('A' for Active; 'I' for Inactive)
REMARK    1  A    between atoms: C_8  and  C_1 
REMARK    2  A    between atoms: N_5  and  C_2 
REMARK       I    between atoms: C_7  and  N_5 
REMARK    3  A    between atoms: C_10  and  C_7 
REMARK    4  A    between atoms: O_17  and  C_16 
ROOT
ATOM      1  N   UNL d   1     -49.200  28.058  33.913  0.00  0.00    -0.165 NA
ATOM      2  C   UNL d   1     -49.017  28.184  34.699  0.00  0.00     0.282 C 
ATOM      3  O   UNL d   1     -49.469  27.835  35.298  0.00  0.00    -0.265 OA
ENDROOT
BRANCH   1   4
ATOM      4  C   UNL d   1     -49.839  27.579  33.707  0.00  0.00     0.297 A 
ATOM      5  O   UNL d   1     -49.844  26.754  33.727  0.00  0.00    -0.253 OA
ATOM      6  C   UNL d   1     -50.591  26.499  33.477  0.00  0.00     0.212 A 
ATOM      7  N   UNL d   1     -51.038  27.165  33.307  0.00  0.00    -0.119 NA
ATOM      8  N   UNL d   1     -50.574  27.831  33.448  0.00  0.00    -0.101 NA
BRANCH   6   9
ATOM      9  C   UNL d   1     -50.835  25.709  33.414  0.00  0.00     0.072 A 
ATOM     10  S   UNL d   1     -50.343  25.054  33.358  0.00  0.00    -0.083 SA
ATOM     11  C   UNL d   1     -50.817  24.382  33.306  0.00  0.00     0.035 A 
ATOM     12  C   UNL d   1     -51.610  24.625  33.331  0.00  0.00     0.008 A 
ATOM     13  C   UNL d   1     -51.618  25.450  33.398  0.00  0.00     0.011 A 
ENDBRANCH   6   9
ENDBRANCH   1   4
BRANCH   2  14
ATOM     14  C   UNL d   1     -48.374  28.665  34.905  0.00  0.00     0.060 A 
ATOM     15  C   UNL d   1     -48.465  29.484  34.955  0.00  0.00     0.029 A 
ATOM     16  C   UNL d   1     -47.827  29.955  35.159  0.00  0.00     0.094 A 
ATOM     17  C   UNL d   1     -47.096  29.612  35.315  0.00  0.00     0.024 A 
ATOM     18  C   UNL d   1     -47.001  28.790  35.266  0.00  0.00     0.002 A 
ATOM     19  C   UNL d   1     -47.643  28.322  35.061  0.00  0.00     0.005 A 
BRANCH  16  20
ATOM     20  O   UNL d   1     -47.911  30.793  35.212  0.00  0.00    -0.328 OA
ATOM     21  C   UNL d   1     -47.300  31.284  34.981  0.00  0.00     0.181 C 
ENDBRANCH  16  20
ENDBRANCH   2  14
TORSDOF 4
ENDMDL
MODEL 3
REMARK VINA RESULT:      52.5      1.587      5.174
REMARK  4 active torsions:
REMARK  status: ('A' for Active; 'I' for Inactive)
REMARK    1  A    between atoms: C_8  and  C_1 
REMARK    2  A    between atoms: N_5  and  C_2 
REMARK       I    between atoms: C_7  and  N_5 
REMARK    3  A    between atoms: C_10  and  C_7 
REMARK    4  A    between atoms: O_17  and  C_16 
ROOT
ATOM      1  N   UNL d   1     -49.155  28.176  34.532  0.00  0.00    -0.165 NA
ATOM      2  C   UNL d   1     -48.378  28.203  34.783  0.00  0.00     0.282 C 
ATOM      3  O   UNL d   1     -47.862  27.575  34.622  0.00  0.00    -0.265 OA
ENDROOT
BRANCH   1   4
ATOM      4  C   UNL d   1     -49.436  27.522  34.115  0.00  0.00     0.297 A 
ATOM      5  O   UNL d   1     -50.202  27.221  34.160  0.00  0.00    -0.253 OA
ATOM      6  C   UNL d   1     -50.248  26.566  33.655  0.00  0.00     0.212 A 
ATOM      7  N   UNL d   1     -49.513  26.470  33.306  0.00  0.00    -0.119 NA
ATOM      8  N   UNL d   1     -49.012  27.060  33.589  0.00  0.00    -0.101 NA
BRANCH   6   9
ATOM      9  C   UNL d   1     -50.921  26.098  33.532  0.00  0.00     0.072 A 
ATOM     10  S   UNL d   1     -50.943  25.277  33.517  0.00  0.00    -0.083 SA
ATOM     11  C   UNL d   1     -51.721  25.046  33.379  0.00  0.00     0.035 A 
ATOM     12  C   UNL d   1     -52.185  25.730  33.307  0.00  0.00     0.008 A 
ATOM     13  C   UNL d   1     -51.685  26.382  33.403  0.00  0.00     0.011 A 
ENDBRANCH   6   9
ENDBRANCH   1   4
BRANCH   2  14
ATOM     14  C   UNL d   1     -48.098  28.860  35.201  0.00  0.00     0.060 A 
ATOM     15  C   UNL d   1     -47.903  29.557  34.803  0.00  0.00     0.029 A 
ATOM     16  C   UNL d   1     -47.626  30.204  35.221  0.00  0.00     0.094 A 
ATOM     17  C   UNL d   1     -47.541  30.159  36.039  0.00  0.00     0.024 A 
ATOM     18  C   UNL d   1     -47.735  29.463  36.442  0.00  0.00     0.002 A 
ATOM     19  C   UNL d   1     -48.012  28.816  36.018  0.00  0.00     0.005 A 
BRANCH  16  20
ATOM     20  O   UNL d   1     -47.426  30.920  34.822  0.00  0.00    -0.328 OA
ATOM     21  C   UNL d   1     -47.493  31.638  35.205  0.00  0.00     0.181 C 
ENDBRANCH  16  20
ENDBRANCH   2  14
TORSDOF 4
ENDMDL
MODEL 4
REMARK VINA RESULT:      52.7      0.988      1.271
REMARK  4 active torsions:
REMARK  status: ('A' for Active; 'I' for Inactive)
REMARK    1  A    between atoms: C_8  and  C_1 
REMARK    2  A    between atoms: N_5  and  C_2 
REMARK       I    between atoms: C_7  and  N_5 
REMARK    3  A    between atoms: C_10  and  C_7 
REMARK    4  A    between atoms: O_17  and  C_16 
ROOT
ATOM      1  N   UNL d   1     -49.397  27.785  34.677  0.00  0.00    -0.165 NA
ATOM      2  C   UNL d   1     -49.375  27.378  33.970  0.00  0.00     0.282 C 
ATOM      3  O   UNL d   1     -48.720  27.445  33.467  0.00  0.00    -0.265 OA
ENDROOT
BRANCH   1   4
ATOM      4  C   UNL d   1     -48.768  28.269  34.900  0.00  0.00     0.297 A 
ATOM      5  O   UNL d   1     -48.724  29.083  34.772  0.00  0.00    -0.253 OA
ATOM      6  C   UNL d   1     -48.002  29.349  35.080  0.00  0.00     0.212 A 
ATOM      7  N   UNL d   1     -47.610  28.700  35.392  0.00  0.00    -0.119 NA
ATOM      8  N   UNL d   1     -48.083  28.034  35.281  0.00  0.00    -0.101 NA
BRANCH   6   9
ATOM      9  C   UNL d   1     -47.733  30.134  35.069  0.00  0.00     0.072 A 
ATOM     10  S   UNL d   1     -47.100  30.433  35.498  0.00  0.00    -0.083 SA
ATOM     11  C   UNL d   1     -47.029  31.235  35.320  0.00  0.00     0.035 A 
ATOM     12  C   UNL d   1     -47.624  31.432  34.777  0.00  0.00     0.008 A 
ATOM     13  C   UNL d   1     -48.060  30.745  34.623  0.00  0.00     0.011 A 
ENDBRANCH   6   9
ENDBRANCH   1   4
BRANCH   2  14
ATOM     14  C   UNL d   1     -50.008  26.892  33.748  0.00  0.00     0.060 A 
ATOM     15  C   UNL d   1     -49.895  26.081  33.642  0.00  0.00     0.029 A 
ATOM     16  C   UNL d   1     -50.524  25.605  33.422  0.00  0.00     0.094 A 
ATOM     17  C   UNL d   1     -51.268  25.936  33.307  0.00  0.00     0.024 A 
ATOM     18  C   UNL d   1     -51.386  26.748  33.412  0.00  0.00     0.002 A 
ATOM     19  C   UNL d   1     -50.752  27.222  33.632  0.00  0.00     0.005 A 
BRANCH  16  20
ATOM     20  O   UNL d   1     -50.416  24.776  33.312  0.00  0.00    -0.328 OA
ATOM     21  C   UNL d   1     -51.061  24.273  33.312  0.00  0.00     0.181 C 
ENDBRANCH  16  20
ENDBRANCH   2  14
TORSDOF 4
ENDMDL
MODEL 5
REMARK VINA RESULT:      52.8      2.074      5.188
REMARK  4 active torsions:
REMARK  status: ('A' for Active; 'I' for Inactive)
REMARK    1  A    between atoms: C_8  and  C_1 
REMARK    2  A    between atoms: N_5  and  C_2 
REMARK       I    between atoms: C_7  and  N_5 
REMARK    3  A    between atoms: C_10  and  C_7 
REMARK    4  A    between atoms: O_17  and  C_16 
ROOT
ATOM      1  N   UNL d   1     -50.583  26.675  33.470  0.00  0.00    -0.165 NA
ATOM      2  C   UNL d   1     -50.032  26.858  34.044  0.00  0.00     0.282 C 
ATOM      3  O   UNL d   1     -49.820  26.300  34.618  0.00  0.00    -0.265 OA
ENDROOT
BRANCH   1   4
ATOM      4  C   UNL d   1     -50.936  25.930  33.455  0.00  0.00     0.297 A 
ATOM      5  O   UNL d   1     -51.745  25.784  33.524  0.00  0.00    -0.253 OA
ATOM      6  C   UNL d   1     -51.860  24.965  33.480  0.00  0.00     0.212 A 
ATOM      7  N   UNL d   1     -51.125  24.616  33.385  0.00  0.00    -0.119 NA
ATOM      8  N   UNL d   1     -50.555  25.211  33.369  0.00  0.00    -0.101 NA
BRANCH   6   9
ATOM      9  C   UNL d   1     -52.592  24.577  33.526  0.00  0.00     0.072 A 
ATOM     10  S   UNL d   1     -52.715  23.806  33.777  0.00  0.00    -0.083 SA
ATOM     11  C   UNL d   1     -53.523  23.649  33.734  0.00  0.00     0.035 A 
ATOM     12  C   UNL d   1     -53.902  24.332  33.453  0.00  0.00     0.008 A 
ATOM     13  C   UNL d   1     -53.321  24.907  33.325  0.00  0.00     0.011 A 
ENDBRANCH   6   9
ENDBRANCH   1   4
BRANCH   2  14
ATOM     14  C   UNL d   1     -49.678  27.607  34.058  0.00  0.00     0.060 A 
ATOM     15  C   UNL d   1     -49.133  27.800  34.648  0.00  0.00     0.029 A 
ATOM     16  C   UNL d   1     -48.786  28.541  34.658  0.00  0.00     0.094 A 
ATOM     17  C   UNL d   1     -48.980  29.094  34.080  0.00  0.00     0.024 A 
ATOM     18  C   UNL d   1     -49.525  28.904  33.487  0.00  0.00     0.002 A 
ATOM     19  C   UNL d   1     -49.871  28.160  33.481  0.00  0.00     0.005 A 
BRANCH  16  20
ATOM     20  O   UNL d   1     -48.229  28.746  35.258  0.00  0.00    -0.328 OA
ATOM     21  C   UNL d   1     -47.673  29.330  35.122  0.00  0.00     0.181 C 
ENDBRANCH  16  20
ENDBRANCH   2  14
TORSDOF 4
ENDMDL
