MODEL 1
REMARK VINA RESULT:     -10.3      0.000      0.000
REMARK  6 active torsions:
REMARK  status: ('A' for Active; 'I' for Inactive)
REMARK    1  A    between atoms: N_5  and  S_1 
REMARK    2  A    between atoms: C_6  and  S_1 
REMARK    3  A    between atoms: C_2  and  C_14 
REMARK    4  A    between atoms: C_8  and  N_5 
REMARK    5  A    between atoms: C_7  and  C_8 
REMARK       I    between atoms: N_11  and  C_7 
REMARK    6  A    between atoms: C_20  and  N_11 
ROOT
ATOM      1  C   UNL d   1      50.561  34.238  52.639  0.00  0.00     0.298 C 
ATOM      2  N   UNL d   1      50.280  34.524  51.923  0.00  0.00    -0.207 NA
ATOM      3  O   UNL d   1      50.061  34.198  53.294  0.00  0.00    -0.264 OA
ENDROOT
BRANCH   1   4
ATOM      4  C   UNL d   1      51.342  33.992  52.695  0.00  0.00     0.151 C 
ATOM      5  C   UNL d   1      51.951  34.554  52.748  0.00  0.00     0.027 C 
BRANCH   4   6
ATOM      6  N   UNL d   1      51.532  33.198  52.700  0.00  0.00    -0.153 NA
BRANCH   6   7
ATOM      7  S   UNL d   1      52.215  32.928  53.075  0.00  0.00     0.285 S 
ATOM      8  O   UNL d   1      52.626  32.975  52.361  0.00  0.00    -0.198 OA
ATOM      9  O   UNL d   1      51.805  32.881  53.790  0.00  0.00    -0.198 OA
BRANCH   7  10
ATOM     10  C   UNL d   1      52.896  32.660  53.448  0.00  0.00     0.105 A 
ATOM     11  C   UNL d   1      53.120  31.876  53.364  0.00  0.00     0.012 A 
ATOM     12  C   UNL d   1      53.810  31.600  53.741  0.00  0.00     0.001 A 
ATOM     13  C   UNL d   1      52.654  31.357  52.900  0.00  0.00     0.001 C 
ATOM     14  C   UNL d   1      54.263  32.111  54.193  0.00  0.00     0.000 A 
ATOM     15  C   UNL d   1      54.036  32.901  54.277  0.00  0.00     0.001 A 
ATOM     16  C   UNL d   1      53.349  33.171  53.901  0.00  0.00     0.013 A 
ATOM     17  C   UNL d   1      54.497  33.420  54.738  0.00  0.00     0.000 C 
ENDBRANCH   7  10
ENDBRANCH   6   7
ENDBRANCH   4   6
ENDBRANCH   1   4
BRANCH   2  18
ATOM     18  C   UNL d   1      49.496  34.773  51.862  0.00  0.00     0.085 A 
ATOM     19  C   UNL d   1      49.052  34.548  51.207  0.00  0.00     0.019 A 
ATOM     20  C   UNL d   1      48.258  34.791  51.131  0.00  0.00     0.004 A 
ATOM     21  C   UNL d   1      47.915  35.259  51.715  0.00  0.00     0.024 A 
ATOM     22  C   UNL d   1      48.359  35.485  52.373  0.00  0.00     0.004 A 
ATOM     23  C   UNL d   1      49.146  35.247  52.453  0.00  0.00     0.019 A 
BRANCH  21  24
ATOM     24  C   UNL d   1      47.124  35.494  51.628  0.00  0.00     0.111 A 
ATOM     25  N   UNL d   1      46.640  35.219  51.025  0.00  0.00    -0.239 NA
ATOM     26  C   UNL d   1      45.895  35.566  51.108  0.00  0.00     0.088 A 
ATOM     27  C   UNL d   1      45.201  35.498  50.672  0.00  0.00     0.020 A 
ATOM     28  C   UNL d   1      45.922  36.060  51.768  0.00  0.00     0.049 A 
ATOM     29  C   UNL d   1      44.532  35.924  50.895  0.00  0.00     0.002 A 
ATOM     30  C   UNL d   1      44.559  36.418  51.555  0.00  0.00     0.001 A 
ATOM     31  C   UNL d   1      45.254  36.486  51.992  0.00  0.00     0.008 A 
ATOM     32  S   UNL d   1      46.684  36.015  52.089  0.00  0.00    -0.066 SA
ENDBRANCH  21  24
ENDBRANCH   2  18
TORSDOF 6
ENDMDL
MODEL 2
REMARK VINA RESULT:      -9.0      1.346      7.157
REMARK  6 active torsions:
REMARK  status: ('A' for Active; 'I' for Inactive)
REMARK    1  A    between atoms: N_5  and  S_1 
REMARK    2  A    between atoms: C_6  and  S_1 
REMARK    3  A    between atoms: C_2  and  C_14 
REMARK    4  A    between atoms: C_8  and  N_5 
REMARK    5  A    between atoms: C_7  and  C_8 
REMARK       I    between atoms: N_11  and  C_7 
REMARK    6  A    between atoms: C_20  and  N_11 
ROOT
ATOM      1  C   UNL d   1      49.134  35.139  52.517  0.00  0.00     0.298 C 
ATOM      2  N   UNL d   1      49.550  34.509  52.197  0.00  0.00    -0.207 NA
ATOM      3  O   UNL d   1      49.443  35.558  53.156  0.00  0.00    -0.264 OA
ENDROOT
BRANCH   1   4
ATOM      4  C   UNL d   1      48.408  35.347  52.193  0.00  0.00     0.151 C 
ATOM      5  C   UNL d   1      48.155  34.998  51.484  0.00  0.00     0.027 C 
BRANCH   4   6
ATOM      6  N   UNL d   1      47.928  35.895  52.561  0.00  0.00    -0.153 NA
BRANCH   6   7
ATOM      7  S   UNL d   1      47.121  35.933  52.390  0.00  0.00     0.285 S 
ATOM      8  O   UNL d   1      47.271  36.503  51.813  0.00  0.00    -0.198 OA
ATOM      9  O   UNL d   1      46.971  35.363  52.968  0.00  0.00    -0.198 OA
BRANCH   7  10
ATOM     10  C   UNL d   1      46.319  35.972  52.220  0.00  0.00     0.105 A 
ATOM     11  C   UNL d   1      45.815  36.358  52.737  0.00  0.00     0.012 A 
ATOM     12  C   UNL d   1      45.000  36.399  52.568  0.00  0.00     0.001 A 
ATOM     13  C   UNL d   1      46.120  36.710  53.433  0.00  0.00     0.001 C 
ATOM     14  C   UNL d   1      44.705  36.055  51.886  0.00  0.00     0.000 A 
ATOM     15  C   UNL d   1      45.214  35.665  51.365  0.00  0.00     0.001 A 
ATOM     16  C   UNL d   1      46.024  35.627  51.538  0.00  0.00     0.013 A 
ATOM     17  C   UNL d   1      44.913  35.314  50.672  0.00  0.00     0.000 C 
ENDBRANCH   7  10
ENDBRANCH   6   7
ENDBRANCH   4   6
ENDBRANCH   1   4
BRANCH   2  18
ATOM     18  C   UNL d   1      50.280  34.296  52.518  0.00  0.00     0.085 A 
ATOM     19  C   UNL d   1      50.301  33.839  53.201  0.00  0.00     0.019 A 
ATOM     20  C   UNL d   1      51.031  33.617  53.538  0.00  0.00     0.004 A 
ATOM     21  C   UNL d   1      51.735  33.855  53.185  0.00  0.00     0.024 A 
ATOM     22  C   UNL d   1      51.715  34.314  52.499  0.00  0.00     0.004 A 
ATOM     23  C   UNL d   1      50.995  34.537  52.162  0.00  0.00     0.019 A 
BRANCH  21  24
ATOM     24  C   UNL d   1      52.455  33.627  53.530  0.00  0.00     0.111 A 
ATOM     25  N   UNL d   1      52.796  34.031  54.157  0.00  0.00    -0.239 NA
ATOM     26  C   UNL d   1      53.504  33.654  54.357  0.00  0.00     0.088 A 
ATOM     27  C   UNL d   1      54.071  33.809  54.933  0.00  0.00     0.020 A 
ATOM     28  C   UNL d   1      53.598  33.012  53.847  0.00  0.00     0.049 A 
ATOM     29  C   UNL d   1      54.733  33.323  54.998  0.00  0.00     0.002 A 
ATOM     30  C   UNL d   1      54.827  32.682  54.488  0.00  0.00     0.001 A 
ATOM     31  C   UNL d   1      54.259  32.526  53.911  0.00  0.00     0.008 A 
ATOM     32  S   UNL d   1      52.948  32.997  53.334  0.00  0.00    -0.066 SA
ENDBRANCH  21  24
ENDBRANCH   2  18
TORSDOF 6
ENDMDL
MODEL 3
REMARK VINA RESULT:      -7.9      1.333      2.070
REMARK  6 active torsions:
REMARK  status: ('A' for Active; 'I' for Inactive)
REMARK    1  A    between atoms: N_5  and  S_1 
REMARK    2  A    between atoms: C_6  and  S_1 
REMARK    3  A    between atoms: C_2  and  C_14 
REMARK    4  A    between atoms: C_8  and  N_5 
REMARK    5  A    between atoms: C_7  and  C_8 
REMARK       I    between atoms: N_11  and  C_7 
REMARK    6  A    between atoms: C_20  and  N_11 
ROOT
ATOM      1  C   UNL d   1      51.685  33.228  53.160  0.00  0.00     0.298 C 
ATOM      2  N   UNL d   1      51.560  33.808  52.593  0.00  0.00    -0.207 NA
ATOM      3  O   UNL d   1      51.080  33.021  53.680  0.00  0.00    -0.264 OA
ENDROOT
BRANCH   1   4
ATOM      4  C   UNL d   1      52.416  32.858  53.202  0.00  0.00     0.151 C 
ATOM      5  C   UNL d   1      52.997  33.147  53.720  0.00  0.00     0.027 C 
BRANCH   4   6
ATOM      6  N   UNL d   1      52.583  32.205  52.740  0.00  0.00    -0.153 NA
BRANCH   6   7
ATOM      7  S   UNL d   1      52.800  31.488  53.085  0.00  0.00     0.285 S 
ATOM      8  O   UNL d   1      52.035  31.201  52.968  0.00  0.00    -0.198 OA
ATOM      9  O   UNL d   1      53.565  31.774  53.201  0.00  0.00    -0.198 OA
BRANCH   7  10
ATOM     10  C   UNL d   1      53.015  30.773  53.427  0.00  0.00     0.105 A 
ATOM     11  C   UNL d   1      53.179  30.129  52.947  0.00  0.00     0.012 A 
ATOM     12  C   UNL d   1      53.398  29.402  53.291  0.00  0.00     0.001 A 
ATOM     13  C   UNL d   1      53.127  30.205  52.115  0.00  0.00     0.001 C 
ATOM     14  C   UNL d   1      53.448  29.332  54.105  0.00  0.00     0.000 A 
ATOM     15  C   UNL d   1      53.282  29.982  54.588  0.00  0.00     0.001 A 
ATOM     16  C   UNL d   1      53.065  30.703  54.241  0.00  0.00     0.013 A 
ATOM     17  C   UNL d   1      53.333  29.909  55.417  0.00  0.00     0.000 C 
ENDBRANCH   7  10
ENDBRANCH   6   7
ENDBRANCH   4   6
ENDBRANCH   1   4
BRANCH   2  18
ATOM     18  C   UNL d   1      50.827  34.183  52.547  0.00  0.00     0.085 A 
ATOM     19  C   UNL d   1      50.381  34.111  51.859  0.00  0.00     0.019 A 
ATOM     20  C   UNL d   1      49.638  34.484  51.798  0.00  0.00     0.004 A 
ATOM     21  C   UNL d   1      49.347  34.927  52.427  0.00  0.00     0.024 A 
ATOM     22  C   UNL d   1      49.794  35.000  53.118  0.00  0.00     0.004 A 
ATOM     23  C   UNL d   1      50.531  34.632  53.184  0.00  0.00     0.019 A 
BRANCH  21  24
ATOM     24  C   UNL d   1      48.606  35.293  52.354  0.00  0.00     0.111 A 
ATOM     25  N   UNL d   1      48.291  35.781  52.933  0.00  0.00    -0.239 NA
ATOM     26  C   UNL d   1      47.551  36.048  52.677  0.00  0.00     0.088 A 
ATOM     27  C   UNL d   1      46.991  36.542  53.021  0.00  0.00     0.020 A 
ATOM     28  C   UNL d   1      47.412  35.720  51.933  0.00  0.00     0.049 A 
ATOM     29  C   UNL d   1      46.290  36.709  52.622  0.00  0.00     0.002 A 
ATOM     30  C   UNL d   1      46.151  36.381  51.878  0.00  0.00     0.001 A 
ATOM     31  C   UNL d   1      46.712  35.886  51.533  0.00  0.00     0.008 A 
ATOM     32  S   UNL d   1      48.066  35.252  51.733  0.00  0.00    -0.066 SA
ENDBRANCH  21  24
ENDBRANCH   2  18
TORSDOF 6
ENDMDL
