MODEL 1
REMARK VINA RESULT:      66.2      0.000      0.000
REMARK  7 active torsions:
REMARK  status: ('A' for Active; 'I' for Inactive)
REMARK    1  A    between atoms: N_4  and  C_1 
REMARK    2  A    between atoms: N_8  and  C_1 
REMARK    3  A    between atoms: C_2  and  C_3 
REMARK    4  A    between atoms: C_5  and  C_2 
REMARK    5  A    between atoms: N_6  and  C_2 
REMARK    6  A    between atoms: C_3  and  N_4 
REMARK    7  A    between atoms: C_14  and  N_8 
ROOT
ATOM      1  C   UNL d   1      58.523  49.207  50.277  0.00  0.00     0.100 C 
ATOM      2  C   UNL d   1      58.750  49.174  49.489  0.00  0.00     0.022 C 
ENDROOT
BRANCH   1   3
ATOM      3  C   UNL d   1      57.722  49.222  50.474  0.00  0.00     0.088 C 
BRANCH   3   4
ATOM      4  C   UNL d   1      57.151  49.098  49.891  0.00  0.00     0.047 A 
ATOM      5  S   UNL d   1      56.717  49.682  49.492  0.00  0.00    -0.085 SA
ATOM      6  C   UNL d   1      56.211  49.309  48.960  0.00  0.00     0.035 A 
ATOM      7  C   UNL d   1      56.320  48.490  49.019  0.00  0.00     0.007 A 
ATOM      8  C   UNL d   1      56.906  48.354  49.598  0.00  0.00     0.009 A 
ENDBRANCH   3   4
BRANCH   3   9
ATOM      9  N   UNL d   1      57.486  49.361  51.258  0.00  0.00    -0.299 N 
ATOM     10  C   UNL d   1      58.027  49.293  51.867  0.00  0.00     0.107 A 
ATOM     11  C   UNL d   1      57.803  49.428  52.649  0.00  0.00     0.142 A 
ATOM     12  O   UNL d   1      57.016  49.638  52.829  0.00  0.00    -0.300 OA
ATOM     13  C   UNL d   1      56.467  49.707  52.206  0.00  0.00     0.142 A 
ATOM     14  C   UNL d   1      56.702  49.569  51.425  0.00  0.00     0.107 A 
ENDBRANCH   3   9
ENDBRANCH   1   3
BRANCH   1  15
ATOM     15  N   UNL d   1      59.088  49.226  50.876  0.00  0.00    -0.216 NA
BRANCH  15  16
ATOM     16  C   UNL d   1      59.892  49.310  50.683  0.00  0.00     0.221 C 
ATOM     17  S   UNL d   1      60.105  49.705  49.992  0.00  0.00    -0.037 SA
BRANCH  16  18
ATOM     18  N   UNL d   1      60.468  48.999  51.183  0.00  0.00    -0.217 NA
BRANCH  18  19
ATOM     19  C   UNL d   1      60.661  48.195  51.154  0.00  0.00     0.084 A 
ATOM     20  C   UNL d   1      60.903  47.856  50.434  0.00  0.00     0.021 A 
ATOM     21  C   UNL d   1      61.091  47.067  50.413  0.00  0.00     0.031 A 
ATOM     22  C   UNL d   1      61.044  46.599  51.094  0.00  0.00     0.140 A 
ATOM     23  C   UNL d   1      60.802  46.939  51.806  0.00  0.00     0.031 A 
ATOM     24  F   UNL d   1      61.238  45.791  51.059  0.00  0.00    -0.204 F 
ATOM     25  C   UNL d   1      60.612  47.736  51.833  0.00  0.00     0.021 A 
ENDBRANCH  18  19
ENDBRANCH  16  18
ENDBRANCH  15  16
ENDBRANCH   1  15
TORSDOF 7
ENDMDL
