MODEL 1
REMARK VINA RESULT:     -10.0      0.000      0.000
REMARK  7 active torsions:
REMARK  status: ('A' for Active; 'I' for Inactive)
REMARK    1  A    between atoms: C_5  and  C_1 
REMARK    2  A    between atoms: N_6  and  C_2 
REMARK    3  A    between atoms: C_7  and  C_5 
REMARK    4  A    between atoms: C_8  and  C_5 
REMARK       I    between atoms: N_13  and  C_7 
REMARK    5  A    between atoms: C_17  and  N_13 
REMARK    6  A    between atoms: C_23  and  C_17 
REMARK    7  A    between atoms: C_18  and  C_23 
ROOT
ATOM      1  C   UNL d   1      52.349  32.934  53.135  0.00  0.00     0.117 A 
ATOM      2  C   UNL d   1      52.930  33.059  53.706  0.00  0.00     0.145 A 
ATOM      3  N   UNL d   1      53.412  32.432  53.949  0.00  0.00    -0.230 NA
ATOM      4  N   UNL d   1      52.249  32.181  52.806  0.00  0.00    -0.241 NA
ATOM      5  C   UNL d   1      53.311  31.684  53.621  0.00  0.00     0.100 A 
ATOM      6  C   UNL d   1      52.729  31.559  53.049  0.00  0.00     0.099 A 
ATOM      7  C   UNL d   1      53.790  31.062  53.864  0.00  0.00     0.021 A 
ATOM      8  C   UNL d   1      52.628  30.811  52.721  0.00  0.00     0.021 A 
ATOM      9  C   UNL d   1      53.692  30.306  53.536  0.00  0.00     0.002 A 
ATOM     10  C   UNL d   1      53.110  30.180  52.964  0.00  0.00     0.002 A 
ENDROOT
BRANCH   1  11
ATOM     11  C   UNL d   1      51.965  33.649  53.008  0.00  0.00     0.099 C 
BRANCH  11  12
ATOM     12  C   UNL d   1      51.187  33.903  53.181  0.00  0.00     0.282 C 
ATOM     13  O   UNL d   1      50.858  33.758  53.932  0.00  0.00    -0.265 OA
ATOM     14  N   UNL d   1      50.746  34.298  52.600  0.00  0.00    -0.206 NA
BRANCH  14  15
ATOM     15  C   UNL d   1      49.971  34.549  52.775  0.00  0.00     0.102 C 
BRANCH  15  16
ATOM     16  C   UNL d   1      49.324  34.628  52.266  0.00  0.00     0.021 C 
BRANCH  16  17
ATOM     17  C   UNL d   1      48.737  35.181  52.424  0.00  0.00     0.002 A 
ATOM     18  C   UNL d   1      48.186  35.355  51.844  0.00  0.00     0.000 A 
ATOM     19  C   UNL d   1      47.595  35.912  52.004  0.00  0.00     0.000 A 
ATOM     20  C   UNL d   1      47.563  36.285  52.738  0.00  0.00     0.000 A 
ATOM     21  C   UNL d   1      48.127  36.096  53.312  0.00  0.00     0.000 A 
ATOM     22  C   UNL d   1      48.709  35.548  53.154  0.00  0.00     0.000 A 
ENDBRANCH  16  17
ENDBRANCH  15  16
ENDBRANCH  14  15
ENDBRANCH  11  12
BRANCH  11  23
ATOM     23  C   UNL d   1      52.389  34.248  52.649  0.00  0.00     0.129 C 
ATOM     24  N   UNL d   1      52.505  34.499  51.872  0.00  0.00    -0.146 N 
ENDBRANCH  11  23
ENDBRANCH   1  11
BRANCH   2  25
ATOM     25  N   UNL d   1      52.904  33.852  53.932  0.00  0.00    -0.188 NA
ATOM     26  C   UNL d   1      53.370  34.166  54.529  0.00  0.00     0.083 A 
ATOM     27  C   UNL d   1      52.953  35.179  54.409  0.00  0.00     0.136 A 
ATOM     28  O   UNL d   1      53.101  35.745  54.747  0.00  0.00    -0.301 OA
ATOM     29  C   UNL d   1      52.612  35.363  54.104  0.00  0.00     0.136 A 
ATOM     30  C   UNL d   1      53.017  34.428  54.237  0.00  0.00     0.083 A 
ENDBRANCH   2  25
TORSDOF 7
ENDMDL
MODEL 2
REMARK VINA RESULT:      -9.2      1.306      1.964
REMARK  7 active torsions:
REMARK  status: ('A' for Active; 'I' for Inactive)
REMARK    1  A    between atoms: C_5  and  C_1 
REMARK    2  A    between atoms: N_6  and  C_2 
REMARK    3  A    between atoms: C_7  and  C_5 
REMARK    4  A    between atoms: C_8  and  C_5 
REMARK       I    between atoms: N_13  and  C_7 
REMARK    5  A    between atoms: C_17  and  N_13 
REMARK    6  A    between atoms: C_23  and  C_17 
REMARK    7  A    between atoms: C_18  and  C_23 
ROOT
ATOM      1  C   UNL d   1      53.451  31.971  53.523  0.00  0.00     0.117 A 
ATOM      2  C   UNL d   1      53.689  31.833  54.301  0.00  0.00     0.145 A 
ATOM      3  N   UNL d   1      53.647  31.069  54.616  0.00  0.00    -0.230 NA
ATOM      4  N   UNL d   1      53.171  31.345  53.060  0.00  0.00    -0.241 NA
ATOM      5  C   UNL d   1      53.367  30.448  54.154  0.00  0.00     0.100 A 
ATOM      6  C   UNL d   1      53.129  30.586  53.376  0.00  0.00     0.099 A 
ATOM      7  C   UNL d   1      53.326  29.690  54.469  0.00  0.00     0.021 A 
ATOM      8  C   UNL d   1      52.850  29.966  52.913  0.00  0.00     0.021 A 
ATOM      9  C   UNL d   1      53.045  29.060  54.006  0.00  0.00     0.002 A 
ATOM     10  C   UNL d   1      52.807  29.198  53.228  0.00  0.00     0.002 A 
ENDROOT
BRANCH   1  11
ATOM     11  C   UNL d   1      53.555  32.771  53.369  0.00  0.00     0.099 C 
BRANCH  11  12
ATOM     12  C   UNL d   1      53.009  33.388  53.227  0.00  0.00     0.282 C 
ATOM     13  O   UNL d   1      53.278  34.169  53.127  0.00  0.00    -0.265 OA
ATOM     14  N   UNL d   1      52.199  33.216  53.188  0.00  0.00    -0.206 NA
BRANCH  14  15
ATOM     15  C   UNL d   1      51.656  33.833  53.047  0.00  0.00     0.102 C 
BRANCH  15  16
ATOM     16  C   UNL d   1      50.874  33.907  53.309  0.00  0.00     0.021 C 
BRANCH  16  17
ATOM     17  C   UNL d   1      50.305  34.246  52.823  0.00  0.00     0.002 A 
ATOM     18  C   UNL d   1      49.791  34.800  53.138  0.00  0.00     0.000 A 
ATOM     19  C   UNL d   1      49.217  35.141  52.649  0.00  0.00     0.000 A 
ATOM     20  C   UNL d   1      49.166  34.926  51.855  0.00  0.00     0.000 A 
ATOM     21  C   UNL d   1      49.694  34.365  51.554  0.00  0.00     0.000 A 
ATOM     22  C   UNL d   1      50.259  34.029  52.037  0.00  0.00     0.000 A 
ENDBRANCH  16  17
ENDBRANCH  15  16
ENDBRANCH  14  15
ENDBRANCH  11  12
BRANCH  11  23
ATOM     23  C   UNL d   1      54.321  33.054  53.340  0.00  0.00     0.129 C 
ATOM     24  N   UNL d   1      54.885  33.159  52.746  0.00  0.00    -0.146 N 
ENDBRANCH  11  23
ENDBRANCH   1  11
BRANCH   2  25
ATOM     25  N   UNL d   1      53.940  32.548  54.625  0.00  0.00    -0.188 NA
ATOM     26  C   UNL d   1      54.182  32.629  55.405  0.00  0.00     0.083 A 
ATOM     27  C   UNL d   1      54.388  33.706  55.295  0.00  0.00     0.136 A 
ATOM     28  O   UNL d   1      54.617  34.147  55.754  0.00  0.00    -0.301 OA
ATOM     29  C   UNL d   1      54.346  34.015  54.912  0.00  0.00     0.136 A 
ATOM     30  C   UNL d   1      54.162  33.012  55.041  0.00  0.00     0.083 A 
ENDBRANCH   2  25
TORSDOF 7
ENDMDL
MODEL 3
REMARK VINA RESULT:      -8.6      1.707      4.945
REMARK  7 active torsions:
REMARK  status: ('A' for Active; 'I' for Inactive)
REMARK    1  A    between atoms: C_5  and  C_1 
REMARK    2  A    between atoms: N_6  and  C_2 
REMARK    3  A    between atoms: C_7  and  C_5 
REMARK    4  A    between atoms: C_8  and  C_5 
REMARK       I    between atoms: N_13  and  C_7 
REMARK    5  A    between atoms: C_17  and  N_13 
REMARK    6  A    between atoms: C_23  and  C_17 
REMARK    7  A    between atoms: C_18  and  C_23 
ROOT
ATOM      1  C   UNL d   1      52.927  33.311  53.178  0.00  0.00     0.117 A 
ATOM      2  C   UNL d   1      52.783  33.759  53.856  0.00  0.00     0.145 A 
ATOM      3  N   UNL d   1      52.080  34.190  53.924  0.00  0.00    -0.230 NA
ATOM      4  N   UNL d   1      52.368  33.295  52.568  0.00  0.00    -0.241 NA
ATOM      5  C   UNL d   1      51.526  34.173  53.317  0.00  0.00     0.100 A 
ATOM      6  C   UNL d   1      51.670  33.725  52.638  0.00  0.00     0.099 A 
ATOM      7  C   UNL d   1      50.828  34.602  53.386  0.00  0.00     0.021 A 
ATOM      8  C   UNL d   1      51.116  33.708  52.030  0.00  0.00     0.021 A 
ATOM      9  C   UNL d   1      50.266  34.588  52.775  0.00  0.00     0.002 A 
ATOM     10  C   UNL d   1      50.410  34.140  52.097  0.00  0.00     0.002 A 
ENDROOT
BRANCH   1  11
ATOM     11  C   UNL d   1      53.659  32.949  53.269  0.00  0.00     0.099 C 
BRANCH  11  12
ATOM     12  C   UNL d   1      53.875  32.150  53.384  0.00  0.00     0.282 C 
ATOM     13  O   UNL d   1      54.679  31.933  53.395  0.00  0.00    -0.265 OA
ATOM     14  N   UNL d   1      53.286  31.577  53.487  0.00  0.00    -0.206 NA
BRANCH  14  15
ATOM     15  C   UNL d   1      53.505  30.780  53.602  0.00  0.00     0.102 C 
BRANCH  15  16
ATOM     16  C   UNL d   1      53.021  30.109  53.637  0.00  0.00     0.021 C 
BRANCH  16  17
ATOM     17  C   UNL d   1      53.183  29.509  54.174  0.00  0.00     0.002 A 
ATOM     18  C   UNL d   1      53.546  28.825  53.910  0.00  0.00     0.000 A 
ATOM     19  C   UNL d   1      53.709  28.220  54.452  0.00  0.00     0.000 A 
ATOM     20  C   UNL d   1      53.508  28.309  55.246  0.00  0.00     0.000 A 
ATOM     21  C   UNL d   1      53.142  29.007  55.494  0.00  0.00     0.000 A 
ATOM     22  C   UNL d   1      52.982  29.602  54.961  0.00  0.00     0.000 A 
ENDBRANCH  16  17
ENDBRANCH  15  16
ENDBRANCH  14  15
ENDBRANCH  11  12
BRANCH  11  23
ATOM     23  C   UNL d   1      54.322  33.426  53.247  0.00  0.00     0.129 C 
ATOM     24  N   UNL d   1      54.907  33.591  52.690  0.00  0.00    -0.146 N 
ENDBRANCH  11  23
ENDBRANCH   1  11
BRANCH   2  25
ATOM     25  N   UNL d   1      53.426  33.672  54.364  0.00  0.00    -0.188 NA
ATOM     26  C   UNL d   1      53.481  34.049  55.091  0.00  0.00     0.083 A 
ATOM     27  C   UNL d   1      54.465  33.607  55.317  0.00  0.00     0.136 A 
ATOM     28  O   UNL d   1      54.854  33.688  55.863  0.00  0.00    -0.301 OA
ATOM     29  C   UNL d   1      54.755  33.297  55.066  0.00  0.00     0.136 A 
ATOM     30  C   UNL d   1      53.838  33.723  54.879  0.00  0.00     0.083 A 
ENDBRANCH   2  25
TORSDOF 7
ENDMDL
