MODEL 1
REMARK VINA RESULT:       4.0      0.000      0.000
REMARK  5 active torsions:
REMARK  status: ('A' for Active; 'I' for Inactive)
REMARK    1  A    between atoms: C_3  and  C_1 
REMARK       I    between atoms: N_4  and  C_1 
REMARK    2  A    between atoms: C_9  and  N_4 
REMARK    3  A    between atoms: C_5  and  O_6 
REMARK    4  A    between atoms: O_6  and  C_10 
REMARK    5  A    between atoms: C_10  and  C_9 
ROOT
ATOM      1  C   UNL d   1      46.370 -18.446  43.917  0.00  0.00     0.279 C 
ATOM      2  O   UNL d   1      46.466 -18.720  44.689  0.00  0.00    -0.265 OA
ATOM      3  N   UNL d   1      46.215 -17.647  43.780  0.00  0.00    -0.204 NA
ENDROOT
BRANCH   3   4
ATOM      4  C   UNL d   1      46.156 -17.122  44.414  0.00  0.00     0.129 C 
BRANCH   4   5
ATOM      5  C   UNL d   1      45.818 -16.377  44.305  0.00  0.00     0.143 C 
BRANCH   5   6
ATOM      6  O   UNL d   1      45.752 -15.855  44.941  0.00  0.00    -0.303 OA
BRANCH   6   7
ATOM      7  C   UNL d   1      45.570 -15.049  44.813  0.00  0.00     0.100 A 
ATOM      8  C   UNL d   1      46.181 -14.512  44.674  0.00  0.00     0.025 A 
ATOM      9  C   UNL d   1      46.014 -13.721  44.547  0.00  0.00     0.002 A 
ATOM     10  C   UNL d   1      45.233 -13.465  44.558  0.00  0.00     0.000 A 
ATOM     11  C   UNL d   1      44.622 -14.002  44.696  0.00  0.00     0.002 A 
ATOM     12  C   UNL d   1      44.793 -14.796  44.824  0.00  0.00     0.025 A 
ENDBRANCH   6   7
ENDBRANCH   5   6
ENDBRANCH   4   5
ENDBRANCH   3   4
BRANCH   1  13
ATOM     13  C   UNL d   1      46.428 -18.966  43.284  0.00  0.00     0.058 A 
ATOM     14  C   UNL d   1      46.326 -19.768  43.409  0.00  0.00     0.005 A 
ATOM     15  C   UNL d   1      46.385 -20.292  42.775  0.00  0.00     0.000 A 
ATOM     16  C   UNL d   1      46.544 -20.007  42.018  0.00  0.00     0.000 A 
ATOM     17  C   UNL d   1      46.646 -19.197  41.895  0.00  0.00     0.000 A 
ATOM     18  C   UNL d   1      46.588 -18.681  42.527  0.00  0.00     0.005 A 
ENDBRANCH   1  13
TORSDOF 5
ENDMDL
MODEL 2
REMARK VINA RESULT:       5.3      1.018      5.046
REMARK  5 active torsions:
REMARK  status: ('A' for Active; 'I' for Inactive)
REMARK    1  A    between atoms: C_3  and  C_1 
REMARK       I    between atoms: N_4  and  C_1 
REMARK    2  A    between atoms: C_9  and  N_4 
REMARK    3  A    between atoms: C_5  and  O_6 
REMARK    4  A    between atoms: O_6  and  C_10 
REMARK    5  A    between atoms: C_10  and  C_9 
ROOT
ATOM      1  C   UNL d   1      45.231 -14.717  44.544  0.00  0.00     0.279 C 
ATOM      2  O   UNL d   1      44.432 -14.910  44.617  0.00  0.00    -0.265 OA
ATOM      3  N   UNL d   1      45.804 -15.311  44.581  0.00  0.00    -0.204 NA
ENDROOT
BRANCH   3   4
ATOM      4  C   UNL d   1      45.578 -16.097  44.691  0.00  0.00     0.129 C 
BRANCH   4   5
ATOM      5  C   UNL d   1      45.933 -16.695  44.247  0.00  0.00     0.143 C 
BRANCH   5   6
ATOM      6  O   UNL d   1      46.079 -17.432  44.588  0.00  0.00    -0.303 OA
BRANCH   6   7
ATOM      7  C   UNL d   1      46.269 -18.092  44.110  0.00  0.00     0.100 A 
ATOM      8  C   UNL d   1      46.274 -18.010  43.289  0.00  0.00     0.025 A 
ATOM      9  C   UNL d   1      46.459 -18.648  42.812  0.00  0.00     0.002 A 
ATOM     10  C   UNL d   1      46.640 -19.373  43.156  0.00  0.00     0.000 A 
ATOM     11  C   UNL d   1      46.635 -19.454  43.977  0.00  0.00     0.002 A 
ATOM     12  C   UNL d   1      46.449 -18.811  44.454  0.00  0.00     0.025 A 
ENDBRANCH   6   7
ENDBRANCH   5   6
ENDBRANCH   4   5
ENDBRANCH   3   4
BRANCH   1  13
ATOM     13  C   UNL d   1      45.458 -13.935  44.434  0.00  0.00     0.058 A 
ATOM     14  C   UNL d   1      45.985 -13.590  44.954  0.00  0.00     0.005 A 
ATOM     15  C   UNL d   1      46.214 -12.805  44.845  0.00  0.00     0.000 A 
ATOM     16  C   UNL d   1      45.909 -12.371  44.213  0.00  0.00     0.000 A 
ATOM     17  C   UNL d   1      45.376 -12.722  43.690  0.00  0.00     0.000 A 
ATOM     18  C   UNL d   1      45.153 -13.501  43.802  0.00  0.00     0.005 A 
ENDBRANCH   1  13
TORSDOF 5
ENDMDL
