MODEL 1
REMARK VINA RESULT:      71.1      0.000      0.000
REMARK  3 active torsions:
REMARK  status: ('A' for Active; 'I' for Inactive)
REMARK    1  A    between atoms: C_7  and  N_1 
REMARK    2  A    between atoms: C_6  and  C_2 
REMARK    3  A    between atoms: O_19  and  C_9 
ROOT
ATOM      1  N   UNL d   1     -58.233 -98.864 -44.574  0.00  0.00    -0.259 N 
ATOM      2  C   UNL d   1     -57.411 -98.828 -44.676  0.00  0.00     0.137 A 
ATOM      3  C   UNL d   1     -58.594 -98.873 -45.299  0.00  0.00     0.282 A 
ATOM      4  N   UNL d   1     -57.270 -98.814 -45.500  0.00  0.00    -0.287 N 
ATOM      5  C   UNL d   1     -58.010 -98.842 -45.888  0.00  0.00     0.122 A 
ATOM      6  O   UNL d   1     -59.410 -98.907 -45.451  0.00  0.00    -0.265 OA
ATOM      7  C   UNL d   1     -56.684 -98.784 -46.080  0.00  0.00     0.082 A 
ATOM      8  C   UNL d   1     -57.859 -98.828 -46.701  0.00  0.00     0.024 A 
ATOM      9  C   UNL d   1     -57.049 -98.792 -46.823  0.00  0.00     0.021 A 
ENDROOT
BRANCH   2  10
ATOM     10  C   UNL d   1     -56.831 -98.808 -44.089  0.00  0.00     0.056 A 
ATOM     11  C   UNL d   1     -56.042 -98.809 -44.288  0.00  0.00     0.097 A 
ATOM     12  C   UNL d   1     -55.460 -98.790 -43.709  0.00  0.00     0.024 A 
ATOM     13  C   UNL d   1     -55.686 -98.769 -42.914  0.00  0.00     0.002 A 
ATOM     14  C   UNL d   1     -56.475 -98.768 -42.714  0.00  0.00     0.000 A 
ATOM     15  C   UNL d   1     -57.063 -98.787 -43.304  0.00  0.00     0.005 A 
BRANCH  11  16
ATOM     16  O   UNL d   1     -55.823 -98.831 -45.090  0.00  0.00    -0.328 OA
ATOM     17  C   UNL d   1     -55.035 -99.038 -45.306  0.00  0.00     0.181 C 
ENDBRANCH  11  16
ENDBRANCH   2  10
BRANCH   1  18
ATOM     18  C   UNL d   1     -58.614 -98.887 -43.844  0.00  0.00     0.068 A 
ATOM     19  C   UNL d   1     -59.427 -98.792 -43.807  0.00  0.00     0.018 A 
ATOM     20  C   UNL d   1     -59.815 -98.814 -43.079  0.00  0.00     0.013 A 
ATOM     21  C   UNL d   1     -59.378 -98.933 -42.385  0.00  0.00     0.058 A 
ATOM     22  C   UNL d   1     -58.560 -99.028 -42.421  0.00  0.00     0.013 A 
ATOM     23 CL   UNL d   1     -59.767 -98.954 -41.658  0.00  0.00    -0.082 Cl
ATOM     24  C   UNL d   1     -58.176 -99.005 -43.149  0.00  0.00     0.018 A 
ENDBRANCH   1  18
TORSDOF 3
ENDMDL
