MODEL 1
REMARK VINA RESULT:      -4.2      0.000      0.000
REMARK  8 active torsions:
REMARK  status: ('A' for Active; 'I' for Inactive)
REMARK    1  A    between atoms: C_5  and  C_1 
REMARK       I    between atoms: C_2  and  N_4 
REMARK    2  A    between atoms: C_7  and  C_2 
REMARK    3  A    between atoms: N_4  and  C_3 
REMARK    4  A    between atoms: N_6  and  C_5 
REMARK    5  A    between atoms: C_13  and  C_5 
REMARK    6  A    between atoms: C_15  and  N_6 
REMARK    7  A    between atoms: C_9  and  C_15 
REMARK    8  A    between atoms: O_19  and  C_9 
ROOT
ATOM      1  C   UNL d   1      53.312  32.126  53.852  0.00  0.00     0.035 A 
ATOM      2  C   UNL d   1      52.595  32.062  53.429  0.00  0.00     0.086 A 
ATOM      3  C   UNL d   1      53.680  31.441  54.130  0.00  0.00     0.003 A 
ATOM      4  C   UNL d   1      52.257  31.315  53.290  0.00  0.00     0.019 A 
ATOM      5  C   UNL d   1      53.341  30.694  53.992  0.00  0.00     0.000 A 
ATOM      6  C   UNL d   1      52.637  30.634  53.576  0.00  0.00     0.002 A 
ATOM      7  C   UNL d   1      53.717  30.016  54.275  0.00  0.00     0.000 C 
ENDROOT
BRANCH   1   8
ATOM      8  C   UNL d   1      53.646  32.864  53.988  0.00  0.00     0.083 C 
BRANCH   8   9
ATOM      9  N   UNL d   1      53.219  33.449  54.395  0.00  0.00    -0.238 NA
BRANCH   9  10
ATOM     10  C   UNL d   1      53.623  34.023  54.822  0.00  0.00     0.167 C 
BRANCH  10  11
ATOM     11  C   UNL d   1      53.224  34.687  55.104  0.00  0.00     0.315 C 
ATOM     12  O   UNL d   1      52.888  34.692  55.866  0.00  0.00    -0.257 OA
BRANCH  11  13
ATOM     13  O   UNL d   1      53.150  35.367  54.626  0.00  0.00    -0.295 OA
ATOM     14  C   UNL d   1      52.831  36.085  55.008  0.00  0.00     0.185 C 
ENDBRANCH  11  13
ENDBRANCH  10  11
ENDBRANCH   9  10
ENDBRANCH   8   9
BRANCH   8  15
ATOM     15  C   UNL d   1      54.405  33.025  53.723  0.00  0.00     0.018 A 
ATOM     16  C   UNL d   1      54.546  33.168  52.922  0.00  0.00     0.002 A 
ATOM     17  C   UNL d   1      55.298  33.328  52.656  0.00  0.00     0.000 A 
ATOM     18  C   UNL d   1      55.939  33.348  53.194  0.00  0.00     0.000 A 
ATOM     19  C   UNL d   1      55.802  33.206  53.991  0.00  0.00     0.000 A 
ATOM     20  C   UNL d   1      55.039  33.044  54.262  0.00  0.00     0.002 A 
ENDBRANCH   8  15
ENDBRANCH   1   8
BRANCH   2  21
ATOM     21  N   UNL d   1      52.231  32.745  53.152  0.00  0.00    -0.208 NA
ATOM     22  C   UNL d   1      51.436  32.714  52.883  0.00  0.00     0.279 C 
ATOM     23  O   UNL d   1      51.027  31.995  52.899  0.00  0.00    -0.265 OA
BRANCH  22  24
ATOM     24  C   UNL d   1      51.067  33.399  52.604  0.00  0.00     0.059 A 
ATOM     25  C   UNL d   1      50.481  33.762  53.057  0.00  0.00     0.016 A 
ATOM     26  C   UNL d   1      50.113  34.446  52.779  0.00  0.00     0.058 A 
ATOM     27 CL   UNL d   1      49.531  34.800  53.239  0.00  0.00    -0.082 Cl
ATOM     28  C   UNL d   1      50.329  34.766  52.052  0.00  0.00     0.011 A 
ATOM     29  C   UNL d   1      50.914  34.402  51.600  0.00  0.00     0.001 A 
ATOM     30  C   UNL d   1      51.283  33.717  51.878  0.00  0.00     0.005 A 
ENDBRANCH  22  24
ENDBRANCH   2  21
TORSDOF 8
ENDMDL
MODEL 2
REMARK VINA RESULT:      -2.8      1.822      3.778
REMARK  8 active torsions:
REMARK  status: ('A' for Active; 'I' for Inactive)
REMARK    1  A    between atoms: C_5  and  C_1 
REMARK       I    between atoms: C_2  and  N_4 
REMARK    2  A    between atoms: C_7  and  C_2 
REMARK    3  A    between atoms: N_4  and  C_3 
REMARK    4  A    between atoms: N_6  and  C_5 
REMARK    5  A    between atoms: C_13  and  C_5 
REMARK    6  A    between atoms: C_15  and  N_6 
REMARK    7  A    between atoms: C_9  and  C_15 
REMARK    8  A    between atoms: O_19  and  C_9 
ROOT
ATOM      1  C   UNL d   1      54.146  32.993  53.456  0.00  0.00     0.035 A 
ATOM      2  C   UNL d   1      54.310  32.184  53.330  0.00  0.00     0.086 A 
ATOM      3  C   UNL d   1      54.691  33.560  53.205  0.00  0.00     0.003 A 
ATOM      4  C   UNL d   1      55.016  31.954  52.955  0.00  0.00     0.019 A 
ATOM      5  C   UNL d   1      55.397  33.330  52.829  0.00  0.00     0.000 A 
ATOM      6  C   UNL d   1      55.555  32.535  52.707  0.00  0.00     0.002 A 
ATOM      7  C   UNL d   1      55.935  33.906  52.582  0.00  0.00     0.000 C 
ENDROOT
BRANCH   1   8
ATOM      8  C   UNL d   1      53.449  33.220  53.827  0.00  0.00     0.083 C 
BRANCH   8   9
ATOM      9  N   UNL d   1      52.714  33.048  53.480  0.00  0.00    -0.238 NA
BRANCH   9  10
ATOM     10  C   UNL d   1      52.264  33.656  53.158  0.00  0.00     0.167 C 
BRANCH  10  11
ATOM     11  C   UNL d   1      51.538  33.492  52.805  0.00  0.00     0.315 C 
ATOM     12  O   UNL d   1      50.943  33.087  53.220  0.00  0.00    -0.257 OA
BRANCH  11  13
ATOM     13  O   UNL d   1      51.390  33.733  52.019  0.00  0.00    -0.295 OA
ATOM     14  C   UNL d   1      50.635  34.144  51.868  0.00  0.00     0.185 C 
ENDBRANCH  11  13
ENDBRANCH  10  11
ENDBRANCH   9  10
ENDBRANCH   8   9
BRANCH   8  15
ATOM     15  C   UNL d   1      53.477  33.619  54.543  0.00  0.00     0.018 A 
ATOM     16  C   UNL d   1      53.683  33.219  55.236  0.00  0.00     0.002 A 
ATOM     17  C   UNL d   1      53.712  33.613  55.948  0.00  0.00     0.000 A 
ATOM     18  C   UNL d   1      53.533  34.430  55.983  0.00  0.00     0.000 A 
ATOM     19  C   UNL d   1      53.328  34.829  55.296  0.00  0.00     0.000 A 
ATOM     20  C   UNL d   1      53.298  34.431  54.574  0.00  0.00     0.002 A 
ENDBRANCH   8  15
ENDBRANCH   1   8
BRANCH   2  21
ATOM     21  N   UNL d   1      53.766  31.621  53.581  0.00  0.00    -0.208 NA
ATOM     22  C   UNL d   1      53.899  30.809  53.415  0.00  0.00     0.279 C 
ATOM     23  O   UNL d   1      54.578  30.584  52.999  0.00  0.00    -0.265 OA
BRANCH  22  24
ATOM     24  C   UNL d   1      53.354  30.241  53.666  0.00  0.00     0.059 A 
ATOM     25  C   UNL d   1      53.518  29.783  54.332  0.00  0.00     0.016 A 
ATOM     26  C   UNL d   1      52.973  29.215  54.583  0.00  0.00     0.058 A 
ATOM     27 CL   UNL d   1      53.147  28.764  55.248  0.00  0.00    -0.082 Cl
ATOM     28  C   UNL d   1      52.270  29.107  54.171  0.00  0.00     0.011 A 
ATOM     29  C   UNL d   1      52.107  29.565  53.505  0.00  0.00     0.001 A 
ATOM     30  C   UNL d   1      52.651  30.133  53.254  0.00  0.00     0.005 A 
ENDBRANCH  22  24
ENDBRANCH   2  21
TORSDOF 8
ENDMDL
MODEL 3
REMARK VINA RESULT:      -2.6      1.042      2.800
REMARK  8 active torsions:
REMARK  status: ('A' for Active; 'I' for Inactive)
REMARK    1  A    between atoms: C_5  and  C_1 
REMARK       I    between atoms: C_2  and  N_4 
REMARK    2  A    between atoms: C_7  and  C_2 
REMARK    3  A    between atoms: N_4  and  C_3 
REMARK    4  A    between atoms: N_6  and  C_5 
REMARK    5  A    between atoms: C_13  and  C_5 
REMARK    6  A    between atoms: C_15  and  N_6 
REMARK    7  A    between atoms: C_9  and  C_15 
REMARK    8  A    between atoms: O_19  and  C_9 
ROOT
ATOM      1  C   UNL d   1      53.660  33.466  54.389  0.00  0.00     0.035 A 
ATOM      2  C   UNL d   1      52.995  33.964  54.313  0.00  0.00     0.086 A 
ATOM      3  C   UNL d   1      54.147  33.541  55.051  0.00  0.00     0.003 A 
ATOM      4  C   UNL d   1      52.826  34.529  54.900  0.00  0.00     0.019 A 
ATOM      5  C   UNL d   1      53.979  34.106  55.638  0.00  0.00     0.000 A 
ATOM      6  C   UNL d   1      53.324  34.594  55.560  0.00  0.00     0.002 A 
ATOM      7  C   UNL d   1      54.473  34.172  56.296  0.00  0.00     0.000 C 
ENDROOT
BRANCH   1   8
ATOM      8  C   UNL d   1      53.827  32.908  53.809  0.00  0.00     0.083 C 
BRANCH   8   9
ATOM      9  N   UNL d   1      53.288  32.297  53.649  0.00  0.00    -0.238 NA
BRANCH   9  10
ATOM     10  C   UNL d   1      53.528  31.514  53.719  0.00  0.00     0.167 C 
BRANCH  10  11
ATOM     11  C   UNL d   1      53.006  30.902  53.540  0.00  0.00     0.315 C 
ATOM     12  O   UNL d   1      52.543  30.925  52.850  0.00  0.00    -0.257 OA
BRANCH  11  13
ATOM     13  O   UNL d   1      52.936  30.247  54.053  0.00  0.00    -0.295 OA
ATOM     14  C   UNL d   1      53.049  29.456  53.701  0.00  0.00     0.185 C 
ENDBRANCH  11  13
ENDBRANCH  10  11
ENDBRANCH   9  10
ENDBRANCH   8   9
BRANCH   8  15
ATOM     15  C   UNL d   1      54.528  32.954  53.387  0.00  0.00     0.018 A 
ATOM     16  C   UNL d   1      55.221  32.623  53.690  0.00  0.00     0.002 A 
ATOM     17  C   UNL d   1      55.918  32.668  53.272  0.00  0.00     0.000 A 
ATOM     18  C   UNL d   1      55.938  33.051  52.528  0.00  0.00     0.000 A 
ATOM     19  C   UNL d   1      55.250  33.380  52.224  0.00  0.00     0.000 A 
ATOM     20  C   UNL d   1      54.543  33.336  52.647  0.00  0.00     0.002 A 
ENDBRANCH   8  15
ENDBRANCH   1   8
BRANCH   2  21
ATOM     21  N   UNL d   1      52.511  33.888  53.653  0.00  0.00    -0.208 NA
ATOM     22  C   UNL d   1      51.922  34.467  53.498  0.00  0.00     0.279 C 
ATOM     23  O   UNL d   1      51.835  35.108  54.013  0.00  0.00    -0.265 OA
BRANCH  22  24
ATOM     24  C   UNL d   1      51.434  34.393  52.835  0.00  0.00     0.059 A 
ATOM     25  C   UNL d   1      50.619  34.317  52.933  0.00  0.00     0.016 A 
ATOM     26  C   UNL d   1      50.131  34.243  52.271  0.00  0.00     0.058 A 
ATOM     27 CL   UNL d   1      49.320  34.168  52.381  0.00  0.00    -0.082 Cl
ATOM     28  C   UNL d   1      50.457  34.245  51.516  0.00  0.00     0.011 A 
ATOM     29  C   UNL d   1      51.272  34.321  51.419  0.00  0.00     0.001 A 
ATOM     30  C   UNL d   1      51.760  34.395  52.081  0.00  0.00     0.005 A 
ENDBRANCH  22  24
ENDBRANCH   2  21
TORSDOF 8
ENDMDL
MODEL 4
REMARK VINA RESULT:      -2.4      1.681      3.707
REMARK  8 active torsions:
REMARK  status: ('A' for Active; 'I' for Inactive)
REMARK    1  A    between atoms: C_5  and  C_1 
REMARK       I    between atoms: C_2  and  N_4 
REMARK    2  A    between atoms: C_7  and  C_2 
REMARK    3  A    between atoms: N_4  and  C_3 
REMARK    4  A    between atoms: N_6  and  C_5 
REMARK    5  A    between atoms: C_13  and  C_5 
REMARK    6  A    between atoms: C_15  and  N_6 
REMARK    7  A    between atoms: C_9  and  C_15 
REMARK    8  A    between atoms: O_19  and  C_9 
ROOT
ATOM      1  C   UNL d   1      52.175  33.593  53.161  0.00  0.00     0.035 A 
ATOM      2  C   UNL d   1      51.939  32.805  53.020  0.00  0.00     0.086 A 
ATOM      3  C   UNL d   1      51.686  34.211  52.915  0.00  0.00     0.003 A 
ATOM      4  C   UNL d   1      51.219  32.646  52.635  0.00  0.00     0.019 A 
ATOM      5  C   UNL d   1      50.966  34.053  52.530  0.00  0.00     0.000 A 
ATOM      6  C   UNL d   1      50.737  33.277  52.393  0.00  0.00     0.002 A 
ATOM      7  C   UNL d   1      50.485  34.679  52.288  0.00  0.00     0.000 C 
ENDROOT
BRANCH   1   8
ATOM      8  C   UNL d   1      52.887  33.750  53.541  0.00  0.00     0.083 C 
BRANCH   8   9
ATOM      9  N   UNL d   1      53.576  33.339  53.325  0.00  0.00    -0.238 NA
BRANCH   9  10
ATOM     10  C   UNL d   1      54.308  33.703  53.407  0.00  0.00     0.167 C 
BRANCH  10  11
ATOM     11  C   UNL d   1      55.000  33.269  53.304  0.00  0.00     0.315 C 
ATOM     12  O   UNL d   1      55.333  33.169  52.547  0.00  0.00    -0.257 OA
BRANCH  11  13
ATOM     13  O   UNL d   1      55.381  32.922  53.961  0.00  0.00    -0.295 OA
ATOM     14  C   UNL d   1      55.939  33.425  54.405  0.00  0.00     0.185 C 
ENDBRANCH  11  13
ENDBRANCH  10  11
ENDBRANCH   9  10
ENDBRANCH   8   9
BRANCH   8  15
ATOM     15  C   UNL d   1      52.918  34.314  54.135  0.00  0.00     0.018 A 
ATOM     16  C   UNL d   1      52.894  34.087  54.928  0.00  0.00     0.002 A 
ATOM     17  C   UNL d   1      52.924  34.645  55.520  0.00  0.00     0.000 A 
ATOM     18  C   UNL d   1      52.980  35.458  55.327  0.00  0.00     0.000 A 
ATOM     19  C   UNL d   1      53.004  35.687  54.539  0.00  0.00     0.000 A 
ATOM     20  C   UNL d   1      52.973  35.121  53.939  0.00  0.00     0.002 A 
ENDBRANCH   8  15
ENDBRANCH   1   8
BRANCH   2  21
ATOM     21  N   UNL d   1      52.427  32.191  53.266  0.00  0.00    -0.208 NA
ATOM     22  C   UNL d   1      52.160  31.396  53.207  0.00  0.00     0.279 C 
ATOM     23  O   UNL d   1      51.407  31.241  52.902  0.00  0.00    -0.265 OA
BRANCH  22  24
ATOM     24  C   UNL d   1      52.648  30.777  53.454  0.00  0.00     0.059 A 
ATOM     25  C   UNL d   1      52.643  30.541  54.244  0.00  0.00     0.016 A 
ATOM     26  C   UNL d   1      53.131  29.922  54.491  0.00  0.00     0.058 A 
ATOM     27 CL   UNL d   1      53.118  29.695  55.280  0.00  0.00    -0.082 Cl
ATOM     28  C   UNL d   1      53.621  29.542  53.949  0.00  0.00     0.011 A 
ATOM     29  C   UNL d   1      53.626  29.779  53.160  0.00  0.00     0.001 A 
ATOM     30  C   UNL d   1      53.138  30.398  52.913  0.00  0.00     0.005 A 
ENDBRANCH  22  24
ENDBRANCH   2  21
TORSDOF 8
ENDMDL
MODEL 5
REMARK VINA RESULT:      -1.9      1.938      3.544
REMARK  8 active torsions:
REMARK  status: ('A' for Active; 'I' for Inactive)
REMARK    1  A    between atoms: C_5  and  C_1 
REMARK       I    between atoms: C_2  and  N_4 
REMARK    2  A    between atoms: C_7  and  C_2 
REMARK    3  A    between atoms: N_4  and  C_3 
REMARK    4  A    between atoms: N_6  and  C_5 
REMARK    5  A    between atoms: C_13  and  C_5 
REMARK    6  A    between atoms: C_15  and  N_6 
REMARK    7  A    between atoms: C_9  and  C_15 
REMARK    8  A    between atoms: O_19  and  C_9 
ROOT
ATOM      1  C   UNL d   1      53.317  33.523  54.444  0.00  0.00     0.035 A 
ATOM      2  C   UNL d   1      53.594  32.739  54.517  0.00  0.00     0.086 A 
ATOM      3  C   UNL d   1      53.586  34.098  54.971  0.00  0.00     0.003 A 
ATOM      4  C   UNL d   1      54.135  32.542  55.118  0.00  0.00     0.019 A 
ATOM      5  C   UNL d   1      54.127  33.901  55.572  0.00  0.00     0.000 A 
ATOM      6  C   UNL d   1      54.397  33.129  55.642  0.00  0.00     0.002 A 
ATOM      7  C   UNL d   1      54.389  34.484  56.094  0.00  0.00     0.000 C 
ENDROOT
BRANCH   1   8
ATOM      8  C   UNL d   1      52.783  33.718  53.850  0.00  0.00     0.083 C 
BRANCH   8   9
ATOM      9  N   UNL d   1      52.014  33.405  53.859  0.00  0.00    -0.238 NA
BRANCH   9  10
ATOM     10  C   UNL d   1      51.368  33.912  53.837  0.00  0.00     0.167 C 
BRANCH  10  11
ATOM     11  C   UNL d   1      50.626  33.629  53.617  0.00  0.00     0.315 C 
ATOM     12  O   UNL d   1      50.508  32.822  53.452  0.00  0.00    -0.257 OA
BRANCH  11  13
ATOM     13  O   UNL d   1      49.978  34.153  53.558  0.00  0.00    -0.295 OA
ATOM     14  C   UNL d   1      49.661  34.298  52.757  0.00  0.00     0.185 C 
ENDBRANCH  11  13
ENDBRANCH  10  11
ENDBRANCH   9  10
ENDBRANCH   8   9
BRANCH   8  15
ATOM     15  C   UNL d   1      53.009  34.225  53.246  0.00  0.00     0.018 A 
ATOM     16  C   UNL d   1      53.128  35.028  53.397  0.00  0.00     0.002 A 
ATOM     17  C   UNL d   1      53.353  35.533  52.799  0.00  0.00     0.000 A 
ATOM     18  C   UNL d   1      53.465  35.240  52.023  0.00  0.00     0.000 A 
ATOM     19  C   UNL d   1      53.348  34.442  51.871  0.00  0.00     0.000 A 
ATOM     20  C   UNL d   1      53.120  33.929  52.477  0.00  0.00     0.002 A 
ENDBRANCH   8  15
ENDBRANCH   1   8
BRANCH   2  21
ATOM     21  N   UNL d   1      53.325  32.168  53.991  0.00  0.00    -0.208 NA
ATOM     22  C   UNL d   1      53.573  31.370  54.078  0.00  0.00     0.279 C 
ATOM     23  O   UNL d   1      54.086  31.167  54.695  0.00  0.00    -0.265 OA
BRANCH  22  24
ATOM     24  C   UNL d   1      53.304  30.794  53.550  0.00  0.00     0.059 A 
ATOM     25  C   UNL d   1      52.709  30.272  53.782  0.00  0.00     0.016 A 
ATOM     26  C   UNL d   1      52.440  29.696  53.255  0.00  0.00     0.058 A 
ATOM     27 CL   UNL d   1      51.846  29.182  53.496  0.00  0.00    -0.082 Cl
ATOM     28  C   UNL d   1      52.765  29.643  52.500  0.00  0.00     0.011 A 
ATOM     29  C   UNL d   1      53.360  30.165  52.270  0.00  0.00     0.001 A 
ATOM     30  C   UNL d   1      53.629  30.741  52.797  0.00  0.00     0.005 A 
ENDBRANCH  22  24
ENDBRANCH   2  21
TORSDOF 8
ENDMDL
MODEL 6
REMARK VINA RESULT:      -1.7      1.559      3.595
REMARK  8 active torsions:
REMARK  status: ('A' for Active; 'I' for Inactive)
REMARK    1  A    between atoms: C_5  and  C_1 
REMARK       I    between atoms: C_2  and  N_4 
REMARK    2  A    between atoms: C_7  and  C_2 
REMARK    3  A    between atoms: N_4  and  C_3 
REMARK    4  A    between atoms: N_6  and  C_5 
REMARK    5  A    between atoms: C_13  and  C_5 
REMARK    6  A    between atoms: C_15  and  N_6 
REMARK    7  A    between atoms: C_9  and  C_15 
REMARK    8  A    between atoms: O_19  and  C_9 
ROOT
ATOM      1  C   UNL d   1      51.827  32.613  53.369  0.00  0.00     0.035 A 
ATOM      2  C   UNL d   1      52.571  32.262  53.508  0.00  0.00     0.086 A 
ATOM      3  C   UNL d   1      51.165  32.131  53.266  0.00  0.00     0.003 A 
ATOM      4  C   UNL d   1      52.642  31.434  53.541  0.00  0.00     0.019 A 
ATOM      5  C   UNL d   1      51.236  31.303  53.299  0.00  0.00     0.000 A 
ATOM      6  C   UNL d   1      51.969  30.961  53.436  0.00  0.00     0.002 A 
ATOM      7  C   UNL d   1      50.567  30.830  53.195  0.00  0.00     0.000 C 
ENDROOT
BRANCH   1   8
ATOM      8  C   UNL d   1      51.756  33.432  53.336  0.00  0.00     0.083 C 
BRANCH   8   9
ATOM      9  N   UNL d   1      52.103  33.906  53.923  0.00  0.00    -0.238 NA
BRANCH   9  10
ATOM     10  C   UNL d   1      51.829  34.672  54.040  0.00  0.00     0.167 C 
BRANCH  10  11
ATOM     11  C   UNL d   1      52.227  35.181  54.551  0.00  0.00     0.315 C 
ATOM     12  O   UNL d   1      52.219  35.054  55.373  0.00  0.00    -0.257 OA
BRANCH  11  13
ATOM     13  O   UNL d   1      52.648  35.836  54.248  0.00  0.00    -0.295 OA
ATOM     14  C   UNL d   1      52.990  36.389  54.831  0.00  0.00     0.185 C 
ENDBRANCH  11  13
ENDBRANCH  10  11
ENDBRANCH   9  10
ENDBRANCH   8   9
BRANCH   8  15
ATOM     15  C   UNL d   1      51.342  33.782  52.721  0.00  0.00     0.018 A 
ATOM     16  C   UNL d   1      51.729  33.990  52.022  0.00  0.00     0.002 A 
ATOM     17  C   UNL d   1      51.319  34.338  51.410  0.00  0.00     0.000 A 
ATOM     18  C   UNL d   1      50.499  34.488  51.486  0.00  0.00     0.000 A 
ATOM     19  C   UNL d   1      50.112  34.282  52.180  0.00  0.00     0.000 A 
ATOM     20  C   UNL d   1      50.527  33.929  52.801  0.00  0.00     0.002 A 
ENDBRANCH   8  15
ENDBRANCH   1   8
BRANCH   2  21
ATOM     21  N   UNL d   1      53.229  32.744  53.610  0.00  0.00    -0.208 NA
ATOM     22  C   UNL d   1      53.955  32.410  53.870  0.00  0.00     0.279 C 
ATOM     23  O   UNL d   1      53.999  31.598  54.020  0.00  0.00    -0.265 OA
BRANCH  22  24
ATOM     24  C   UNL d   1      54.618  32.892  53.974  0.00  0.00     0.059 A 
ATOM     25  C   UNL d   1      54.796  33.187  54.723  0.00  0.00     0.016 A 
ATOM     26  C   UNL d   1      55.458  33.669  54.827  0.00  0.00     0.058 A 
ATOM     27 CL   UNL d   1      55.627  33.957  55.578  0.00  0.00    -0.082 Cl
ATOM     28  C   UNL d   1      55.939  33.855  54.185  0.00  0.00     0.011 A 
ATOM     29  C   UNL d   1      55.760  33.559  53.437  0.00  0.00     0.001 A 
ATOM     30  C   UNL d   1      55.098  33.077  53.332  0.00  0.00     0.005 A 
ENDBRANCH  22  24
ENDBRANCH   2  21
TORSDOF 8
ENDMDL
MODEL 7
REMARK VINA RESULT:      -1.3      1.798      3.426
REMARK  8 active torsions:
REMARK  status: ('A' for Active; 'I' for Inactive)
REMARK    1  A    between atoms: C_5  and  C_1 
REMARK       I    between atoms: C_2  and  N_4 
REMARK    2  A    between atoms: C_7  and  C_2 
REMARK    3  A    between atoms: N_4  and  C_3 
REMARK    4  A    between atoms: N_6  and  C_5 
REMARK    5  A    between atoms: C_13  and  C_5 
REMARK    6  A    between atoms: C_15  and  N_6 
REMARK    7  A    between atoms: C_9  and  C_15 
REMARK    8  A    between atoms: O_19  and  C_9 
ROOT
ATOM      1  C   UNL d   1      53.015  32.901  53.407  0.00  0.00     0.035 A 
ATOM      2  C   UNL d   1      52.624  32.177  53.266  0.00  0.00     0.086 A 
ATOM      3  C   UNL d   1      52.665  33.605  53.156  0.00  0.00     0.003 A 
ATOM      4  C   UNL d   1      51.890  32.168  52.876  0.00  0.00     0.019 A 
ATOM      5  C   UNL d   1      51.930  33.596  52.765  0.00  0.00     0.000 A 
ATOM      6  C   UNL d   1      51.549  32.883  52.628  0.00  0.00     0.002 A 
ATOM      7  C   UNL d   1      51.589  34.306  52.518  0.00  0.00     0.000 C 
ENDROOT
BRANCH   1   8
ATOM      8  C   UNL d   1      53.741  32.910  53.793  0.00  0.00     0.083 C 
BRANCH   8   9
ATOM      9  N   UNL d   1      53.779  32.816  54.617  0.00  0.00    -0.238 NA
BRANCH   9  10
ATOM     10  C   UNL d   1      53.940  33.466  55.093  0.00  0.00     0.167 C 
BRANCH  10  11
ATOM     11  C   UNL d   1      54.238  33.358  55.854  0.00  0.00     0.315 C 
ATOM     12  O   UNL d   1      54.237  32.607  56.211  0.00  0.00    -0.257 OA
BRANCH  11  13
ATOM     13  O   UNL d   1      54.548  34.007  56.279  0.00  0.00    -0.295 OA
ATOM     14  C   UNL d   1      55.415  34.032  56.384  0.00  0.00     0.185 C 
ENDBRANCH  11  13
ENDBRANCH  10  11
ENDBRANCH   9  10
ENDBRANCH   8   9
BRANCH   8  15
ATOM     15  C   UNL d   1      54.431  33.014  53.362  0.00  0.00     0.018 A 
ATOM     16  C   UNL d   1      54.951  32.382  53.249  0.00  0.00     0.002 A 
ATOM     17  C   UNL d   1      55.637  32.483  52.822  0.00  0.00     0.000 A 
ATOM     18  C   UNL d   1      55.821  33.230  52.493  0.00  0.00     0.000 A 
ATOM     19  C   UNL d   1      55.306  33.859  52.604  0.00  0.00     0.000 A 
ATOM     20  C   UNL d   1      54.610  33.758  53.037  0.00  0.00     0.002 A 
ENDBRANCH   8  15
ENDBRANCH   1   8
BRANCH   2  21
ATOM     21  N   UNL d   1      52.974  31.477  53.517  0.00  0.00    -0.208 NA
ATOM     22  C   UNL d   1      52.544  30.757  53.477  0.00  0.00     0.279 C 
ATOM     23  O   UNL d   1      51.770  30.760  53.185  0.00  0.00    -0.265 OA
BRANCH  22  24
ATOM     24  C   UNL d   1      52.893  30.052  53.729  0.00  0.00     0.059 A 
ATOM     25  C   UNL d   1      52.878  29.849  54.528  0.00  0.00     0.016 A 
ATOM     26  C   UNL d   1      53.227  29.145  54.781  0.00  0.00     0.058 A 
ATOM     27 CL   UNL d   1      53.205  28.954  55.579  0.00  0.00    -0.082 Cl
ATOM     28  C   UNL d   1      53.590  28.647  54.236  0.00  0.00     0.011 A 
ATOM     29  C   UNL d   1      53.605  28.850  53.437  0.00  0.00     0.001 A 
ATOM     30  C   UNL d   1      53.256  29.554  53.185  0.00  0.00     0.005 A 
ENDBRANCH  22  24
ENDBRANCH   2  21
TORSDOF 8
ENDMDL
