MODEL 1
REMARK VINA RESULT:       0.1      0.000      0.000
REMARK  8 active torsions:
REMARK  status: ('A' for Active; 'I' for Inactive)
REMARK    1  A    between atoms: C_7  and  C_1 
REMARK    2  A    between atoms: C_10  and  N_2 
REMARK    3  A    between atoms: C_13  and  C_5 
REMARK    4  A    between atoms: C_6  and  C_7 
REMARK    5  A    between atoms: C_18  and  C_10 
REMARK    6  A    between atoms: N_19  and  C_18 
REMARK    7  A    between atoms: C_25  and  N_19 
REMARK    8  A    between atoms: C_26  and  N_19 
ROOT
ATOM      1  C   UNL d   1      31.858  18.294 -24.070  0.00  0.00     0.101 A 
ATOM      2  N   UNL d   1      30.846  17.440 -24.245  0.00  0.00    -0.269 N 
ATOM      3  C   UNL d   1      31.169  18.735 -24.197  0.00  0.00     0.256 A 
ATOM      4  C   UNL d   1      30.546  18.209 -24.305  0.00  0.00     0.304 A 
ATOM      5  C   UNL d   1      31.652  17.496 -24.101  0.00  0.00     0.075 A 
ATOM      6  O   UNL d   1      29.755  18.418 -24.448  0.00  0.00    -0.263 OA
ATOM      7  O   UNL d   1      31.115  19.564 -24.214  0.00  0.00    -0.281 OA
ENDROOT
BRANCH   1   8
ATOM      8  C   UNL d   1      32.612  18.603 -23.938  0.00  0.00     0.223 C 
ATOM      9  O   UNL d   1      33.232  18.414 -24.453  0.00  0.00    -0.284 OA
BRANCH   8  10
ATOM     10  C   UNL d   1      32.755  19.099 -23.296  0.00  0.00     0.139 A 
ATOM     11  O   UNL d   1      32.827  19.924 -23.323  0.00  0.00    -0.304 OA
ATOM     12  C   UNL d   1      32.968  20.186 -22.556  0.00  0.00     0.100 A 
ATOM     13  C   UNL d   1      33.084  20.945 -22.251  0.00  0.00     0.025 A 
ATOM     14  C   UNL d   1      32.984  19.537 -22.058  0.00  0.00     0.025 A 
ATOM     15  C   UNL d   1      33.215  21.046 -21.449  0.00  0.00     0.002 A 
ATOM     16  C   UNL d   1      33.230  20.388 -20.952  0.00  0.00     0.000 A 
ATOM     17  C   UNL d   1      33.116  19.637 -21.252  0.00  0.00     0.002 A 
ATOM     18  C   UNL d   1      32.852  18.864 -22.519  0.00  0.00     0.030 A 
ENDBRANCH   8  10
ENDBRANCH   1   8
BRANCH   5  19
ATOM     19  C   UNL d   1      32.184  16.859 -24.001  0.00  0.00     0.036 A 
ATOM     20  C   UNL d   1      32.484  16.467 -24.666  0.00  0.00     0.100 A 
ATOM     21  N   UNL d   1      33.008  15.839 -24.571  0.00  0.00    -0.242 NA
ATOM     22  C   UNL d   1      33.239  15.594 -23.802  0.00  0.00     0.099 A 
ATOM     23  C   UNL d   1      32.933  15.993 -23.138  0.00  0.00     0.021 A 
ATOM     24  C   UNL d   1      32.407  16.623 -23.242  0.00  0.00     0.005 A 
ENDBRANCH   5  19
BRANCH   2  25
ATOM     25  C   UNL d   1      30.404  16.742 -24.318  0.00  0.00     0.102 C 
BRANCH  25  26
ATOM     26  C   UNL d   1      29.703  16.648 -23.898  0.00  0.00     0.100 C 
BRANCH  26  27
ATOM     27  N   UNL d   1      29.312  15.914 -23.900  0.00  0.00    -0.301 N 
BRANCH  27  28
ATOM     28  C   UNL d   1      29.112  15.562 -24.620  0.00  0.00     0.080 C 
ATOM     29  C   UNL d   1      28.322  15.455 -24.827  0.00  0.00     0.021 C 
ENDBRANCH  27  28
BRANCH  27  30
ATOM     30  C   UNL d   1      29.129  15.548 -23.188  0.00  0.00     0.080 C 
ATOM     31  C   UNL d   1      28.550  15.865 -22.691  0.00  0.00     0.021 C 
ENDBRANCH  27  30
ENDBRANCH  26  27
ENDBRANCH  25  26
ENDBRANCH   2  25
TORSDOF 8
ENDMDL
MODEL 2
REMARK VINA RESULT:       2.9      1.127      4.372
REMARK  8 active torsions:
REMARK  status: ('A' for Active; 'I' for Inactive)
REMARK    1  A    between atoms: C_7  and  C_1 
REMARK    2  A    between atoms: C_10  and  N_2 
REMARK    3  A    between atoms: C_13  and  C_5 
REMARK    4  A    between atoms: C_6  and  C_7 
REMARK    5  A    between atoms: C_18  and  C_10 
REMARK    6  A    between atoms: N_19  and  C_18 
REMARK    7  A    between atoms: C_25  and  N_19 
REMARK    8  A    between atoms: C_26  and  N_19 
ROOT
ATOM      1  C   UNL d   1      30.970  17.038 -24.372  0.00  0.00     0.101 A 
ATOM      2  N   UNL d   1      31.871  17.991 -24.118  0.00  0.00    -0.269 N 
ATOM      3  C   UNL d   1      30.659  17.762 -24.628  0.00  0.00     0.256 A 
ATOM      4  C   UNL d   1      31.213  18.348 -24.471  0.00  0.00     0.304 A 
ATOM      5  C   UNL d   1      31.718  17.187 -24.059  0.00  0.00     0.075 A 
ATOM      6  O   UNL d   1      31.125  19.156 -24.640  0.00  0.00    -0.263 OA
ATOM      7  O   UNL d   1      29.915  17.877 -24.981  0.00  0.00    -0.281 OA
ENDROOT
BRANCH   1   8
ATOM      8  C   UNL d   1      30.595  16.306 -24.424  0.00  0.00     0.223 C 
ATOM      9  O   UNL d   1      30.931  15.701 -24.879  0.00  0.00    -0.284 OA
BRANCH   8  10
ATOM     10  C   UNL d   1      29.885  16.168 -24.028  0.00  0.00     0.139 A 
ATOM     11  O   UNL d   1      29.125  16.288 -24.332  0.00  0.00    -0.304 OA
ATOM     12  C   UNL d   1      28.586  16.079 -23.745  0.00  0.00     0.100 A 
ATOM     13  C   UNL d   1      27.761  16.084 -23.735  0.00  0.00     0.025 A 
ATOM     14  C   UNL d   1      29.003  15.832 -23.086  0.00  0.00     0.025 A 
ATOM     15  C   UNL d   1      27.361  15.842 -23.062  0.00  0.00     0.002 A 
ATOM     16  C   UNL d   1      27.786  15.595 -22.401  0.00  0.00     0.000 A 
ATOM     17  C   UNL d   1      28.602  15.589 -22.410  0.00  0.00     0.002 A 
ATOM     18  C   UNL d   1      29.809  15.889 -23.263  0.00  0.00     0.030 A 
ENDBRANCH   8  10
ENDBRANCH   1   8
BRANCH   5  19
ATOM     19  C   UNL d   1      32.227  16.607 -23.737  0.00  0.00     0.036 A 
ATOM     20  C   UNL d   1      32.738  16.188 -24.236  0.00  0.00     0.100 A 
ATOM     21  N   UNL d   1      33.241  15.616 -23.923  0.00  0.00    -0.242 NA
ATOM     22  C   UNL d   1      33.237  15.456 -23.099  0.00  0.00     0.099 A 
ATOM     23  C   UNL d   1      32.721  15.882 -22.604  0.00  0.00     0.021 A 
ATOM     24  C   UNL d   1      32.219  16.455 -22.926  0.00  0.00     0.005 A 
ENDBRANCH   5  19
BRANCH   2  25
ATOM     25  C   UNL d   1      32.559  18.383 -23.871  0.00  0.00     0.102 C 
BRANCH  25  26
ATOM     26  C   UNL d   1      32.574  18.781 -23.151  0.00  0.00     0.100 C 
BRANCH  26  27
ATOM     27  N   UNL d   1      33.002  19.490 -23.077  0.00  0.00    -0.301 N 
BRANCH  27  28
ATOM     28  C   UNL d   1      33.232  19.899 -23.757  0.00  0.00     0.080 C 
ATOM     29  C   UNL d   1      33.241  20.722 -23.767  0.00  0.00     0.021 C 
ENDBRANCH  27  28
BRANCH  27  30
ATOM     30  C   UNL d   1      33.190  19.777 -22.331  0.00  0.00     0.080 C 
ATOM     31  C   UNL d   1      32.784  20.424 -22.016  0.00  0.00     0.021 C 
ENDBRANCH  27  30
ENDBRANCH  26  27
ENDBRANCH  25  26
ENDBRANCH   2  25
TORSDOF 8
ENDMDL
