MODEL 1
REMARK VINA RESULT:     -11.2      0.000      0.000
REMARK  4 active torsions:
REMARK  status: ('A' for Active; 'I' for Inactive)
REMARK    1  A    between atoms: C_2  and  C_1 
REMARK    2  A    between atoms: C_4  and  C_2 
REMARK    3  A    between atoms: N_6  and  C_2 
REMARK    4  A    between atoms: C_8  and  N_6 
ROOT
ATOM      1  C   UNL d   1      53.305  32.467  53.630  0.00  0.00     0.088 C 
ENDROOT
BRANCH   1   2
ATOM      2  C   UNL d   1      52.597  32.876  53.466  0.00  0.00     0.058 A 
ATOM      3  C   UNL d   1      52.478  33.214  52.710  0.00  0.00     0.214 A 
ATOM      4  C   UNL d   1      51.775  33.619  52.552  0.00  0.00     0.120 A 
ATOM      5  O   UNL d   1      53.065  33.143  52.124  0.00  0.00    -0.285 OA
ATOM      6  N   UNL d   1      51.667  33.947  51.809  0.00  0.00    -0.241 NA
ATOM      7  C   UNL d   1      51.193  33.689  53.133  0.00  0.00     0.021 A 
ATOM      8  C   UNL d   1      50.957  34.358  51.643  0.00  0.00     0.099 A 
ATOM      9  C   UNL d   1      50.375  34.428  52.223  0.00  0.00     0.021 A 
ATOM     10  C   UNL d   1      50.495  34.089  52.979  0.00  0.00     0.003 A 
ATOM     11  C   UNL d   1      51.306  33.356  53.880  0.00  0.00     0.002 A 
ATOM     12  C   UNL d   1      52.015  32.946  54.046  0.00  0.00     0.005 A 
ENDBRANCH   1   2
BRANCH   1  13
ATOM     13  C   UNL d   1      53.894  32.828  54.101  0.00  0.00     0.045 A 
ATOM     14  C   UNL d   1      54.618  33.025  53.759  0.00  0.00     0.141 A 
ATOM     15  F   UNL d   1      54.954  32.962  53.027  0.00  0.00    -0.204 F 
ATOM     16  C   UNL d   1      55.204  33.384  54.224  0.00  0.00     0.030 A 
ATOM     17  C   UNL d   1      55.050  33.537  55.020  0.00  0.00     0.002 A 
ATOM     18  C   UNL d   1      54.326  33.340  55.362  0.00  0.00     0.000 A 
ATOM     19  C   UNL d   1      53.737  32.979  54.891  0.00  0.00     0.004 A 
ENDBRANCH   1  13
BRANCH   1  20
ATOM     20  N   UNL d   1      53.426  31.701  53.325  0.00  0.00    -0.227 NA
BRANCH  20  21
ATOM     21  C   UNL d   1      53.301  31.017  53.401  0.00  0.00     0.162 A 
ATOM     22  N   UNL d   1      53.438  30.707  54.020  0.00  0.00    -0.225 NA
ATOM     23  C   UNL d   1      53.314  30.017  54.101  0.00  0.00     0.101 A 
ATOM     24  C   UNL d   1      53.057  29.643  53.572  0.00  0.00     0.021 A 
ATOM     25  C   UNL d   1      52.922  29.955  52.956  0.00  0.00     0.005 A 
ATOM     26  C   UNL d   1      53.046  30.645  52.875  0.00  0.00     0.039 A 
ENDBRANCH  20  21
ENDBRANCH   1  20
TORSDOF 4
ENDMDL
MODEL 2
REMARK VINA RESULT:      -9.3      1.021      3.080
REMARK  4 active torsions:
REMARK  status: ('A' for Active; 'I' for Inactive)
REMARK    1  A    between atoms: C_2  and  C_1 
REMARK    2  A    between atoms: C_4  and  C_2 
REMARK    3  A    between atoms: N_6  and  C_2 
REMARK    4  A    between atoms: C_8  and  N_6 
ROOT
ATOM      1  C   UNL d   1      52.663  32.671  53.254  0.00  0.00     0.088 C 
ENDROOT
BRANCH   1   2
ATOM      2  C   UNL d   1      53.205  32.933  53.832  0.00  0.00     0.058 A 
ATOM      3  C   UNL d   1      53.986  33.131  53.609  0.00  0.00     0.214 A 
ATOM      4  C   UNL d   1      54.519  33.390  54.185  0.00  0.00     0.120 A 
ATOM      5  O   UNL d   1      54.222  33.068  52.813  0.00  0.00    -0.285 OA
ATOM      6  N   UNL d   1      55.283  33.582  53.958  0.00  0.00    -0.241 NA
ATOM      7  C   UNL d   1      54.286  33.453  54.974  0.00  0.00     0.021 A 
ATOM      8  C   UNL d   1      55.828  33.845  54.537  0.00  0.00     0.099 A 
ATOM      9  C   UNL d   1      55.594  33.908  55.325  0.00  0.00     0.021 A 
ATOM     10  C   UNL d   1      54.812  33.709  55.547  0.00  0.00     0.003 A 
ATOM     11  C   UNL d   1      53.515  33.258  55.198  0.00  0.00     0.002 A 
ATOM     12  C   UNL d   1      52.971  32.996  54.621  0.00  0.00     0.005 A 
ENDBRANCH   1   2
BRANCH   1  13
ATOM     13  C   UNL d   1      52.006  33.148  53.055  0.00  0.00     0.045 A 
ATOM     14  C   UNL d   1      52.036  33.612  52.373  0.00  0.00     0.141 A 
ATOM     15  F   UNL d   1      52.574  33.749  51.785  0.00  0.00    -0.204 F 
ATOM     16  C   UNL d   1      51.386  34.086  52.172  0.00  0.00     0.030 A 
ATOM     17  C   UNL d   1      50.720  34.084  52.660  0.00  0.00     0.002 A 
ATOM     18  C   UNL d   1      50.689  33.621  53.342  0.00  0.00     0.000 A 
ATOM     19  C   UNL d   1      51.347  33.144  53.541  0.00  0.00     0.004 A 
ENDBRANCH   1  13
BRANCH   1  20
ATOM     20  N   UNL d   1      52.776  31.937  52.876  0.00  0.00    -0.227 NA
BRANCH  20  21
ATOM     21  C   UNL d   1      52.713  31.243  52.922  0.00  0.00     0.162 A 
ATOM     22  N   UNL d   1      52.183  30.967  53.296  0.00  0.00    -0.225 NA
ATOM     23  C   UNL d   1      52.116  30.266  53.345  0.00  0.00     0.101 A 
ATOM     24  C   UNL d   1      52.571  29.847  53.024  0.00  0.00     0.021 A 
ATOM     25  C   UNL d   1      53.099  30.126  52.651  0.00  0.00     0.005 A 
ATOM     26  C   UNL d   1      53.166  30.827  52.602  0.00  0.00     0.039 A 
ENDBRANCH  20  21
ENDBRANCH   1  20
TORSDOF 4
ENDMDL
MODEL 3
REMARK VINA RESULT:      -9.3      1.213      3.496
REMARK  4 active torsions:
REMARK  status: ('A' for Active; 'I' for Inactive)
REMARK    1  A    between atoms: C_2  and  C_1 
REMARK    2  A    between atoms: C_4  and  C_2 
REMARK    3  A    between atoms: N_6  and  C_2 
REMARK    4  A    between atoms: C_8  and  N_6 
ROOT
ATOM      1  C   UNL d   1      53.481  32.771  53.974  0.00  0.00     0.088 C 
ENDROOT
BRANCH   1   2
ATOM      2  C   UNL d   1      53.439  31.964  53.764  0.00  0.00     0.058 A 
ATOM      3  C   UNL d   1      53.341  31.385  54.360  0.00  0.00     0.214 A 
ATOM      4  C   UNL d   1      53.300  30.588  54.148  0.00  0.00     0.120 A 
ATOM      5  O   UNL d   1      53.285  31.614  55.159  0.00  0.00    -0.285 OA
ATOM      6  N   UNL d   1      53.203  30.028  54.738  0.00  0.00    -0.241 NA
ATOM      7  C   UNL d   1      53.355  30.362  53.356  0.00  0.00     0.021 A 
ATOM      8  C   UNL d   1      53.161  29.218  54.530  0.00  0.00     0.099 A 
ATOM      9  C   UNL d   1      53.216  28.992  53.738  0.00  0.00     0.021 A 
ATOM     10  C   UNL d   1      53.314  29.572  53.144  0.00  0.00     0.003 A 
ATOM     11  C   UNL d   1      53.452  30.930  52.765  0.00  0.00     0.002 A 
ATOM     12  C   UNL d   1      53.494  31.738  52.973  0.00  0.00     0.005 A 
ENDBRANCH   1   2
BRANCH   1  13
ATOM     13  C   UNL d   1      54.222  33.114  54.157  0.00  0.00     0.045 A 
ATOM     14  C   UNL d   1      54.349  33.416  54.914  0.00  0.00     0.141 A 
ATOM     15  F   UNL d   1      53.921  33.481  55.596  0.00  0.00    -0.204 F 
ATOM     16  C   UNL d   1      55.082  33.757  55.098  0.00  0.00     0.030 A 
ATOM     17  C   UNL d   1      55.671  33.788  54.520  0.00  0.00     0.002 A 
ATOM     18  C   UNL d   1      55.543  33.486  53.763  0.00  0.00     0.000 A 
ATOM     19  C   UNL d   1      54.803  33.142  53.580  0.00  0.00     0.004 A 
ENDBRANCH   1  13
BRANCH   1  20
ATOM     20  N   UNL d   1      52.789  33.233  54.001  0.00  0.00    -0.227 NA
BRANCH  20  21
ATOM     21  C   UNL d   1      52.303  33.577  53.634  0.00  0.00     0.162 A 
ATOM     22  N   UNL d   1      51.622  33.421  53.731  0.00  0.00    -0.225 NA
ATOM     23  C   UNL d   1      51.128  33.767  53.363  0.00  0.00     0.101 A 
ATOM     24  C   UNL d   1      51.313  34.259  52.906  0.00  0.00     0.021 A 
ATOM     25  C   UNL d   1      51.993  34.412  52.812  0.00  0.00     0.005 A 
ATOM     26  C   UNL d   1      52.487  34.067  53.180  0.00  0.00     0.039 A 
ENDBRANCH  20  21
ENDBRANCH   1  20
TORSDOF 4
ENDMDL
MODEL 4
REMARK VINA RESULT:      -9.0      1.075      3.579
REMARK  4 active torsions:
REMARK  status: ('A' for Active; 'I' for Inactive)
REMARK    1  A    between atoms: C_2  and  C_1 
REMARK    2  A    between atoms: C_4  and  C_2 
REMARK    3  A    between atoms: N_6  and  C_2 
REMARK    4  A    between atoms: C_8  and  N_6 
ROOT
ATOM      1  C   UNL d   1      52.954  32.181  53.457  0.00  0.00     0.088 C 
ENDROOT
BRANCH   1   2
ATOM      2  C   UNL d   1      53.477  32.554  53.989  0.00  0.00     0.058 A 
ATOM      3  C   UNL d   1      54.195  32.877  53.708  0.00  0.00     0.214 A 
ATOM      4  C   UNL d   1      54.710  33.246  54.238  0.00  0.00     0.120 A 
ATOM      5  O   UNL d   1      54.387  32.827  52.899  0.00  0.00    -0.285 OA
ATOM      6  N   UNL d   1      55.411  33.560  53.953  0.00  0.00    -0.241 NA
ATOM      7  C   UNL d   1      54.520  33.296  55.039  0.00  0.00     0.021 A 
ATOM      8  C   UNL d   1      55.938  33.934  54.486  0.00  0.00     0.099 A 
ATOM      9  C   UNL d   1      55.748  33.985  55.287  0.00  0.00     0.021 A 
ATOM     10  C   UNL d   1      55.029  33.661  55.567  0.00  0.00     0.003 A 
ATOM     11  C   UNL d   1      53.813  32.979  55.322  0.00  0.00     0.002 A 
ATOM     12  C   UNL d   1      53.287  32.604  54.791  0.00  0.00     0.005 A 
ENDBRANCH   1   2
BRANCH   1  13
ATOM     13  C   UNL d   1      52.936  31.346  53.409  0.00  0.00     0.045 A 
ATOM     14  C   UNL d   1      52.967  30.985  52.667  0.00  0.00     0.141 A 
ATOM     15  F   UNL d   1      53.013  31.233  51.899  0.00  0.00    -0.204 F 
ATOM     16  C   UNL d   1      52.949  30.158  52.616  0.00  0.00     0.030 A 
ATOM     17  C   UNL d   1      52.902  29.711  53.308  0.00  0.00     0.002 A 
ATOM     18  C   UNL d   1      52.871  30.072  54.050  0.00  0.00     0.000 A 
ATOM     19  C   UNL d   1      52.889  30.907  54.098  0.00  0.00     0.004 A 
ENDBRANCH   1  13
BRANCH   1  20
ATOM     20  N   UNL d   1      52.450  32.638  52.976  0.00  0.00    -0.227 NA
BRANCH  20  21
ATOM     21  C   UNL d   1      51.896  33.064  52.951  0.00  0.00     0.162 A 
ATOM     22  N   UNL d   1      51.317  32.900  53.319  0.00  0.00    -0.225 NA
ATOM     23  C   UNL d   1      50.755  33.327  53.296  0.00  0.00     0.101 A 
ATOM     24  C   UNL d   1      50.772  33.907  52.911  0.00  0.00     0.021 A 
ATOM     25  C   UNL d   1      51.351  34.068  52.545  0.00  0.00     0.005 A 
ATOM     26  C   UNL d   1      51.913  33.641  52.568  0.00  0.00     0.039 A 
ENDBRANCH  20  21
ENDBRANCH   1  20
TORSDOF 4
ENDMDL
MODEL 5
REMARK VINA RESULT:      -8.9      0.720      2.396
REMARK  4 active torsions:
REMARK  status: ('A' for Active; 'I' for Inactive)
REMARK    1  A    between atoms: C_2  and  C_1 
REMARK    2  A    between atoms: C_4  and  C_2 
REMARK    3  A    between atoms: N_6  and  C_2 
REMARK    4  A    between atoms: C_8  and  N_6 
ROOT
ATOM      1  C   UNL d   1      53.209  32.254  53.644  0.00  0.00     0.088 C 
ENDROOT
BRANCH   1   2
ATOM      2  C   UNL d   1      52.520  32.684  53.456  0.00  0.00     0.058 A 
ATOM      3  C   UNL d   1      52.480  33.112  52.739  0.00  0.00     0.214 A 
ATOM      4  C   UNL d   1      51.795  33.536  52.557  0.00  0.00     0.120 A 
ATOM      5  O   UNL d   1      53.127  33.108  52.214  0.00  0.00    -0.285 OA
ATOM      6  N   UNL d   1      51.765  33.953  51.852  0.00  0.00    -0.241 NA
ATOM      7  C   UNL d   1      51.154  33.540  53.076  0.00  0.00     0.021 A 
ATOM      8  C   UNL d   1      51.074  34.385  51.661  0.00  0.00     0.099 A 
ATOM      9  C   UNL d   1      50.433  34.388  52.181  0.00  0.00     0.021 A 
ATOM     10  C   UNL d   1      50.474  33.959  52.898  0.00  0.00     0.003 A 
ATOM     11  C   UNL d   1      51.189  33.119  53.786  0.00  0.00     0.002 A 
ATOM     12  C   UNL d   1      51.879  32.687  53.976  0.00  0.00     0.005 A 
ENDBRANCH   1   2
BRANCH   1  13
ATOM     13  C   UNL d   1      53.202  31.418  53.604  0.00  0.00     0.045 A 
ATOM     14  C   UNL d   1      53.648  31.039  53.023  0.00  0.00     0.141 A 
ATOM     15  F   UNL d   1      54.138  31.268  52.422  0.00  0.00    -0.204 F 
ATOM     16  C   UNL d   1      53.642  30.211  52.980  0.00  0.00     0.030 A 
ATOM     17  C   UNL d   1      53.191  29.782  53.521  0.00  0.00     0.002 A 
ATOM     18  C   UNL d   1      52.745  30.161  54.103  0.00  0.00     0.000 A 
ATOM     19  C   UNL d   1      52.752  30.996  54.143  0.00  0.00     0.004 A 
ENDBRANCH   1  13
BRANCH   1  20
ATOM     20  N   UNL d   1      53.903  32.655  53.872  0.00  0.00    -0.227 NA
BRANCH  20  21
ATOM     21  C   UNL d   1      54.258  32.957  54.393  0.00  0.00     0.162 A 
ATOM     22  N   UNL d   1      54.055  32.846  55.059  0.00  0.00    -0.225 NA
ATOM     23  C   UNL d   1      54.410  33.150  55.589  0.00  0.00     0.101 A 
ATOM     24  C   UNL d   1      54.958  33.558  55.454  0.00  0.00     0.021 A 
ATOM     25  C   UNL d   1      55.158  33.667  54.788  0.00  0.00     0.005 A 
ATOM     26  C   UNL d   1      54.803  33.364  54.258  0.00  0.00     0.039 A 
ENDBRANCH  20  21
ENDBRANCH   1  20
TORSDOF 4
ENDMDL
