MODEL 1
REMARK VINA RESULT:       2.9      0.000      0.000
REMARK  4 active torsions:
REMARK  status: ('A' for Active; 'I' for Inactive)
REMARK    1  A    between atoms: N_10  and  C_3 
REMARK    2  A    between atoms: C_13  and  C_5 
REMARK    3  A    between atoms: C_19  and  C_9 
REMARK    4  A    between atoms: C_12  and  N_11 
ROOT
ATOM      1  N   UNL d   1     -41.872-122.423 -51.963  0.00  0.00    -0.196 N 
ATOM      2  C   UNL d   1     -41.801-122.116 -52.714  0.00  0.00     0.167 A 
ATOM      3  C   UNL d   1     -41.740-121.946 -51.334  0.00  0.00     0.152 A 
ATOM      4  N   UNL d   1     -42.203-123.665 -52.502  0.00  0.00    -0.163 NA
ATOM      5  C   UNL d   1     -41.929-122.579 -53.342  0.00  0.00     0.055 A 
ATOM      6  N   UNL d   1     -41.600-121.344 -52.806  0.00  0.00    -0.227 NA
ATOM      7  C   UNL d   1     -41.534-121.152 -51.439  0.00  0.00     0.057 A 
ATOM      8  C   UNL d   1     -42.132-123.358 -53.253  0.00  0.00     0.104 A 
ATOM      9  C   UNL d   1     -41.470-120.877 -52.175  0.00  0.00     0.086 A 
ATOM     10  C   UNL d   1     -42.259-123.817 -53.880  0.00  0.00     0.023 C 
ENDROOT
BRANCH   3  11
ATOM     11  N   UNL d   1     -41.812-122.257 -50.562  0.00  0.00    -0.286 N 
ATOM     12  C   UNL d   1     -41.187-122.687 -50.228  0.00  0.00     0.101 A 
ATOM     13  C   UNL d   1     -41.259-123.000 -49.453  0.00  0.00     0.101 A 
ATOM     14  N   UNL d   1     -41.957-122.880 -49.019  0.00  0.00    -0.286 N 
ATOM     15  C   UNL d   1     -42.586-122.449 -49.353  0.00  0.00     0.101 A 
ATOM     16  C   UNL d   1     -42.519-122.136 -50.124  0.00  0.00     0.101 A 
BRANCH  14  17
ATOM     17  C   UNL d   1     -42.029-123.191 -48.248  0.00  0.00     0.148 A 
ATOM     18  N   UNL d   1     -41.364-123.194 -47.738  0.00  0.00    -0.227 NA
ATOM     19  C   UNL d   1     -41.438-123.505 -46.971  0.00  0.00     0.101 A 
ATOM     20  C   UNL d   1     -42.170-123.814 -46.706  0.00  0.00     0.021 A 
ATOM     21  C   UNL d   1     -42.825-123.810 -47.214  0.00  0.00     0.005 A 
ATOM     22  C   UNL d   1     -42.755-123.497 -47.989  0.00  0.00     0.037 A 
ENDBRANCH  14  17
ENDBRANCH   3  11
BRANCH   9  23
ATOM     23  C   UNL d   1     -41.260-120.066 -52.279  0.00  0.00     0.018 C 
ATOM     24  C   UNL d   1     -41.130-119.573 -51.610  0.00  0.00     0.002 C 
ATOM     25  C   UNL d   1     -41.181-119.756 -53.063  0.00  0.00     0.002 C 
ENDBRANCH   9  23
BRANCH   5  26
ATOM     26  C   UNL d   1     -41.857-122.269 -54.100  0.00  0.00     0.004 A 
ATOM     27  C   UNL d   1     -42.440-121.818 -54.404  0.00  0.00     0.000 A 
ATOM     28  C   UNL d   1     -42.378-121.514 -55.137  0.00  0.00     0.000 A 
ATOM     29  C   UNL d   1     -41.716-121.665 -55.577  0.00  0.00     0.000 A 
ATOM     30  C   UNL d   1     -41.128-122.116 -55.279  0.00  0.00     0.000 A 
ATOM     31  C   UNL d   1     -41.199-122.421 -54.533  0.00  0.00     0.000 A 
ENDBRANCH   5  26
TORSDOF 4
ENDMDL
