MODEL 1
REMARK VINA RESULT:      22.1      0.000      0.000
REMARK  5 active torsions:
REMARK  status: ('A' for Active; 'I' for Inactive)
REMARK    1  A    between atoms: S_2  and  C_12 
REMARK    2  A    between atoms: N_7  and  S_2 
REMARK    3  A    between atoms: C_5  and  N_7 
REMARK    4  A    between atoms: O_26  and  C_22 
REMARK    5  A    between atoms: C_27  and  O_26 
ROOT
ATOM      1  S   UNL d   1      45.685 -15.944  44.775  0.00  0.00     0.287 S 
ATOM      2  O   UNL d   1      46.516 -15.923  44.803  0.00  0.00    -0.198 OA
ATOM      3  O   UNL d   1      44.846 -15.961  44.747  0.00  0.00    -0.198 OA
ENDROOT
BRANCH   1   4
ATOM      4  C   UNL d   1      45.672 -15.127  44.597  0.00  0.00     0.107 A 
ATOM      5  C   UNL d   1      45.052 -14.809  44.150  0.00  0.00     0.032 A 
ATOM      6  C   UNL d   1      45.039 -14.006  43.975  0.00  0.00     0.085 A 
ATOM      7  N   UNL d   1      44.508 -13.538  43.551  0.00  0.00    -0.256 N 
ATOM      8  C   UNL d   1      45.647 -13.511  44.246  0.00  0.00     0.085 A 
ATOM      9  C   UNL d   1      44.791 -12.760  43.564  0.00  0.00     0.339 A 
ATOM     10  C   UNL d   1      43.821 -13.792  43.181  0.00  0.00     0.104 C 
ATOM     11  N   UNL d   1      45.483 -12.743  43.986  0.00  0.00    -0.256 N 
ATOM     12  O   UNL d   1      44.434 -12.102  43.207  0.00  0.00    -0.245 OA
ATOM     13  C   UNL d   1      45.945 -12.080  44.133  0.00  0.00     0.104 C 
ATOM     14  C   UNL d   1      46.263 -13.836  44.693  0.00  0.00     0.020 A 
ATOM     15  C   UNL d   1      46.276 -14.640  44.868  0.00  0.00     0.015 A 
ENDBRANCH   1   4
BRANCH   1  16
ATOM     16  N   UNL d   1      45.691 -16.758  44.952  0.00  0.00    -0.132 NA
BRANCH  16  17
ATOM     17  C   UNL d   1      45.886 -17.309  44.371  0.00  0.00     0.206 A 
ATOM     18  N   UNL d   1      46.112 -18.071  44.582  0.00  0.00    -0.220 NA
ATOM     19  C   UNL d   1      46.273 -18.491  43.884  0.00  0.00     0.090 A 
ATOM     20  C   UNL d   1      46.518 -19.264  43.741  0.00  0.00     0.022 A 
ATOM     21  C   UNL d   1      46.142 -17.975  43.250  0.00  0.00     0.052 A 
ATOM     22  C   UNL d   1      46.631 -19.523  42.976  0.00  0.00     0.026 A 
ATOM     23  C   UNL d   1      46.503 -19.017  42.340  0.00  0.00     0.101 A 
ATOM     24  C   UNL d   1      46.257 -18.240  42.479  0.00  0.00     0.033 A 
ATOM     25  S   UNL d   1      45.907 -17.254  43.534  0.00  0.00    -0.046 SA
BRANCH  23  26
ATOM     26  O   UNL d   1      46.617 -19.275  41.563  0.00  0.00    -0.305 OA
BRANCH  26  27
ATOM     27  C   UNL d   1      46.530 -18.732  40.939  0.00  0.00     0.123 C 
ATOM     28  C   UNL d   1      46.625 -18.981  40.159  0.00  0.00     0.029 C 
ENDBRANCH  26  27
ENDBRANCH  23  26
ENDBRANCH  16  17
ENDBRANCH   1  16
TORSDOF 5
ENDMDL
