MODEL 1
REMARK VINA RESULT:      -5.3      0.000      0.000
REMARK  7 active torsions:
REMARK  status: ('A' for Active; 'I' for Inactive)
REMARK    1  A    between atoms: C_4  and  C_1 
REMARK    2  A    between atoms: N_5  and  C_3 
REMARK    3  A    between atoms: C_9  and  C_4 
REMARK       I    between atoms: C_7  and  N_5 
REMARK    4  A    between atoms: C_10  and  C_7 
REMARK       I    between atoms: N_19  and  C_9 
REMARK    5  A    between atoms: C_21  and  N_19 
REMARK    6  A    between atoms: C_24  and  C_21 
REMARK    7  A    between atoms: C_23  and  C_24 
ROOT
ATOM      1  C   UNL d   1     -39.602  14.952  18.326  0.00  0.00     0.144 C 
ATOM      2  C   UNL d   1     -40.224  14.773  17.818  0.00  0.00     0.107 C 
ATOM      3  N   UNL d   1     -40.846  14.593  17.318  0.00  0.00    -0.191 NA
ENDROOT
BRANCH   1   4
ATOM      4  C   UNL d   1     -39.709  14.927  19.151  0.00  0.00     0.097 A 
ATOM      5  N   UNL d   1     -39.223  14.614  19.740  0.00  0.00    -0.226 NA
ATOM      6  C   UNL d   1     -39.591  14.735  20.469  0.00  0.00     0.166 A 
ATOM      7  C   UNL d   1     -40.305  15.123  20.333  0.00  0.00     0.037 A 
ATOM      8  C   UNL d   1     -40.386  15.246  19.518  0.00  0.00     0.021 A 
ATOM      9  C   UNL d   1     -40.898  15.383  20.843  0.00  0.00     0.003 A 
ATOM     10  C   UNL d   1     -41.050  15.623  19.220  0.00  0.00     0.002 A 
ATOM     11  C   UNL d   1     -41.643  15.883  19.730  0.00  0.00     0.000 A 
ATOM     12  C   UNL d   1     -41.562  15.760  20.544  0.00  0.00     0.000 A 
BRANCH   6  13
ATOM     13  N   UNL d   1     -39.333  14.526  21.214  0.00  0.00    -0.189 NA
ATOM     14  C   UNL d   1     -38.956  13.824  21.458  0.00  0.00     0.286 C 
ATOM     15  O   UNL d   1     -38.810  13.241  20.895  0.00  0.00    -0.265 OA
BRANCH  14  16
ATOM     16  C   UNL d   1     -38.730  13.703  22.241  0.00  0.00     0.087 A 
ATOM     17  S   UNL d   1     -38.015  13.328  22.412  0.00  0.00    -0.082 SA
ATOM     18  C   UNL d   1     -37.944  13.288  23.234  0.00  0.00     0.036 A 
ATOM     19  C   UNL d   1     -38.614  13.638  23.568  0.00  0.00     0.008 A 
ATOM     20  C   UNL d   1     -39.098  13.894  22.955  0.00  0.00     0.012 A 
ENDBRANCH  14  16
ENDBRANCH   6  13
ENDBRANCH   1   4
BRANCH   1  21
ATOM     21  C   UNL d   1     -38.863  15.161  18.016  0.00  0.00     0.290 C 
ATOM     22  O   UNL d   1     -38.565  15.918  18.135  0.00  0.00    -0.264 OA
ATOM     23  N   UNL d   1     -38.427  14.613  17.590  0.00  0.00    -0.206 NA
BRANCH  23  24
ATOM     24  C   UNL d   1     -38.726  13.856  17.471  0.00  0.00     0.102 C 
BRANCH  24  25
ATOM     25  C   UNL d   1     -38.513  13.214  17.001  0.00  0.00     0.021 C 
BRANCH  25  26
ATOM     26  C   UNL d   1     -38.328  12.490  17.347  0.00  0.00     0.002 A 
ATOM     27  C   UNL d   1     -38.125  12.453  18.147  0.00  0.00     0.000 A 
ATOM     28  C   UNL d   1     -37.941  11.725  18.489  0.00  0.00     0.000 A 
ATOM     29  C   UNL d   1     -37.956  11.030  18.040  0.00  0.00     0.000 A 
ATOM     30  C   UNL d   1     -38.162  11.077  17.231  0.00  0.00     0.000 A 
ATOM     31  C   UNL d   1     -38.346  11.798  16.889  0.00  0.00     0.000 A 
ENDBRANCH  25  26
ENDBRANCH  24  25
ENDBRANCH  23  24
ENDBRANCH   1  21
TORSDOF 7
ENDMDL
MODEL 2
REMARK VINA RESULT:      -5.0      7.926      9.970
REMARK  7 active torsions:
REMARK  status: ('A' for Active; 'I' for Inactive)
REMARK    1  A    between atoms: C_4  and  C_1 
REMARK    2  A    between atoms: N_5  and  C_3 
REMARK    3  A    between atoms: C_9  and  C_4 
REMARK       I    between atoms: C_7  and  N_5 
REMARK    4  A    between atoms: C_10  and  C_7 
REMARK       I    between atoms: N_19  and  C_9 
REMARK    5  A    between atoms: C_21  and  N_19 
REMARK    6  A    between atoms: C_24  and  C_21 
REMARK    7  A    between atoms: C_23  and  C_24 
ROOT
ATOM      1  C   UNL d   1     -48.377  12.284  22.513  0.00  0.00     0.144 C 
ATOM      2  C   UNL d   1     -48.862  11.973  23.101  0.00  0.00     0.107 C 
ATOM      3  N   UNL d   1     -49.338  11.663  23.691  0.00  0.00    -0.191 NA
ENDROOT
BRANCH   1   4
ATOM      4  C   UNL d   1     -47.559  12.362  22.637  0.00  0.00     0.097 A 
ATOM      5  N   UNL d   1     -46.962  11.792  22.620  0.00  0.00    -0.226 NA
ATOM      6  C   UNL d   1     -46.244  12.165  22.781  0.00  0.00     0.166 A 
ATOM      7  C   UNL d   1     -46.393  12.967  22.897  0.00  0.00     0.037 A 
ATOM      8  C   UNL d   1     -47.206  13.098  22.810  0.00  0.00     0.021 A 
ATOM      9  C   UNL d   1     -45.897  13.602  23.072  0.00  0.00     0.003 A 
ATOM     10  C   UNL d   1     -47.516  13.852  22.896  0.00  0.00     0.002 A 
ATOM     11  C   UNL d   1     -47.021  14.486  23.071  0.00  0.00     0.000 A 
ATOM     12  C   UNL d   1     -46.208  14.356  23.158  0.00  0.00     0.000 A 
BRANCH   6  13
ATOM     13  N   UNL d   1     -45.497  11.841  22.826  0.00  0.00    -0.189 NA
ATOM     14  C   UNL d   1     -45.243  11.171  23.251  0.00  0.00     0.286 C 
ATOM     15  O   UNL d   1     -45.798  10.757  23.697  0.00  0.00    -0.265 OA
BRANCH  14  16
ATOM     16  C   UNL d   1     -44.460  10.917  23.235  0.00  0.00     0.087 A 
ATOM     17  S   UNL d   1     -44.265  10.159  23.496  0.00  0.00    -0.082 SA
ATOM     18  C   UNL d   1     -43.447  10.069  23.413  0.00  0.00     0.036 A 
ATOM     19  C   UNL d   1     -43.141  10.770  23.101  0.00  0.00     0.008 A 
ATOM     20  C   UNL d   1     -43.766  11.293  22.992  0.00  0.00     0.012 A 
ENDBRANCH  14  16
ENDBRANCH   6  13
ENDBRANCH   1   4
BRANCH   1  21
ATOM     21  C   UNL d   1     -48.706  12.522  21.792  0.00  0.00     0.290 C 
ATOM     22  O   UNL d   1     -48.325  12.341  21.085  0.00  0.00    -0.264 OA
ATOM     23  N   UNL d   1     -49.412  12.937  21.778  0.00  0.00    -0.206 NA
BRANCH  23  24
ATOM     24  C   UNL d   1     -49.793  13.118  22.485  0.00  0.00     0.102 C 
BRANCH  24  25
ATOM     25  C   UNL d   1     -50.556  13.355  22.691  0.00  0.00     0.021 C 
BRANCH  25  26
ATOM     26  C   UNL d   1     -50.724  14.152  22.810  0.00  0.00     0.002 A 
ATOM     27  C   UNL d   1     -50.745  14.461  23.576  0.00  0.00     0.000 A 
ATOM     28  C   UNL d   1     -50.915  15.260  23.690  0.00  0.00     0.000 A 
ATOM     29  C   UNL d   1     -51.064  15.758  23.046  0.00  0.00     0.000 A 
ATOM     30  C   UNL d   1     -51.041  15.436  22.274  0.00  0.00     0.000 A 
ATOM     31  C   UNL d   1     -50.873  14.643  22.158  0.00  0.00     0.000 A 
ENDBRANCH  25  26
ENDBRANCH  24  25
ENDBRANCH  23  24
ENDBRANCH   1  21
TORSDOF 7
ENDMDL
MODEL 3
REMARK VINA RESULT:      -4.9      2.165      3.683
REMARK  7 active torsions:
REMARK  status: ('A' for Active; 'I' for Inactive)
REMARK    1  A    between atoms: C_4  and  C_1 
REMARK    2  A    between atoms: N_5  and  C_3 
REMARK    3  A    between atoms: C_9  and  C_4 
REMARK       I    between atoms: C_7  and  N_5 
REMARK    4  A    between atoms: C_10  and  C_7 
REMARK       I    between atoms: N_19  and  C_9 
REMARK    5  A    between atoms: C_21  and  N_19 
REMARK    6  A    between atoms: C_24  and  C_21 
REMARK    7  A    between atoms: C_23  and  C_24 
ROOT
ATOM      1  C   UNL d   1     -38.784  14.613  19.927  0.00  0.00     0.144 C 
ATOM      2  C   UNL d   1     -38.359  14.125  19.419  0.00  0.00     0.107 C 
ATOM      3  N   UNL d   1     -37.940  13.633  18.917  0.00  0.00    -0.191 NA
ENDROOT
BRANCH   1   4
ATOM      4  C   UNL d   1     -39.311  14.290  20.483  0.00  0.00     0.097 A 
ATOM      5  N   UNL d   1     -40.122  14.147  20.426  0.00  0.00    -0.226 NA
ATOM      6  C   UNL d   1     -40.377  13.818  21.139  0.00  0.00     0.166 A 
ATOM      7  C   UNL d   1     -39.725  13.755  21.638  0.00  0.00     0.037 A 
ATOM      8  C   UNL d   1     -39.060  14.045  21.240  0.00  0.00     0.021 A 
ATOM      9  C   UNL d   1     -39.644  13.471  22.408  0.00  0.00     0.003 A 
ATOM     10  C   UNL d   1     -38.327  14.051  21.607  0.00  0.00     0.002 A 
ATOM     11  C   UNL d   1     -38.245  13.767  22.376  0.00  0.00     0.000 A 
ATOM     12  C   UNL d   1     -38.911  13.477  22.774  0.00  0.00     0.000 A 
BRANCH   6  13
ATOM     13  N   UNL d   1     -41.127  13.582  21.354  0.00  0.00    -0.189 NA
ATOM     14  C   UNL d   1     -41.779  13.405  20.866  0.00  0.00     0.286 C 
ATOM     15  O   UNL d   1     -41.687  13.467  20.051  0.00  0.00    -0.265 OA
BRANCH  14  16
ATOM     16  C   UNL d   1     -42.505  13.172  21.180  0.00  0.00     0.087 A 
ATOM     17  S   UNL d   1     -43.171  13.648  21.078  0.00  0.00    -0.082 SA
ATOM     18  C   UNL d   1     -43.806  13.272  21.450  0.00  0.00     0.036 A 
ATOM     19  C   UNL d   1     -43.530  12.565  21.779  0.00  0.00     0.008 A 
ATOM     20  C   UNL d   1     -42.727  12.504  21.612  0.00  0.00     0.012 A 
ENDBRANCH  14  16
ENDBRANCH   6  13
ENDBRANCH   1   4
BRANCH   1  21
ATOM     21  C   UNL d   1     -38.686  15.434  19.886  0.00  0.00     0.290 C 
ATOM     22  O   UNL d   1     -38.299  15.835  20.492  0.00  0.00    -0.264 OA
ATOM     23  N   UNL d   1     -38.975  15.851  19.242  0.00  0.00    -0.206 NA
BRANCH  23  24
ATOM     24  C   UNL d   1     -39.362  15.451  18.637  0.00  0.00     0.102 C 
BRANCH  24  25
ATOM     25  C   UNL d   1     -39.422  15.548  17.820  0.00  0.00     0.021 C 
BRANCH  25  26
ATOM     26  C   UNL d   1     -40.159  15.531  17.454  0.00  0.00     0.002 A 
ATOM     27  C   UNL d   1     -40.256  15.134  16.736  0.00  0.00     0.000 A 
ATOM     28  C   UNL d   1     -40.997  15.120  16.373  0.00  0.00     0.000 A 
ATOM     29  C   UNL d   1     -41.646  15.499  16.719  0.00  0.00     0.000 A 
ATOM     30  C   UNL d   1     -41.538  15.899  17.446  0.00  0.00     0.000 A 
ATOM     31  C   UNL d   1     -40.804  15.914  17.809  0.00  0.00     0.000 A 
ENDBRANCH  25  26
ENDBRANCH  24  25
ENDBRANCH  23  24
ENDBRANCH   1  21
TORSDOF 7
ENDMDL
MODEL 4
REMARK VINA RESULT:      -4.5      6.450      8.454
REMARK  7 active torsions:
REMARK  status: ('A' for Active; 'I' for Inactive)
REMARK    1  A    between atoms: C_4  and  C_1 
REMARK    2  A    between atoms: N_5  and  C_3 
REMARK    3  A    between atoms: C_9  and  C_4 
REMARK       I    between atoms: C_7  and  N_5 
REMARK    4  A    between atoms: C_10  and  C_7 
REMARK       I    between atoms: N_19  and  C_9 
REMARK    5  A    between atoms: C_21  and  N_19 
REMARK    6  A    between atoms: C_24  and  C_21 
REMARK    7  A    between atoms: C_23  and  C_24 
ROOT
ATOM      1  C   UNL d   1     -46.278  12.417  23.132  0.00  0.00     0.144 C 
ATOM      2  C   UNL d   1     -46.777  11.799  23.347  0.00  0.00     0.107 C 
ATOM      3  N   UNL d   1     -47.268  11.180  23.559  0.00  0.00    -0.191 NA
ENDROOT
BRANCH   1   4
ATOM      4  C   UNL d   1     -45.510  12.263  22.852  0.00  0.00     0.097 A 
ATOM      5  N   UNL d   1     -45.033  12.699  22.338  0.00  0.00    -0.226 NA
ATOM      6  C   UNL d   1     -44.319  12.297  22.244  0.00  0.00     0.166 A 
ATOM      7  C   UNL d   1     -44.350  11.611  22.700  0.00  0.00     0.037 A 
ATOM      8  C   UNL d   1     -45.085  11.582  23.080  0.00  0.00     0.021 A 
ATOM      9  C   UNL d   1     -43.807  11.003  22.822  0.00  0.00     0.003 A 
ATOM     10  C   UNL d   1     -45.272  10.955  23.574  0.00  0.00     0.002 A 
ATOM     11  C   UNL d   1     -44.729  10.348  23.697  0.00  0.00     0.000 A 
ATOM     12  C   UNL d   1     -43.994  10.377  23.316  0.00  0.00     0.000 A 
BRANCH   6  13
ATOM     13  N   UNL d   1     -43.671  12.502  21.794  0.00  0.00    -0.189 NA
ATOM     14  C   UNL d   1     -43.370  13.261  21.627  0.00  0.00     0.286 C 
ATOM     15  O   UNL d   1     -43.756  13.914  21.946  0.00  0.00    -0.265 OA
BRANCH  14  16
ATOM     16  C   UNL d   1     -42.703  13.369  21.156  0.00  0.00     0.087 A 
ATOM     17  S   UNL d   1     -42.028  13.725  21.470  0.00  0.00    -0.082 SA
ATOM     18  C   UNL d   1     -41.459  13.756  20.871  0.00  0.00     0.036 A 
ATOM     19  C   UNL d   1     -41.785  13.420  20.189  0.00  0.00     0.008 A 
ATOM     20  C   UNL d   1     -42.553  13.182  20.366  0.00  0.00     0.012 A 
ENDBRANCH  14  16
ENDBRANCH   6  13
ENDBRANCH   1   4
BRANCH   1  21
ATOM     21  C   UNL d   1     -46.541  13.200  23.193  0.00  0.00     0.290 C 
ATOM     22  O   UNL d   1     -46.159  13.725  23.698  0.00  0.00    -0.264 OA
ATOM     23  N   UNL d   1     -47.183  13.454  22.751  0.00  0.00    -0.206 NA
BRANCH  23  24
ATOM     24  C   UNL d   1     -47.564  12.928  22.246  0.00  0.00     0.102 C 
BRANCH  24  25
ATOM     25  C   UNL d   1     -47.984  13.000  21.540  0.00  0.00     0.021 C 
BRANCH  25  26
ATOM     26  C   UNL d   1     -48.802  13.089  21.551  0.00  0.00     0.002 A 
ATOM     27  C   UNL d   1     -49.291  12.423  21.544  0.00  0.00     0.000 A 
ATOM     28  C   UNL d   1     -50.111  12.518  21.555  0.00  0.00     0.000 A 
ATOM     29  C   UNL d   1     -50.450  13.272  21.574  0.00  0.00     0.000 A 
ATOM     30  C   UNL d   1     -49.947  13.940  21.580  0.00  0.00     0.000 A 
ATOM     31  C   UNL d   1     -49.134  13.850  21.569  0.00  0.00     0.000 A 
ENDBRANCH  25  26
ENDBRANCH  24  25
ENDBRANCH  23  24
ENDBRANCH   1  21
TORSDOF 7
ENDMDL
MODEL 5
REMARK VINA RESULT:      -4.5      7.435      9.515
REMARK  7 active torsions:
REMARK  status: ('A' for Active; 'I' for Inactive)
REMARK    1  A    between atoms: C_4  and  C_1 
REMARK    2  A    between atoms: N_5  and  C_3 
REMARK    3  A    between atoms: C_9  and  C_4 
REMARK       I    between atoms: C_7  and  N_5 
REMARK    4  A    between atoms: C_10  and  C_7 
REMARK       I    between atoms: N_19  and  C_9 
REMARK    5  A    between atoms: C_21  and  N_19 
REMARK    6  A    between atoms: C_24  and  C_21 
REMARK    7  A    between atoms: C_23  and  C_24 
ROOT
ATOM      1  C   UNL d   1     -46.943  13.692  22.478  0.00  0.00     0.144 C 
ATOM      2  C   UNL d   1     -47.242  13.749  21.713  0.00  0.00     0.107 C 
ATOM      3  N   UNL d   1     -47.538  13.798  20.952  0.00  0.00    -0.191 NA
ENDROOT
BRANCH   1   4
ATOM      4  C   UNL d   1     -46.675  12.963  22.775  0.00  0.00     0.097 A 
ATOM      5  N   UNL d   1     -45.907  12.668  22.845  0.00  0.00    -0.226 NA
ATOM      6  C   UNL d   1     -45.950  11.913  23.176  0.00  0.00     0.166 A 
ATOM      7  C   UNL d   1     -46.744  11.739  23.312  0.00  0.00     0.037 A 
ATOM      8  C   UNL d   1     -47.200  12.385  23.065  0.00  0.00     0.021 A 
ATOM      9  C   UNL d   1     -47.118  11.076  23.628  0.00  0.00     0.003 A 
ATOM     10  C   UNL d   1     -48.017  12.365  23.135  0.00  0.00     0.002 A 
ATOM     11  C   UNL d   1     -48.391  11.703  23.451  0.00  0.00     0.000 A 
ATOM     12  C   UNL d   1     -47.934  11.057  23.697  0.00  0.00     0.000 A 
BRANCH   6  13
ATOM     13  N   UNL d   1     -45.344  11.398  23.355  0.00  0.00    -0.189 NA
ATOM     14  C   UNL d   1     -44.610  11.302  22.974  0.00  0.00     0.286 C 
ATOM     15  O   UNL d   1     -44.441  11.779  22.324  0.00  0.00    -0.265 OA
BRANCH  14  16
ATOM     16  C   UNL d   1     -44.056  10.748  23.230  0.00  0.00     0.087 A 
ATOM     17  S   UNL d   1     -43.252  10.933  23.222  0.00  0.00    -0.082 SA
ATOM     18  C   UNL d   1     -42.841  10.275  23.508  0.00  0.00     0.036 A 
ATOM     19  C   UNL d   1     -43.393   9.687  23.690  0.00  0.00     0.008 A 
ATOM     20  C   UNL d   1     -44.142   9.980  23.519  0.00  0.00     0.012 A 
ENDBRANCH  14  16
ENDBRANCH   6  13
ENDBRANCH   1   4
BRANCH   1  21
ATOM     21  C   UNL d   1     -46.908  14.367  22.957  0.00  0.00     0.290 C 
ATOM     22  O   UNL d   1     -46.203  14.574  23.327  0.00  0.00    -0.264 OA
ATOM     23  N   UNL d   1     -47.576  14.829  23.066  0.00  0.00    -0.206 NA
BRANCH  23  24
ATOM     24  C   UNL d   1     -48.281  14.621  22.696  0.00  0.00     0.102 C 
BRANCH  24  25
ATOM     25  C   UNL d   1     -48.918  15.039  22.382  0.00  0.00     0.021 C 
BRANCH  25  26
ATOM     26  C   UNL d   1     -49.620  15.106  22.807  0.00  0.00     0.002 A 
ATOM     27  C   UNL d   1     -49.872  15.846  23.078  0.00  0.00     0.000 A 
ATOM     28  C   UNL d   1     -50.577  15.907  23.503  0.00  0.00     0.000 A 
ATOM     29  C   UNL d   1     -51.035  15.237  23.663  0.00  0.00     0.000 A 
ATOM     30  C   UNL d   1     -50.772  14.493  23.384  0.00  0.00     0.000 A 
ATOM     31  C   UNL d   1     -50.074  14.429  22.962  0.00  0.00     0.000 A 
ENDBRANCH  25  26
ENDBRANCH  24  25
ENDBRANCH  23  24
ENDBRANCH   1  21
TORSDOF 7
ENDMDL
MODEL 6
REMARK VINA RESULT:      -3.3      2.166      2.719
REMARK  7 active torsions:
REMARK  status: ('A' for Active; 'I' for Inactive)
REMARK    1  A    between atoms: C_4  and  C_1 
REMARK    2  A    between atoms: N_5  and  C_3 
REMARK    3  A    between atoms: C_9  and  C_4 
REMARK       I    between atoms: C_7  and  N_5 
REMARK    4  A    between atoms: C_10  and  C_7 
REMARK       I    between atoms: N_19  and  C_9 
REMARK    5  A    between atoms: C_21  and  N_19 
REMARK    6  A    between atoms: C_24  and  C_21 
REMARK    7  A    between atoms: C_23  and  C_24 
ROOT
ATOM      1  C   UNL d   1     -40.036  14.918  18.940  0.00  0.00     0.144 C 
ATOM      2  C   UNL d   1     -39.384  15.421  18.929  0.00  0.00     0.107 C 
ATOM      3  N   UNL d   1     -38.737  15.922  18.926  0.00  0.00    -0.191 NA
ENDROOT
BRANCH   1   4
ATOM      4  C   UNL d   1     -40.367  14.671  19.661  0.00  0.00     0.097 A 
ATOM      5  N   UNL d   1     -41.056  14.240  19.809  0.00  0.00    -0.226 NA
ATOM      6  C   UNL d   1     -41.130  14.144  20.626  0.00  0.00     0.166 A 
ATOM      7  C   UNL d   1     -40.488  14.515  20.985  0.00  0.00     0.037 A 
ATOM      8  C   UNL d   1     -40.010  14.843  20.394  0.00  0.00     0.021 A 
ATOM      9  C   UNL d   1     -40.269  14.599  21.776  0.00  0.00     0.003 A 
ATOM     10  C   UNL d   1     -39.326  15.249  20.593  0.00  0.00     0.002 A 
ATOM     11  C   UNL d   1     -39.107  15.333  21.382  0.00  0.00     0.000 A 
ATOM     12  C   UNL d   1     -39.585  15.004  21.973  0.00  0.00     0.000 A 
BRANCH   6  13
ATOM     13  N   UNL d   1     -41.714  13.761  21.045  0.00  0.00    -0.189 NA
ATOM     14  C   UNL d   1     -42.358  13.317  20.758  0.00  0.00     0.286 C 
ATOM     15  O   UNL d   1     -42.445  13.235  19.943  0.00  0.00    -0.265 OA
BRANCH  14  16
ATOM     16  C   UNL d   1     -42.903  12.964  21.265  0.00  0.00     0.087 A 
ATOM     17  S   UNL d   1     -43.677  13.247  21.304  0.00  0.00    -0.082 SA
ATOM     18  C   UNL d   1     -44.085  12.785  21.855  0.00  0.00     0.036 A 
ATOM     19  C   UNL d   1     -43.562  12.219  22.154  0.00  0.00     0.008 A 
ATOM     20  C   UNL d   1     -42.833  12.330  21.790  0.00  0.00     0.012 A 
ENDBRANCH  14  16
ENDBRANCH   6  13
ENDBRANCH   1   4
BRANCH   1  21
ATOM     21  C   UNL d   1     -40.365  14.655  18.227  0.00  0.00     0.290 C 
ATOM     22  O   UNL d   1     -41.124  14.889  18.012  0.00  0.00    -0.264 OA
ATOM     23  N   UNL d   1     -39.935  14.162  17.733  0.00  0.00    -0.206 NA
BRANCH  23  24
ATOM     24  C   UNL d   1     -39.176  13.929  17.947  0.00  0.00     0.102 C 
BRANCH  24  25
ATOM     25  C   UNL d   1     -38.524  13.629  17.543  0.00  0.00     0.021 C 
BRANCH  25  26
ATOM     26  C   UNL d   1     -38.330  12.831  17.603  0.00  0.00     0.002 A 
ATOM     27  C   UNL d   1     -38.160  12.500  18.341  0.00  0.00     0.000 A 
ATOM     28  C   UNL d   1     -37.967  11.700  18.395  0.00  0.00     0.000 A 
ATOM     29  C   UNL d   1     -37.940  11.223  17.719  0.00  0.00     0.000 A 
ATOM     30  C   UNL d   1     -38.112  11.567  16.977  0.00  0.00     0.000 A 
ATOM     31  C   UNL d   1     -38.305  12.361  16.920  0.00  0.00     0.000 A 
ENDBRANCH  25  26
ENDBRANCH  24  25
ENDBRANCH  23  24
ENDBRANCH   1  21
TORSDOF 7
ENDMDL
MODEL 7
REMARK VINA RESULT:      -3.0      7.165      9.299
REMARK  7 active torsions:
REMARK  status: ('A' for Active; 'I' for Inactive)
REMARK    1  A    between atoms: C_4  and  C_1 
REMARK    2  A    between atoms: N_5  and  C_3 
REMARK    3  A    between atoms: C_9  and  C_4 
REMARK       I    between atoms: C_7  and  N_5 
REMARK    4  A    between atoms: C_10  and  C_7 
REMARK       I    between atoms: N_19  and  C_9 
REMARK    5  A    between atoms: C_21  and  N_19 
REMARK    6  A    between atoms: C_24  and  C_21 
REMARK    7  A    between atoms: C_23  and  C_24 
ROOT
ATOM      1  C   UNL d   1     -47.450  12.247  22.470  0.00  0.00     0.144 C 
ATOM      2  C   UNL d   1     -47.924  12.159  21.803  0.00  0.00     0.107 C 
ATOM      3  N   UNL d   1     -48.390  12.076  21.136  0.00  0.00    -0.191 NA
ENDROOT
BRANCH   1   4
ATOM      4  C   UNL d   1     -46.741  12.680  22.431  0.00  0.00     0.097 A 
ATOM      5  N   UNL d   1     -45.973  12.430  22.260  0.00  0.00    -0.226 NA
ATOM      6  C   UNL d   1     -45.474  13.086  22.296  0.00  0.00     0.166 A 
ATOM      7  C   UNL d   1     -45.930  13.744  22.489  0.00  0.00     0.037 A 
ATOM      8  C   UNL d   1     -46.717  13.501  22.575  0.00  0.00     0.021 A 
ATOM      9  C   UNL d   1     -45.737  14.538  22.599  0.00  0.00     0.003 A 
ATOM     10  C   UNL d   1     -47.300  14.045  22.768  0.00  0.00     0.002 A 
ATOM     11  C   UNL d   1     -47.107  14.838  22.879  0.00  0.00     0.000 A 
ATOM     12  C   UNL d   1     -46.320  15.081  22.793  0.00  0.00     0.000 A 
BRANCH   6  13
ATOM     13  N   UNL d   1     -44.669  13.124  22.170  0.00  0.00    -0.189 NA
ATOM     14  C   UNL d   1     -44.223  12.808  21.541  0.00  0.00     0.286 C 
ATOM     15  O   UNL d   1     -44.618  12.396  20.949  0.00  0.00    -0.265 OA
BRANCH  14  16
ATOM     16  C   UNL d   1     -43.405  12.899  21.501  0.00  0.00     0.087 A 
ATOM     17  S   UNL d   1     -43.076  13.469  21.003  0.00  0.00    -0.082 SA
ATOM     18  C   UNL d   1     -42.254  13.427  21.083  0.00  0.00     0.036 A 
ATOM     19  C   UNL d   1     -42.079  12.832  21.630  0.00  0.00     0.008 A 
ATOM     20  C   UNL d   1     -42.789  12.507  21.887  0.00  0.00     0.012 A 
ENDBRANCH  14  16
ENDBRANCH   6  13
ENDBRANCH   1   4
BRANCH   1  21
ATOM     21  C   UNL d   1     -47.679  11.901  23.186  0.00  0.00     0.290 C 
ATOM     22  O   UNL d   1     -47.127  11.500  23.646  0.00  0.00    -0.264 OA
ATOM     23  N   UNL d   1     -48.456  11.956  23.440  0.00  0.00    -0.206 NA
BRANCH  23  24
ATOM     24  C   UNL d   1     -49.008  12.357  22.981  0.00  0.00     0.102 C 
BRANCH  24  25
ATOM     25  C   UNL d   1     -49.831  12.365  22.935  0.00  0.00     0.021 C 
BRANCH  25  26
ATOM     26  C   UNL d   1     -50.240  13.080  22.959  0.00  0.00     0.002 A 
ATOM     27  C   UNL d   1     -50.631  13.356  22.285  0.00  0.00     0.000 A 
ATOM     28  C   UNL d   1     -51.040  14.072  22.315  0.00  0.00     0.000 A 
ATOM     29  C   UNL d   1     -51.063  14.518  23.012  0.00  0.00     0.000 A 
ATOM     30  C   UNL d   1     -50.664  14.231  23.688  0.00  0.00     0.000 A 
ATOM     31  C   UNL d   1     -50.258  13.521  23.662  0.00  0.00     0.000 A 
ENDBRANCH  25  26
ENDBRANCH  24  25
ENDBRANCH  23  24
ENDBRANCH   1  21
TORSDOF 7
ENDMDL
