MODEL 1
REMARK VINA RESULT:      12.2      0.000      0.000
REMARK  1 active torsions:
REMARK  status: ('A' for Active; 'I' for Inactive)
REMARK    1  A    between atoms: C_5  and  C_1 
ROOT
ATOM      1  C   UNL d   1      43.964 -15.297  36.722  0.00  0.00     0.162 A 
ATOM      2  N   UNL d   1      44.221 -14.719  37.213  0.00  0.00    -0.225 NA
ATOM      3  N   UNL d   1      44.572 -15.644  36.341  0.00  0.00    -0.225 NA
ATOM      4  C   UNL d   1      45.060 -14.691  37.144  0.00  0.00     0.101 A 
ATOM      5  C   UNL d   1      45.279 -15.265  36.602  0.00  0.00     0.101 A 
ATOM      6  C   UNL d   1      45.627 -14.213  37.510  0.00  0.00     0.021 A 
ATOM      7  C   UNL d   1      46.070 -15.376  36.412  0.00  0.00     0.021 A 
ATOM      8  C   UNL d   1      46.647 -14.904  36.771  0.00  0.00     0.002 A 
ATOM      9  C   UNL d   1      46.428 -14.330  37.313  0.00  0.00     0.002 A 
ENDROOT
BRANCH   1  10
ATOM     10  C   UNL d   1      43.182 -15.504  36.625  0.00  0.00     0.036 A 
ATOM     11  C   UNL d   1      42.973 -16.276  36.430  0.00  0.00     0.003 A 
ATOM     12  C   UNL d   1      43.571 -16.843  36.333  0.00  0.00     0.000 C 
ATOM     13  C   UNL d   1      42.180 -16.485  36.331  0.00  0.00     0.000 A 
ATOM     14  C   UNL d   1      41.577 -15.927  36.426  0.00  0.00     0.000 A 
ATOM     15  C   UNL d   1      41.794 -15.157  36.621  0.00  0.00     0.000 A 
ATOM     16  C   UNL d   1      42.587 -14.948  36.719  0.00  0.00     0.003 A 
ENDBRANCH   1  10
TORSDOF 1
ENDMDL
MODEL 2
REMARK VINA RESULT:      13.3      0.498      3.476
REMARK  1 active torsions:
REMARK  status: ('A' for Active; 'I' for Inactive)
REMARK    1  A    between atoms: C_5  and  C_1 
ROOT
ATOM      1  C   UNL d   1      44.314 -15.443  36.687  0.00  0.00     0.162 A 
ATOM      2  N   UNL d   1      43.677 -14.962  36.629  0.00  0.00    -0.225 NA
ATOM      3  N   UNL d   1      44.105 -16.210  36.626  0.00  0.00    -0.225 NA
ATOM      4  C   UNL d   1      43.003 -15.458  36.521  0.00  0.00     0.101 A 
ATOM      5  C   UNL d   1      43.269 -16.232  36.519  0.00  0.00     0.101 A 
ATOM      6  C   UNL d   1      42.200 -15.283  36.428  0.00  0.00     0.021 A 
ATOM      7  C   UNL d   1      42.739 -16.853  36.424  0.00  0.00     0.021 A 
ATOM      8  C   UNL d   1      41.933 -16.690  36.330  0.00  0.00     0.002 A 
ATOM      9  C   UNL d   1      41.667 -15.916  36.332  0.00  0.00     0.002 A 
ENDROOT
BRANCH   1  10
ATOM     10  C   UNL d   1      45.079 -15.181  36.796  0.00  0.00     0.036 A 
ATOM     11  C   UNL d   1      45.250 -14.617  37.370  0.00  0.00     0.003 A 
ATOM     12  C   UNL d   1      44.635 -14.318  37.838  0.00  0.00     0.000 C 
ATOM     13  C   UNL d   1      46.025 -14.351  37.480  0.00  0.00     0.000 A 
ATOM     14  C   UNL d   1      46.645 -14.644  37.018  0.00  0.00     0.000 A 
ATOM     15  C   UNL d   1      46.465 -15.208  36.446  0.00  0.00     0.000 A 
ATOM     16  C   UNL d   1      45.691 -15.473  36.336  0.00  0.00     0.003 A 
ENDBRANCH   1  10
TORSDOF 1
ENDMDL
