MODEL 1
REMARK VINA RESULT:      11.1      0.000      0.000
REMARK  4 active torsions:
REMARK  status: ('A' for Active; 'I' for Inactive)
REMARK    1  A    between atoms: C_2  and  N_1 
REMARK    2  A    between atoms: N_7  and  C_3 
REMARK    3  A    between atoms: C_12  and  N_7 
REMARK    4  A    between atoms: C_14  and  C_12 
ROOT
ATOM      1  C   UNL d   1      46.253 -18.708  43.482  0.00  0.00     0.200 A 
ATOM      2  C   UNL d   1      46.269 -18.251  44.180  0.00  0.00     0.189 A 
ATOM      3  C   UNL d   1      46.435 -19.501  43.525  0.00  0.00     0.210 A 
ATOM      4  N   UNL d   1      46.467 -18.599  44.901  0.00  0.00    -0.203 NA
ATOM      5  N   UNL d   1      46.631 -19.857  44.227  0.00  0.00    -0.202 NA
ATOM      6  C   UNL d   1      46.647 -19.400  44.924  0.00  0.00     0.202 A 
ATOM      7  N   UNL d   1      46.419 -19.958  42.828  0.00  0.00    -0.125 N 
ENDROOT
BRANCH   2   8
ATOM      8  N   UNL d   1      46.091 -17.455  44.159  0.00  0.00    -0.224 NA
BRANCH   8   9
ATOM      9  C   UNL d   1      45.847 -17.065  44.834  0.00  0.00     0.101 C 
BRANCH   9  10
ATOM     10  C   UNL d   1      45.677 -16.255  44.809  0.00  0.00     0.019 A 
ATOM     11  C   UNL d   1      46.261 -15.723  44.644  0.00  0.00     0.004 A 
ATOM     12  C   UNL d   1      46.089 -14.908  44.619  0.00  0.00     0.030 A 
ATOM     13  C   UNL d   1      45.319 -14.650  44.764  0.00  0.00     0.140 A 
ATOM     14  C   UNL d   1      44.734 -15.183  44.929  0.00  0.00     0.030 A 
ATOM     15  F   UNL d   1      45.155 -13.845  44.738  0.00  0.00    -0.204 F 
ATOM     16  C   UNL d   1      44.901 -15.990  44.955  0.00  0.00     0.004 A 
ENDBRANCH   9  10
ENDBRANCH   8   9
ENDBRANCH   2   8
BRANCH   1  17
ATOM     17  N   UNL d   1      46.058 -18.368  42.765  0.00  0.00    -0.107 N 
ATOM     18  O   UNL d   1      46.647 -18.045  42.308  0.00  0.00    -0.531 OA
ATOM     19  O   UNL d   1      45.278 -18.355  42.514  0.00  0.00    -0.531 OA
ENDBRANCH   1  17
TORSDOF 4
ENDMDL
