MODEL 1
REMARK VINA RESULT:     101.4      0.000      0.000
REMARK  3 active torsions:
REMARK  status: ('A' for Active; 'I' for Inactive)
REMARK    1  A    between atoms: C_2  and  C_1 
REMARK    2  A    between atoms: C_13  and  N_4 
REMARK    3  A    between atoms: C_12  and  C_15 
ROOT
ATOM      1  C   UNL d   1      60.659  47.674  50.530  0.00  0.00     0.106 A 
ATOM      2  C   UNL d   1      60.227  48.904  50.832  0.00  0.00     0.206 A 
ATOM      3  N   UNL d   1      59.578  48.467  50.574  0.00  0.00    -0.281 N 
ATOM      4  N   UNL d   1      60.900  48.421  50.807  0.00  0.00    -0.217 NA
ATOM      5  C   UNL d   1      59.842  47.707  50.387  0.00  0.00     0.102 A 
ATOM      6  S   UNL d   1      60.214  49.692  51.074  0.00  0.00    -0.038 SA
ENDROOT
BRANCH   1   7
ATOM      7  C   UNL d   1      61.143  47.022  50.418  0.00  0.00     0.083 A 
ATOM      8  C   UNL d   1      61.171  46.424  50.993  0.00  0.00     0.302 A 
ATOM      9  O   UNL d   1      61.664  45.763  50.877  0.00  0.00    -0.273 OA
ATOM     10  O   UNL d   1      60.714  46.481  51.677  0.00  0.00    -0.259 OA
ATOM     11  C   UNL d   1      62.123  45.700  50.194  0.00  0.00     0.103 A 
ATOM     12  C   UNL d   1      62.096  46.297  49.619  0.00  0.00     0.023 A 
ATOM     13  C   UNL d   1      62.608  45.045  50.085  0.00  0.00     0.025 A 
ATOM     14  C   UNL d   1      61.603  46.964  49.729  0.00  0.00     0.009 A 
ATOM     15  C   UNL d   1      62.552  46.236  48.938  0.00  0.00     0.002 A 
ATOM     16  C   UNL d   1      63.038  45.581  48.829  0.00  0.00     0.000 A 
ATOM     17  C   UNL d   1      63.065  44.983  49.404  0.00  0.00     0.002 A 
ENDBRANCH   1   7
BRANCH   3  18
ATOM     18  C   UNL d   1      58.810  48.739  50.514  0.00  0.00     0.066 A 
ATOM     19  C   UNL d   1      58.391  48.958  51.199  0.00  0.00     0.018 A 
ATOM     20  C   UNL d   1      57.617  49.234  51.142  0.00  0.00     0.008 A 
ATOM     21  C   UNL d   1      57.252  49.293  50.399  0.00  0.00     0.065 A 
ATOM     22  C   UNL d   1      57.666  49.077  49.723  0.00  0.00     0.008 A 
ATOM     23  C   UNL d   1      58.444  48.800  49.779  0.00  0.00     0.018 A 
BRANCH  21  24
ATOM     24  C   UNL d   1      56.479  49.568  50.340  0.00  0.00     0.211 C 
ATOM     25  O   UNL d   1      56.147  49.706  49.593  0.00  0.00    -0.644 OA
ATOM     26  O   UNL d   1      56.033  49.706  51.018  0.00  0.00    -0.644 OA
ENDBRANCH  21  24
ENDBRANCH   3  18
TORSDOF 3
ENDMDL
