MODEL 1
REMARK VINA RESULT:      20.4      0.000      0.000
REMARK  4 active torsions:
REMARK  status: ('A' for Active; 'I' for Inactive)
REMARK    1  A    between atoms: C_7  and  N_1 
REMARK    2  A    between atoms: N_6  and  C_2 
REMARK    3  A    between atoms: C_10  and  N_6 
REMARK    4  A    between atoms: C_12  and  C_7 
ROOT
ATOM      1  N   UNL d   1      45.420 -13.897  44.537  0.00  0.00    -0.239 N 
ATOM      2  C   UNL d   1      45.311 -15.236  44.672  0.00  0.00     0.151 A 
ATOM      3  C   UNL d   1      44.885 -14.538  44.433  0.00  0.00     0.285 A 
ATOM      4  C   UNL d   1      46.168 -14.218  44.839  0.00  0.00     0.269 A 
ATOM      5  C   UNL d   1      46.069 -15.026  44.909  0.00  0.00     0.086 A 
ATOM      6  O   UNL d   1      44.238 -14.550  44.208  0.00  0.00    -0.265 OA
ATOM      7  O   UNL d   1      46.643 -13.761  44.946  0.00  0.00    -0.267 OA
ENDROOT
BRANCH   2   8
ATOM      8  N   UNL d   1      45.028 -16.017  44.673  0.00  0.00    -0.181 N 
ATOM      9  O   UNL d   1      44.327 -16.003  44.950  0.00  0.00    -0.080 OA
BRANCH   8  10
ATOM     10  C   UNL d   1      45.507 -16.633  44.399  0.00  0.00     0.090 A 
ATOM     11  C   UNL d   1      45.666 -16.725  43.590  0.00  0.00     0.020 A 
ATOM     12  C   UNL d   1      46.151 -17.349  43.323  0.00  0.00     0.002 A 
ATOM     13  C   UNL d   1      46.486 -17.891  43.857  0.00  0.00     0.000 A 
ATOM     14  C   UNL d   1      46.326 -17.797  44.665  0.00  0.00     0.002 A 
ATOM     15  C   UNL d   1      45.844 -17.178  44.938  0.00  0.00     0.020 A 
ENDBRANCH   8  10
ENDBRANCH   2   8
BRANCH   1  16
ATOM     16  C   UNL d   1      45.356 -13.131  44.415  0.00  0.00     0.086 C 
BRANCH  16  17
ATOM     17  C   UNL d   1      45.321 -12.834  43.660  0.00  0.00     0.018 A 
ATOM     18  C   UNL d   1      44.662 -12.421  43.418  0.00  0.00     0.002 A 
ATOM     19  C   UNL d   1      44.628 -12.124  42.662  0.00  0.00     0.000 A 
ATOM     20  C   UNL d   1      45.241 -12.235  42.150  0.00  0.00     0.000 A 
ATOM     21  C   UNL d   1      45.909 -12.654  42.395  0.00  0.00     0.000 A 
ATOM     22  C   UNL d   1      45.950 -12.957  43.161  0.00  0.00     0.002 A 
ENDBRANCH  16  17
ENDBRANCH   1  16
TORSDOF 4
ENDMDL
