MODEL 1
REMARK VINA RESULT:      -7.7      0.000      0.000
REMARK  6 active torsions:
REMARK  status: ('A' for Active; 'I' for Inactive)
REMARK    1  A    between atoms: C_15  and  C_2 
REMARK    2  A    between atoms: C_19  and  C_3 
REMARK    3  A    between atoms: C_4  and  C_16 
REMARK       I    between atoms: N_7  and  C_4 
REMARK    4  A    between atoms: C_14  and  N_7 
REMARK    5  A    between atoms: C_8  and  C_9 
REMARK    6  A    between atoms: C_16  and  C_15 
ROOT
ATOM      1  C   UNL d   1     -49.327  11.634  23.247  0.00  0.00     0.279 C 
ATOM      2  N   UNL d   1     -48.538  11.402  23.214  0.00  0.00    -0.208 NA
ATOM      3  O   UNL d   1     -49.919  11.074  23.391  0.00  0.00    -0.265 OA
ENDROOT
BRANCH   1   4
ATOM      4  C   UNL d   1     -49.531  12.428  23.136  0.00  0.00     0.065 C 
BRANCH   4   5
ATOM      5  C   UNL d   1     -50.325  12.663  23.181  0.00  0.00     0.030 C 
BRANCH   5   6
ATOM      6  C   UNL d   1     -50.532  13.454  23.071  0.00  0.00     0.100 A 
ATOM      7  O   UNL d   1     -50.382  14.065  23.600  0.00  0.00    -0.307 OA
ATOM      8  C   UNL d   1     -50.681  14.757  23.271  0.00  0.00     0.100 A 
ATOM      9  C   UNL d   1     -51.019  14.565  22.528  0.00  0.00     0.027 A 
ATOM     10  C   UNL d   1     -50.922  13.758  22.416  0.00  0.00     0.027 A 
BRANCH   8  11
ATOM     11  C   UNL d   1     -50.656  15.507  23.603  0.00  0.00     0.025 C 
ATOM     12  C   UNL d   1     -49.941  15.910  23.681  0.00  0.00     0.002 C 
ENDBRANCH   8  11
ENDBRANCH   5   6
ENDBRANCH   4   5
ENDBRANCH   1   4
BRANCH   2  13
ATOM     13  C   UNL d   1     -47.948  11.972  23.069  0.00  0.00     0.085 A 
ATOM     14  C   UNL d   1     -47.509  12.271  23.698  0.00  0.00     0.019 A 
ATOM     15  C   UNL d   1     -46.923  12.838  23.550  0.00  0.00     0.005 A 
ATOM     16  C   UNL d   1     -46.779  13.100  22.780  0.00  0.00     0.039 A 
ATOM     17  C   UNL d   1     -47.234  12.785  22.151  0.00  0.00     0.005 A 
ATOM     18  C   UNL d   1     -47.813  12.225  22.300  0.00  0.00     0.019 A 
BRANCH  16  19
ATOM     19  C   UNL d   1     -46.197  13.664  22.630  0.00  0.00     0.196 C 
ATOM     20  O   UNL d   1     -45.504  13.450  22.235  0.00  0.00    -0.287 OA
ATOM     21  C   UNL d   1     -46.307  14.445  22.876  0.00  0.00     0.045 C 
ENDBRANCH  16  19
ENDBRANCH   2  13
TORSDOF 6
ENDMDL
MODEL 2
REMARK VINA RESULT:      -7.1      1.595      2.629
REMARK  6 active torsions:
REMARK  status: ('A' for Active; 'I' for Inactive)
REMARK    1  A    between atoms: C_15  and  C_2 
REMARK    2  A    between atoms: C_19  and  C_3 
REMARK    3  A    between atoms: C_4  and  C_16 
REMARK       I    between atoms: N_7  and  C_4 
REMARK    4  A    between atoms: C_14  and  N_7 
REMARK    5  A    between atoms: C_8  and  C_9 
REMARK    6  A    between atoms: C_16  and  C_15 
ROOT
ATOM      1  C   UNL d   1     -47.724  15.004  22.449  0.00  0.00     0.279 C 
ATOM      2  N   UNL d   1     -46.926  14.826  22.544  0.00  0.00    -0.208 NA
ATOM      3  O   UNL d   1     -47.958  15.776  22.266  0.00  0.00    -0.265 OA
ENDROOT
BRANCH   1   4
ATOM      4  C   UNL d   1     -48.294  14.411  22.535  0.00  0.00     0.065 C 
BRANCH   4   5
ATOM      5  C   UNL d   1     -49.090  14.573  22.367  0.00  0.00     0.030 C 
BRANCH   5   6
ATOM      6  C   UNL d   1     -49.663  13.985  22.457  0.00  0.00     0.100 A 
ATOM      7  O   UNL d   1     -49.847  13.602  23.160  0.00  0.00    -0.307 OA
ATOM      8  C   UNL d   1     -50.446  13.062  22.998  0.00  0.00     0.100 A 
ATOM      9  C   UNL d   1     -50.630  13.116  22.182  0.00  0.00     0.027 A 
ATOM     10  C   UNL d   1     -50.140  13.690  21.858  0.00  0.00     0.027 A 
BRANCH   8  11
ATOM     11  C   UNL d   1     -50.805  12.555  23.534  0.00  0.00     0.025 C 
ATOM     12  C   UNL d   1     -50.502  11.801  23.670  0.00  0.00     0.002 C 
ENDBRANCH   8  11
ENDBRANCH   5   6
ENDBRANCH   4   5
ENDBRANCH   1   4
BRANCH   2  13
ATOM     13  C   UNL d   1     -46.698  14.045  22.727  0.00  0.00     0.085 A 
ATOM     14  C   UNL d   1     -46.481  13.532  22.121  0.00  0.00     0.019 A 
ATOM     15  C   UNL d   1     -46.255  12.757  22.307  0.00  0.00     0.005 A 
ATOM     16  C   UNL d   1     -46.247  12.500  23.092  0.00  0.00     0.039 A 
ATOM     17  C   UNL d   1     -46.470  13.035  23.697  0.00  0.00     0.005 A 
ATOM     18  C   UNL d   1     -46.693  13.801  23.511  0.00  0.00     0.019 A 
BRANCH  16  19
ATOM     19  C   UNL d   1     -46.022  11.730  23.280  0.00  0.00     0.196 C 
ATOM     20  O   UNL d   1     -45.227  11.549  23.410  0.00  0.00    -0.287 OA
ATOM     21  C   UNL d   1     -46.595  11.137  23.340  0.00  0.00     0.045 C 
ENDBRANCH  16  19
ENDBRANCH   2  13
TORSDOF 6
ENDMDL
MODEL 3
REMARK VINA RESULT:      -7.0      1.038      3.600
REMARK  6 active torsions:
REMARK  status: ('A' for Active; 'I' for Inactive)
REMARK    1  A    between atoms: C_15  and  C_2 
REMARK    2  A    between atoms: C_19  and  C_3 
REMARK    3  A    between atoms: C_4  and  C_16 
REMARK       I    between atoms: N_7  and  C_4 
REMARK    4  A    between atoms: C_14  and  N_7 
REMARK    5  A    between atoms: C_8  and  C_9 
REMARK    6  A    between atoms: C_16  and  C_15 
ROOT
ATOM      1  C   UNL d   1     -49.136  11.425  23.434  0.00  0.00     0.279 C 
ATOM      2  N   UNL d   1     -49.934  11.556  23.279  0.00  0.00    -0.208 NA
ATOM      3  O   UNL d   1     -48.881  10.683  23.698  0.00  0.00    -0.265 OA
ENDROOT
BRANCH   1   4
ATOM      4  C   UNL d   1     -48.587  12.034  23.326  0.00  0.00     0.065 C 
BRANCH   4   5
ATOM      5  C   UNL d   1     -47.790  11.913  23.519  0.00  0.00     0.030 C 
BRANCH   5   6
ATOM      6  C   UNL d   1     -47.215  12.454  23.274  0.00  0.00     0.100 A 
ATOM      7  O   UNL d   1     -47.262  13.270  23.356  0.00  0.00    -0.307 OA
ATOM      8  C   UNL d   1     -46.574  13.590  23.039  0.00  0.00     0.100 A 
ATOM      9  C   UNL d   1     -46.100  12.958  22.758  0.00  0.00     0.027 A 
ATOM     10  C   UNL d   1     -46.506  12.261  22.908  0.00  0.00     0.027 A 
BRANCH   8  11
ATOM     11  C   UNL d   1     -46.378  14.386  23.000  0.00  0.00     0.025 C 
ATOM     12  C   UNL d   1     -46.897  14.933  22.668  0.00  0.00     0.002 C 
ENDBRANCH   8  11
ENDBRANCH   5   6
ENDBRANCH   4   5
ENDBRANCH   1   4
BRANCH   2  13
ATOM     13  C   UNL d   1     -50.183  12.306  23.013  0.00  0.00     0.085 A 
ATOM     14  C   UNL d   1     -50.464  12.856  23.557  0.00  0.00     0.019 A 
ATOM     15  C   UNL d   1     -50.711  13.601  23.289  0.00  0.00     0.005 A 
ATOM     16  C   UNL d   1     -50.677  13.790  22.486  0.00  0.00     0.039 A 
ATOM     17  C   UNL d   1     -50.389  13.218  21.946  0.00  0.00     0.005 A 
ATOM     18  C   UNL d   1     -50.146  12.483  22.212  0.00  0.00     0.019 A 
BRANCH  16  19
ATOM     19  C   UNL d   1     -50.922  14.529  22.217  0.00  0.00     0.196 C 
ATOM     20  O   UNL d   1     -51.064  14.652  21.413  0.00  0.00    -0.287 OA
ATOM     21  C   UNL d   1     -51.027  15.148  22.754  0.00  0.00     0.045 C 
ENDBRANCH  16  19
ENDBRANCH   2  13
TORSDOF 6
ENDMDL
MODEL 4
REMARK VINA RESULT:      -6.9      1.619      4.422
REMARK  6 active torsions:
REMARK  status: ('A' for Active; 'I' for Inactive)
REMARK    1  A    between atoms: C_15  and  C_2 
REMARK    2  A    between atoms: C_19  and  C_3 
REMARK    3  A    between atoms: C_4  and  C_16 
REMARK       I    between atoms: N_7  and  C_4 
REMARK    4  A    between atoms: C_14  and  N_7 
REMARK    5  A    between atoms: C_8  and  C_9 
REMARK    6  A    between atoms: C_16  and  C_15 
ROOT
ATOM      1  C   UNL d   1     -47.867  15.045  22.532  0.00  0.00     0.279 C 
ATOM      2  N   UNL d   1     -48.689  15.083  22.509  0.00  0.00    -0.208 NA
ATOM      3  O   UNL d   1     -47.417  15.731  22.419  0.00  0.00    -0.265 OA
ENDROOT
BRANCH   1   4
ATOM      4  C   UNL d   1     -47.488  14.323  22.668  0.00  0.00     0.065 C 
BRANCH   4   5
ATOM      5  C   UNL d   1     -46.662  14.294  22.736  0.00  0.00     0.030 C 
BRANCH   5   6
ATOM      6  C   UNL d   1     -46.272  13.566  22.767  0.00  0.00     0.100 A 
ATOM      7  O   UNL d   1     -46.391  12.986  23.336  0.00  0.00    -0.307 OA
ATOM      8  C   UNL d   1     -45.891  12.358  23.157  0.00  0.00     0.100 A 
ATOM      9  C   UNL d   1     -45.460  12.559  22.467  0.00  0.00     0.027 A 
ATOM     10  C   UNL d   1     -45.704  13.308  22.235  0.00  0.00     0.027 A 
BRANCH   8  11
ATOM     11  C   UNL d   1     -45.820  11.655  23.574  0.00  0.00     0.025 C 
ATOM     12  C   UNL d   1     -46.472  11.164  23.688  0.00  0.00     0.002 C 
ENDBRANCH   8  11
ENDBRANCH   5   6
ENDBRANCH   4   5
ENDBRANCH   1   4
BRANCH   2  13
ATOM     13  C   UNL d   1     -49.135  14.388  22.623  0.00  0.00     0.085 A 
ATOM     14  C   UNL d   1     -49.294  13.898  21.981  0.00  0.00     0.019 A 
ATOM     15  C   UNL d   1     -49.738  13.208  22.099  0.00  0.00     0.005 A 
ATOM     16  C   UNL d   1     -50.019  13.013  22.850  0.00  0.00     0.039 A 
ATOM     17  C   UNL d   1     -49.848  13.523  23.493  0.00  0.00     0.005 A 
ATOM     18  C   UNL d   1     -49.409  14.205  23.375  0.00  0.00     0.019 A 
BRANCH  16  19
ATOM     19  C   UNL d   1     -50.461  12.328  22.970  0.00  0.00     0.196 C 
ATOM     20  O   UNL d   1     -51.060  12.122  22.440  0.00  0.00    -0.287 OA
ATOM     21  C   UNL d   1     -50.304  11.846  23.623  0.00  0.00     0.045 C 
ENDBRANCH  16  19
ENDBRANCH   2  13
TORSDOF 6
ENDMDL
MODEL 5
REMARK VINA RESULT:      -6.2      1.371      2.792
REMARK  6 active torsions:
REMARK  status: ('A' for Active; 'I' for Inactive)
REMARK    1  A    between atoms: C_15  and  C_2 
REMARK    2  A    between atoms: C_19  and  C_3 
REMARK    3  A    between atoms: C_4  and  C_16 
REMARK       I    between atoms: N_7  and  C_4 
REMARK    4  A    between atoms: C_14  and  N_7 
REMARK    5  A    between atoms: C_8  and  C_9 
REMARK    6  A    between atoms: C_16  and  C_15 
ROOT
ATOM      1  C   UNL d   1     -46.946  14.744  22.598  0.00  0.00     0.279 C 
ATOM      2  N   UNL d   1     -46.487  14.062  22.561  0.00  0.00    -0.208 NA
ATOM      3  O   UNL d   1     -46.611  15.481  22.425  0.00  0.00    -0.265 OA
ENDROOT
BRANCH   1   4
ATOM      4  C   UNL d   1     -47.744  14.696  22.810  0.00  0.00     0.065 C 
BRANCH   4   5
ATOM      5  C   UNL d   1     -48.267  15.305  22.600  0.00  0.00     0.030 C 
BRANCH   5   6
ATOM      6  C   UNL d   1     -49.080  15.213  22.713  0.00  0.00     0.100 A 
ATOM      7  O   UNL d   1     -49.567  14.709  22.285  0.00  0.00    -0.307 OA
ATOM      8  C   UNL d   1     -50.331  14.794  22.579  0.00  0.00     0.100 A 
ATOM      9  C   UNL d   1     -50.309  15.360  23.197  0.00  0.00     0.027 A 
ATOM     10  C   UNL d   1     -49.531  15.612  23.270  0.00  0.00     0.027 A 
BRANCH   8  11
ATOM     11  C   UNL d   1     -51.001  14.399  22.320  0.00  0.00     0.025 C 
ATOM     12  C   UNL d   1     -50.948  13.639  22.005  0.00  0.00     0.002 C 
ENDBRANCH   8  11
ENDBRANCH   5   6
ENDBRANCH   4   5
ENDBRANCH   1   4
BRANCH   2  13
ATOM     13  C   UNL d   1     -46.832  13.324  22.737  0.00  0.00     0.085 A 
ATOM     14  C   UNL d   1     -47.150  12.869  22.129  0.00  0.00     0.019 A 
ATOM     15  C   UNL d   1     -47.492  12.136  22.308  0.00  0.00     0.005 A 
ATOM     16  C   UNL d   1     -47.515  11.863  23.087  0.00  0.00     0.039 A 
ATOM     17  C   UNL d   1     -47.187  12.339  23.694  0.00  0.00     0.005 A 
ATOM     18  C   UNL d   1     -46.849  13.063  23.515  0.00  0.00     0.019 A 
BRANCH  16  19
ATOM     19  C   UNL d   1     -47.854  11.134  23.267  0.00  0.00     0.196 C 
ATOM     20  O   UNL d   1     -47.421  10.438  23.169  0.00  0.00    -0.287 OA
ATOM     21  C   UNL d   1     -48.631  11.101  23.549  0.00  0.00     0.045 C 
ENDBRANCH  16  19
ENDBRANCH   2  13
TORSDOF 6
ENDMDL
MODEL 6
REMARK VINA RESULT:      -6.1      1.425      2.047
REMARK  6 active torsions:
REMARK  status: ('A' for Active; 'I' for Inactive)
REMARK    1  A    between atoms: C_15  and  C_2 
REMARK    2  A    between atoms: C_19  and  C_3 
REMARK    3  A    between atoms: C_4  and  C_16 
REMARK       I    between atoms: N_7  and  C_4 
REMARK    4  A    between atoms: C_14  and  N_7 
REMARK    5  A    between atoms: C_8  and  C_9 
REMARK    6  A    between atoms: C_16  and  C_15 
ROOT
ATOM      1  C   UNL d   1     -47.430  11.298  23.461  0.00  0.00     0.279 C 
ATOM      2  N   UNL d   1     -46.688  11.639  23.352  0.00  0.00    -0.208 NA
ATOM      3  O   UNL d   1     -47.492  10.503  23.685  0.00  0.00    -0.265 OA
ENDROOT
BRANCH   1   4
ATOM      4  C   UNL d   1     -48.114  11.747  23.346  0.00  0.00     0.065 C 
BRANCH   4   5
ATOM      5  C   UNL d   1     -48.858  11.380  23.351  0.00  0.00     0.030 C 
BRANCH   5   6
ATOM      6  C   UNL d   1     -49.536  11.809  23.157  0.00  0.00     0.100 A 
ATOM      7  O   UNL d   1     -49.763  12.026  22.398  0.00  0.00    -0.307 OA
ATOM      8  C   UNL d   1     -50.468  12.445  22.461  0.00  0.00     0.100 A 
ATOM      9  C   UNL d   1     -50.674  12.485  23.272  0.00  0.00     0.027 A 
ATOM     10  C   UNL d   1     -50.091  12.089  23.693  0.00  0.00     0.027 A 
BRANCH   8  11
ATOM     11  C   UNL d   1     -50.899  12.770  21.843  0.00  0.00     0.025 C 
ATOM     12  C   UNL d   1     -50.958  13.588  21.754  0.00  0.00     0.002 C 
ENDBRANCH   8  11
ENDBRANCH   5   6
ENDBRANCH   4   5
ENDBRANCH   1   4
BRANCH   2  13
ATOM     13  C   UNL d   1     -46.633  12.439  23.126  0.00  0.00     0.085 A 
ATOM     14  C   UNL d   1     -46.511  12.630  22.335  0.00  0.00     0.019 A 
ATOM     15  C   UNL d   1     -46.457  13.427  22.114  0.00  0.00     0.005 A 
ATOM     16  C   UNL d   1     -46.525  14.025  22.680  0.00  0.00     0.039 A 
ATOM     17  C   UNL d   1     -46.649  13.813  23.481  0.00  0.00     0.005 A 
ATOM     18  C   UNL d   1     -46.702  13.025  23.698  0.00  0.00     0.019 A 
BRANCH  16  19
ATOM     19  C   UNL d   1     -46.472  14.818  22.463  0.00  0.00     0.196 C 
ATOM     20  O   UNL d   1     -45.739  15.149  22.277  0.00  0.00    -0.287 OA
ATOM     21  C   UNL d   1     -47.154  15.283  22.433  0.00  0.00     0.045 C 
ENDBRANCH  16  19
ENDBRANCH   2  13
TORSDOF 6
ENDMDL
MODEL 7
REMARK VINA RESULT:      -5.9      1.568      4.080
REMARK  6 active torsions:
REMARK  status: ('A' for Active; 'I' for Inactive)
REMARK    1  A    between atoms: C_15  and  C_2 
REMARK    2  A    between atoms: C_19  and  C_3 
REMARK    3  A    between atoms: C_4  and  C_16 
REMARK       I    between atoms: N_7  and  C_4 
REMARK    4  A    between atoms: C_14  and  N_7 
REMARK    5  A    between atoms: C_8  and  C_9 
REMARK    6  A    between atoms: C_16  and  C_15 
ROOT
ATOM      1  C   UNL d   1     -46.839  14.526  22.631  0.00  0.00     0.279 C 
ATOM      2  N   UNL d   1     -47.295  15.175  22.409  0.00  0.00    -0.208 NA
ATOM      3  O   UNL d   1     -46.013  14.565  22.588  0.00  0.00    -0.265 OA
ENDROOT
BRANCH   1   4
ATOM      4  C   UNL d   1     -47.205  13.835  22.899  0.00  0.00     0.065 C 
BRANCH   4   5
ATOM      5  C   UNL d   1     -46.779  13.123  22.925  0.00  0.00     0.030 C 
BRANCH   5   6
ATOM      6  C   UNL d   1     -47.147  12.427  23.172  0.00  0.00     0.100 A 
ATOM      7  O   UNL d   1     -47.944  12.249  23.079  0.00  0.00    -0.307 OA
ATOM      8  C   UNL d   1     -48.070  11.503  23.402  0.00  0.00     0.100 A 
ATOM      9  C   UNL d   1     -47.338  11.221  23.698  0.00  0.00     0.027 A 
ATOM     10  C   UNL d   1     -46.775  11.800  23.550  0.00  0.00     0.027 A 
BRANCH   8  11
ATOM     11  C   UNL d   1     -48.784  11.099  23.434  0.00  0.00     0.025 C 
ATOM     12  C   UNL d   1     -49.490  11.501  23.571  0.00  0.00     0.002 C 
ENDBRANCH   8  11
ENDBRANCH   5   6
ENDBRANCH   4   5
ENDBRANCH   1   4
BRANCH   2  13
ATOM     13  C   UNL d   1     -48.126  15.129  22.456  0.00  0.00     0.085 A 
ATOM     14  C   UNL d   1     -48.503  15.312  23.164  0.00  0.00     0.019 A 
ATOM     15  C   UNL d   1     -49.329  15.265  23.207  0.00  0.00     0.005 A 
ATOM     16  C   UNL d   1     -49.771  15.038  22.547  0.00  0.00     0.039 A 
ATOM     17  C   UNL d   1     -49.371  14.855  21.834  0.00  0.00     0.005 A 
ATOM     18  C   UNL d   1     -48.554  14.902  21.793  0.00  0.00     0.019 A 
BRANCH  16  19
ATOM     19  C   UNL d   1     -50.592  14.990  22.586  0.00  0.00     0.196 C 
ATOM     20  O   UNL d   1     -51.054  15.234  21.947  0.00  0.00    -0.287 OA
ATOM     21  C   UNL d   1     -50.956  14.697  23.269  0.00  0.00     0.045 C 
ENDBRANCH  16  19
ENDBRANCH   2  13
TORSDOF 6
ENDMDL
MODEL 8
REMARK VINA RESULT:      -5.6      9.041     10.653
REMARK  6 active torsions:
REMARK  status: ('A' for Active; 'I' for Inactive)
REMARK    1  A    between atoms: C_15  and  C_2 
REMARK    2  A    between atoms: C_19  and  C_3 
REMARK    3  A    between atoms: C_4  and  C_16 
REMARK       I    between atoms: N_7  and  C_4 
REMARK    4  A    between atoms: C_14  and  N_7 
REMARK    5  A    between atoms: C_8  and  C_9 
REMARK    6  A    between atoms: C_16  and  C_15 
ROOT
ATOM      1  C   UNL d   1     -40.709  15.543  18.474  0.00  0.00     0.279 C 
ATOM      2  N   UNL d   1     -40.829  15.824  19.239  0.00  0.00    -0.208 NA
ATOM      3  O   UNL d   1     -41.096  15.899  17.835  0.00  0.00    -0.265 OA
ENDROOT
BRANCH   1   4
ATOM      4  C   UNL d   1     -40.201  14.904  18.342  0.00  0.00     0.065 C 
BRANCH   4   5
ATOM      5  C   UNL d   1     -40.149  14.563  17.588  0.00  0.00     0.030 C 
BRANCH   5   6
ATOM      6  C   UNL d   1     -39.531  14.048  17.405  0.00  0.00     0.100 A 
ATOM      7  O   UNL d   1     -39.414  13.306  17.738  0.00  0.00    -0.307 OA
ATOM      8  C   UNL d   1     -38.737  12.986  17.397  0.00  0.00     0.100 A 
ATOM      9  C   UNL d   1     -38.436  13.542  16.847  0.00  0.00     0.027 A 
ATOM     10  C   UNL d   1     -38.935  14.194  16.860  0.00  0.00     0.027 A 
BRANCH   8  11
ATOM     11  C   UNL d   1     -38.407  12.253  17.562  0.00  0.00     0.025 C 
ATOM     12  C   UNL d   1     -37.940  12.141  18.232  0.00  0.00     0.002 C 
ENDBRANCH   8  11
ENDBRANCH   5   6
ENDBRANCH   4   5
ENDBRANCH   1   4
BRANCH   2  13
ATOM     13  C   UNL d   1     -40.436  15.459  19.877  0.00  0.00     0.085 A 
ATOM     14  C   UNL d   1     -40.803  14.844  20.282  0.00  0.00     0.019 A 
ATOM     15  C   UNL d   1     -40.408  14.485  20.916  0.00  0.00     0.005 A 
ATOM     16  C   UNL d   1     -39.656  14.739  21.141  0.00  0.00     0.039 A 
ATOM     17  C   UNL d   1     -39.296  15.367  20.717  0.00  0.00     0.005 A 
ATOM     18  C   UNL d   1     -39.687  15.721  20.091  0.00  0.00     0.019 A 
BRANCH  16  19
ATOM     19  C   UNL d   1     -39.261  14.384  21.770  0.00  0.00     0.196 C 
ATOM     20  O   UNL d   1     -39.021  13.595  21.719  0.00  0.00    -0.287 OA
ATOM     21  C   UNL d   1     -39.105  14.818  22.456  0.00  0.00     0.045 C 
ENDBRANCH  16  19
ENDBRANCH   2  13
TORSDOF 6
ENDMDL
MODEL 9
REMARK VINA RESULT:      -4.9      9.199     10.552
REMARK  6 active torsions:
REMARK  status: ('A' for Active; 'I' for Inactive)
REMARK    1  A    between atoms: C_15  and  C_2 
REMARK    2  A    between atoms: C_19  and  C_3 
REMARK    3  A    between atoms: C_4  and  C_16 
REMARK       I    between atoms: N_7  and  C_4 
REMARK    4  A    between atoms: C_14  and  N_7 
REMARK    5  A    between atoms: C_8  and  C_9 
REMARK    6  A    between atoms: C_16  and  C_15 
ROOT
ATOM      1  C   UNL d   1     -40.776  15.497  19.585  0.00  0.00     0.279 C 
ATOM      2  N   UNL d   1     -40.902  15.389  18.779  0.00  0.00    -0.208 NA
ATOM      3  O   UNL d   1     -41.324  15.922  20.037  0.00  0.00    -0.265 OA
ENDROOT
BRANCH   1   4
ATOM      4  C   UNL d   1     -40.103  15.180  19.946  0.00  0.00     0.065 C 
BRANCH   4   5
ATOM      5  C   UNL d   1     -39.919  15.380  20.730  0.00  0.00     0.030 C 
BRANCH   5   6
ATOM      6  C   UNL d   1     -39.350  14.951  21.146  0.00  0.00     0.100 A 
ATOM      7  O   UNL d   1     -39.461  14.209  21.482  0.00  0.00    -0.307 OA
ATOM      8  C   UNL d   1     -38.754  13.991  21.840  0.00  0.00     0.100 A 
ATOM      9  C   UNL d   1     -38.202  14.610  21.722  0.00  0.00     0.027 A 
ATOM     10  C   UNL d   1     -38.581  15.198  21.292  0.00  0.00     0.027 A 
BRANCH   8  11
ATOM     11  C   UNL d   1     -38.606  13.292  22.245  0.00  0.00     0.025 C 
ATOM     12  C   UNL d   1     -38.553  13.284  23.067  0.00  0.00     0.002 C 
ENDBRANCH   8  11
ENDBRANCH   5   6
ENDBRANCH   4   5
ENDBRANCH   1   4
BRANCH   2  13
ATOM     13  C   UNL d   1     -40.346  14.960  18.330  0.00  0.00     0.085 A 
ATOM     14  C   UNL d   1     -40.414  14.142  18.274  0.00  0.00     0.019 A 
ATOM     15  C   UNL d   1     -39.859  13.718  17.827  0.00  0.00     0.005 A 
ATOM     16  C   UNL d   1     -39.244  14.111  17.441  0.00  0.00     0.039 A 
ATOM     17  C   UNL d   1     -39.189  14.945  17.508  0.00  0.00     0.005 A 
ATOM     18  C   UNL d   1     -39.738  15.361  17.950  0.00  0.00     0.019 A 
BRANCH  16  19
ATOM     19  C   UNL d   1     -38.691  13.693  16.996  0.00  0.00     0.196 C 
ATOM     20  O   UNL d   1     -38.596  13.856  16.192  0.00  0.00    -0.287 OA
ATOM     21  C   UNL d   1     -38.231  13.108  17.356  0.00  0.00     0.045 C 
ENDBRANCH  16  19
ENDBRANCH   2  13
TORSDOF 6
ENDMDL
