MODEL 1
REMARK VINA RESULT:      -8.3      0.000      0.000
REMARK  4 active torsions:
REMARK  status: ('A' for Active; 'I' for Inactive)
REMARK    1  A    between atoms: C_2  and  S_1 
REMARK    2  A    between atoms: N_3  and  S_1 
REMARK    3  A    between atoms: O_13  and  C_7 
REMARK    4  A    between atoms: O_14  and  C_11 
ROOT
ATOM      1  S   UNL d   1      52.283  33.393  53.316  0.00  0.00     0.273 S 
ATOM      2  O   UNL d   1      52.428  33.604  54.103  0.00  0.00    -0.200 OA
ATOM      3  O   UNL d   1      52.790  32.861  52.931  0.00  0.00    -0.200 OA
ENDROOT
BRANCH   1   4
ATOM      4  C   UNL d   1      52.925  33.078  53.717  0.00  0.00     0.128 A 
ATOM      5  C   UNL d   1      53.332  33.521  54.281  0.00  0.00     0.039 A 
ATOM      6  C   UNL d   1      53.977  33.203  54.684  0.00  0.00     0.095 A 
ATOM      7  C   UNL d   1      54.212  32.435  54.516  0.00  0.00     0.026 A 
ATOM      8  C   UNL d   1      53.815  31.987  53.959  0.00  0.00     0.027 A 
ATOM      9  C   UNL d   1      53.171  32.306  53.557  0.00  0.00     0.106 A 
BRANCH   6  10
ATOM     10  O   UNL d   1      54.377  33.654  55.245  0.00  0.00    -0.328 OA
ATOM     11  C   UNL d   1      55.199  33.709  55.222  0.00  0.00     0.181 C 
ENDBRANCH   6  10
BRANCH   9  12
ATOM     12  O   UNL d   1      52.770  31.859  52.997  0.00  0.00    -0.327 OA
ATOM     13  C   UNL d   1      52.969  31.064  52.890  0.00  0.00     0.181 C 
ENDBRANCH   9  12
ENDBRANCH   1   4
BRANCH   1  14
ATOM     14  N   UNL d   1      51.631  33.716  52.917  0.00  0.00    -0.232 N 
ATOM     15  C   UNL d   1      50.867  33.505  53.151  0.00  0.00     0.075 A 
ATOM     16  C   UNL d   1      50.216  33.828  52.752  0.00  0.00     0.018 A 
ATOM     17  C   UNL d   1      50.749  32.979  53.776  0.00  0.00     0.020 C 
ATOM     18  C   UNL d   1      50.336  34.354  52.129  0.00  0.00     0.003 A 
ATOM     19  C   UNL d   1      51.107  34.563  51.897  0.00  0.00     0.018 A 
ATOM     20  C   UNL d   1      51.759  34.242  52.293  0.00  0.00     0.075 A 
ATOM     21  C   UNL d   1      52.522  34.446  52.068  0.00  0.00     0.020 C 
ENDBRANCH   1  14
TORSDOF 4
ENDMDL
MODEL 2
REMARK VINA RESULT:      -8.2      1.529      3.632
REMARK  4 active torsions:
REMARK  status: ('A' for Active; 'I' for Inactive)
REMARK    1  A    between atoms: C_2  and  S_1 
REMARK    2  A    between atoms: N_3  and  S_1 
REMARK    3  A    between atoms: O_13  and  C_7 
REMARK    4  A    between atoms: O_14  and  C_11 
ROOT
ATOM      1  S   UNL d   1      54.003  32.367  54.002  0.00  0.00     0.273 S 
ATOM      2  O   UNL d   1      54.330  31.670  53.699  0.00  0.00    -0.200 OA
ATOM      3  O   UNL d   1      53.188  32.505  53.933  0.00  0.00    -0.200 OA
ENDROOT
BRANCH   1   4
ATOM      4  C   UNL d   1      53.525  31.813  53.634  0.00  0.00     0.128 A 
ATOM      5  C   UNL d   1      53.679  31.005  53.704  0.00  0.00     0.039 A 
ATOM      6  C   UNL d   1      53.197  30.449  53.333  0.00  0.00     0.095 A 
ATOM      7  C   UNL d   1      52.558  30.709  52.889  0.00  0.00     0.026 A 
ATOM      8  C   UNL d   1      52.397  31.506  52.813  0.00  0.00     0.027 A 
ATOM      9  C   UNL d   1      52.878  32.061  53.184  0.00  0.00     0.106 A 
BRANCH   6  10
ATOM     10  O   UNL d   1      53.360  29.645  53.409  0.00  0.00    -0.328 OA
ATOM     11  C   UNL d   1      52.842  29.156  53.824  0.00  0.00     0.181 C 
ENDBRANCH   6  10
BRANCH   9  12
ATOM     12  O   UNL d   1      52.719  32.863  53.110  0.00  0.00    -0.327 OA
ATOM     13  C   UNL d   1      52.042  33.109  52.705  0.00  0.00     0.181 C 
ENDBRANCH   9  12
ENDBRANCH   1   4
BRANCH   1  14
ATOM     14  N   UNL d   1      54.494  32.923  54.374  0.00  0.00    -0.232 N 
ATOM     15  C   UNL d   1      55.076  33.310  53.932  0.00  0.00     0.075 A 
ATOM     16  C   UNL d   1      55.566  33.865  54.304  0.00  0.00     0.018 A 
ATOM     17  C   UNL d   1      55.171  33.148  53.128  0.00  0.00     0.020 C 
ATOM     18  C   UNL d   1      55.470  34.027  55.106  0.00  0.00     0.003 A 
ATOM     19  C   UNL d   1      54.882  33.635  55.546  0.00  0.00     0.018 A 
ATOM     20  C   UNL d   1      54.392  33.080  55.178  0.00  0.00     0.075 A 
ATOM     21  C   UNL d   1      53.811  32.691  55.609  0.00  0.00     0.020 C 
ENDBRANCH   1  14
TORSDOF 4
ENDMDL
MODEL 3
REMARK VINA RESULT:      -7.8      0.661      1.836
REMARK  4 active torsions:
REMARK  status: ('A' for Active; 'I' for Inactive)
REMARK    1  A    between atoms: C_2  and  S_1 
REMARK    2  A    between atoms: N_3  and  S_1 
REMARK    3  A    between atoms: O_13  and  C_7 
REMARK    4  A    between atoms: O_14  and  C_11 
ROOT
ATOM      1  S   UNL d   1      52.239  33.030  53.163  0.00  0.00     0.273 S 
ATOM      2  O   UNL d   1      52.582  32.484  52.644  0.00  0.00    -0.200 OA
ATOM      3  O   UNL d   1      52.488  33.063  53.953  0.00  0.00    -0.200 OA
ENDROOT
BRANCH   1   4
ATOM      4  C   UNL d   1      52.824  32.522  53.427  0.00  0.00     0.128 A 
ATOM      5  C   UNL d   1      52.879  31.751  53.139  0.00  0.00     0.039 A 
ATOM      6  C   UNL d   1      53.469  31.240  53.405  0.00  0.00     0.095 A 
ATOM      7  C   UNL d   1      54.005  31.509  53.965  0.00  0.00     0.026 A 
ATOM      8  C   UNL d   1      53.960  32.271  54.257  0.00  0.00     0.027 A 
ATOM      9  C   UNL d   1      53.370  32.780  53.990  0.00  0.00     0.106 A 
BRANCH   6  10
ATOM     10  O   UNL d   1      53.515  30.472  53.110  0.00  0.00    -0.328 OA
ATOM     11  C   UNL d   1      53.444  29.829  53.620  0.00  0.00     0.181 C 
ENDBRANCH   6  10
BRANCH   9  12
ATOM     12  O   UNL d   1      53.321  33.546  54.282  0.00  0.00    -0.327 OA
ATOM     13  C   UNL d   1      53.859  33.799  54.858  0.00  0.00     0.181 C 
ENDBRANCH   9  12
ENDBRANCH   1   4
BRANCH   1  14
ATOM     14  N   UNL d   1      51.646  33.542  52.887  0.00  0.00    -0.232 N 
ATOM     15  C   UNL d   1      50.866  33.431  53.138  0.00  0.00     0.075 A 
ATOM     16  C   UNL d   1      50.274  33.942  52.863  0.00  0.00     0.018 A 
ATOM     17  C   UNL d   1      50.674  32.819  53.657  0.00  0.00     0.020 C 
ATOM     18  C   UNL d   1      50.468  34.553  52.345  0.00  0.00     0.003 A 
ATOM     19  C   UNL d   1      51.255  34.661  52.096  0.00  0.00     0.018 A 
ATOM     20  C   UNL d   1      51.847  34.152  52.369  0.00  0.00     0.075 A 
ATOM     21  C   UNL d   1      52.625  34.255  52.126  0.00  0.00     0.020 C 
ENDBRANCH   1  14
TORSDOF 4
ENDMDL
MODEL 4
REMARK VINA RESULT:      -7.4      1.185      3.313
REMARK  4 active torsions:
REMARK  status: ('A' for Active; 'I' for Inactive)
REMARK    1  A    between atoms: C_2  and  S_1 
REMARK    2  A    between atoms: N_3  and  S_1 
REMARK    3  A    between atoms: O_13  and  C_7 
REMARK    4  A    between atoms: O_14  and  C_11 
ROOT
ATOM      1  S   UNL d   1      53.364  33.390  53.844  0.00  0.00     0.273 S 
ATOM      2  O   UNL d   1      53.175  33.918  53.235  0.00  0.00    -0.200 OA
ATOM      3  O   UNL d   1      52.854  32.759  54.017  0.00  0.00    -0.200 OA
ENDROOT
BRANCH   1   4
ATOM      4  C   UNL d   1      52.675  33.292  53.411  0.00  0.00     0.128 A 
ATOM      5  C   UNL d   1      52.211  33.939  53.198  0.00  0.00     0.039 A 
ATOM      6  C   UNL d   1      51.519  33.839  52.763  0.00  0.00     0.095 A 
ATOM      7  C   UNL d   1      51.294  33.082  52.541  0.00  0.00     0.026 A 
ATOM      8  C   UNL d   1      51.746  32.433  52.747  0.00  0.00     0.027 A 
ATOM      9  C   UNL d   1      52.438  32.534  53.182  0.00  0.00     0.106 A 
BRANCH   6  10
ATOM     10  O   UNL d   1      51.062  34.493  52.556  0.00  0.00    -0.328 OA
ATOM     11  C   UNL d   1      50.240  34.443  52.566  0.00  0.00     0.181 C 
ENDBRANCH   6  10
BRANCH   9  12
ATOM     12  O   UNL d   1      52.895  31.885  53.390  0.00  0.00    -0.327 OA
ATOM     13  C   UNL d   1      52.681  31.132  53.122  0.00  0.00     0.181 C 
ENDBRANCH   9  12
ENDBRANCH   1   4
BRANCH   1  14
ATOM     14  N   UNL d   1      54.064  33.496  54.278  0.00  0.00    -0.232 N 
ATOM     15  C   UNL d   1      54.020  33.781  55.053  0.00  0.00     0.075 A 
ATOM     16  C   UNL d   1      54.719  33.887  55.486  0.00  0.00     0.018 A 
ATOM     17  C   UNL d   1      53.291  33.959  55.396  0.00  0.00     0.020 C 
ATOM     18  C   UNL d   1      55.447  33.709  55.142  0.00  0.00     0.003 A 
ATOM     19  C   UNL d   1      55.484  33.423  54.362  0.00  0.00     0.018 A 
ATOM     20  C   UNL d   1      54.788  33.316  53.927  0.00  0.00     0.075 A 
ATOM     21  C   UNL d   1      54.821  33.034  53.157  0.00  0.00     0.020 C 
ENDBRANCH   1  14
TORSDOF 4
ENDMDL
MODEL 5
REMARK VINA RESULT:      -7.3      1.194      3.395
REMARK  4 active torsions:
REMARK  status: ('A' for Active; 'I' for Inactive)
REMARK    1  A    between atoms: C_2  and  S_1 
REMARK    2  A    between atoms: N_3  and  S_1 
REMARK    3  A    between atoms: O_13  and  C_7 
REMARK    4  A    between atoms: O_14  and  C_11 
ROOT
ATOM      1  S   UNL d   1      52.725  32.359  53.235  0.00  0.00     0.273 S 
ATOM      2  O   UNL d   1      52.731  32.761  52.511  0.00  0.00    -0.200 OA
ATOM      3  O   UNL d   1      52.403  32.723  53.906  0.00  0.00    -0.200 OA
ENDROOT
BRANCH   1   4
ATOM      4  C   UNL d   1      52.415  33.115  53.180  0.00  0.00     0.128 A 
ATOM      5  C   UNL d   1      51.929  33.330  52.549  0.00  0.00     0.039 A 
ATOM      6  C   UNL d   1      51.618  34.092  52.495  0.00  0.00     0.095 A 
ATOM      7  C   UNL d   1      51.798  34.638  53.080  0.00  0.00     0.026 A 
ATOM      8  C   UNL d   1      52.278  34.435  53.709  0.00  0.00     0.027 A 
ATOM      9  C   UNL d   1      52.589  33.674  53.762  0.00  0.00     0.106 A 
BRANCH   6  10
ATOM     10  O   UNL d   1      51.133  34.296  51.860  0.00  0.00    -0.328 OA
ATOM     11  C   UNL d   1      50.334  34.451  51.984  0.00  0.00     0.181 C 
ENDBRANCH   6  10
BRANCH   9  12
ATOM     12  O   UNL d   1      53.072  33.467  54.393  0.00  0.00    -0.327 OA
ATOM     13  C   UNL d   1      53.273  34.037  54.957  0.00  0.00     0.181 C 
ENDBRANCH   9  12
ENDBRANCH   1   4
BRANCH   1  14
ATOM     14  N   UNL d   1      53.041  31.593  53.282  0.00  0.00    -0.232 N 
ATOM     15  C   UNL d   1      52.529  30.947  53.349  0.00  0.00     0.075 A 
ATOM     16  C   UNL d   1      52.845  30.182  53.396  0.00  0.00     0.018 A 
ATOM     17  C   UNL d   1      51.711  31.057  53.369  0.00  0.00     0.020 C 
ATOM     18  C   UNL d   1      53.661  30.072  53.376  0.00  0.00     0.003 A 
ATOM     19  C   UNL d   1      54.172  30.726  53.308  0.00  0.00     0.018 A 
ATOM     20  C   UNL d   1      53.859  31.491  53.261  0.00  0.00     0.075 A 
ATOM     21  C   UNL d   1      54.360  32.138  53.194  0.00  0.00     0.020 C 
ENDBRANCH   1  14
TORSDOF 4
ENDMDL
MODEL 6
REMARK VINA RESULT:      -7.1      1.285      2.765
REMARK  4 active torsions:
REMARK  status: ('A' for Active; 'I' for Inactive)
REMARK    1  A    between atoms: C_2  and  S_1 
REMARK    2  A    between atoms: N_3  and  S_1 
REMARK    3  A    between atoms: O_13  and  C_7 
REMARK    4  A    between atoms: O_14  and  C_11 
ROOT
ATOM      1  S   UNL d   1      52.882  32.776  53.457  0.00  0.00     0.273 S 
ATOM      2  O   UNL d   1      52.615  33.048  54.191  0.00  0.00    -0.200 OA
ATOM      3  O   UNL d   1      53.021  33.315  52.842  0.00  0.00    -0.200 OA
ENDROOT
BRANCH   1   4
ATOM      4  C   UNL d   1      52.754  33.576  53.579  0.00  0.00     0.128 A 
ATOM      5  C   UNL d   1      53.046  33.956  54.250  0.00  0.00     0.039 A 
ATOM      6  C   UNL d   1      52.915  34.761  54.372  0.00  0.00     0.095 A 
ATOM      7  C   UNL d   1      52.489  35.184  53.813  0.00  0.00     0.026 A 
ATOM      8  C   UNL d   1      52.195  34.817  53.144  0.00  0.00     0.027 A 
ATOM      9  C   UNL d   1      52.326  34.013  53.024  0.00  0.00     0.106 A 
BRANCH   6  10
ATOM     10  O   UNL d   1      53.211  35.130  55.046  0.00  0.00    -0.328 OA
ATOM     11  C   UNL d   1      53.240  35.952  55.088  0.00  0.00     0.181 C 
ENDBRANCH   6  10
BRANCH   9  12
ATOM     12  O   UNL d   1      52.032  33.642  52.353  0.00  0.00    -0.327 OA
ATOM     13  C   UNL d   1      51.567  34.070  51.820  0.00  0.00     0.181 C 
ENDBRANCH   9  12
ENDBRANCH   1   4
BRANCH   1  14
ATOM     14  N   UNL d   1      53.010  31.964  53.341  0.00  0.00    -0.232 N 
ATOM     15  C   UNL d   1      52.361  31.455  53.292  0.00  0.00     0.075 A 
ATOM     16  C   UNL d   1      52.489  30.644  53.177  0.00  0.00     0.018 A 
ATOM     17  C   UNL d   1      51.591  31.746  53.357  0.00  0.00     0.020 C 
ATOM     18  C   UNL d   1      53.258  30.354  53.113  0.00  0.00     0.003 A 
ATOM     19  C   UNL d   1      53.908  30.872  53.163  0.00  0.00     0.018 A 
ATOM     20  C   UNL d   1      53.783  31.682  53.278  0.00  0.00     0.075 A 
ATOM     21  C   UNL d   1      54.422  32.195  53.328  0.00  0.00     0.020 C 
ENDBRANCH   1  14
TORSDOF 4
ENDMDL
