MODEL 1
REMARK VINA RESULT:      -8.0      0.000      0.000
REMARK  4 active torsions:
REMARK  status: ('A' for Active; 'I' for Inactive)
REMARK    1  A    between atoms: C_8  and  C_1 
REMARK    2  A    between atoms: C_6  and  O_10 
REMARK       I    between atoms: N_13  and  C_6 
REMARK    3  A    between atoms: C_11  and  C_8 
REMARK    4  A    between atoms: O_10  and  C_9 
ROOT
ATOM      1  C   UNL d   1     -48.502  13.879  22.925  0.00  0.00     0.141 A 
ATOM      2  C   UNL d   1     -47.525  12.975  23.116  0.00  0.00     0.105 A 
ATOM      3  O   UNL d   1     -48.346  13.085  23.124  0.00  0.00    -0.304 OA
ATOM      4  C   UNL d   1     -47.166  13.696  22.912  0.00  0.00     0.064 A 
ATOM      5  C   UNL d   1     -47.762  14.256  22.794  0.00  0.00     0.220 A 
ATOM      6  C   UNL d   1     -47.062  12.311  23.267  0.00  0.00     0.046 A 
ATOM      7  C   UNL d   1     -46.240  12.363  23.217  0.00  0.00     0.107 A 
ATOM      8  C   UNL d   1     -46.348  13.743  22.863  0.00  0.00     0.007 A 
ATOM      9  O   UNL d   1     -47.658  15.050  22.582  0.00  0.00    -0.284 OA
ATOM     10  C   UNL d   1     -45.881  13.083  23.013  0.00  0.00     0.025 A 
ATOM     11  C   UNL d   1     -47.414  11.593  23.470  0.00  0.00     0.004 C 
ENDROOT
BRANCH   1  12
ATOM     12  C   UNL d   1     -49.245  14.233  22.866  0.00  0.00     0.053 C 
BRANCH  12  13
ATOM     13  C   UNL d   1     -49.891  13.795  22.602  0.00  0.00     0.102 A 
ATOM     14  O   UNL d   1     -50.033  13.564  21.817  0.00  0.00    -0.305 OA
ATOM     15  C   UNL d   1     -50.738  13.137  21.801  0.00  0.00     0.123 A 
ATOM     16  C   UNL d   1     -51.031  13.104  22.578  0.00  0.00     0.029 A 
ATOM     17  C   UNL d   1     -50.505  13.511  23.065  0.00  0.00     0.027 A 
ENDBRANCH  12  13
ENDBRANCH   1  12
BRANCH   7  18
ATOM     18  O   UNL d   1     -45.775  11.703  23.367  0.00  0.00    -0.259 OA
BRANCH  18  19
ATOM     19  C   UNL d   1     -44.999  11.661  23.085  0.00  0.00     0.378 C 
ATOM     20  N   UNL d   1     -44.536  10.995  23.250  0.00  0.00    -0.249 N 
ATOM     21  C   UNL d   1     -43.757  10.950  22.968  0.00  0.00     0.104 C 
ATOM     22  C   UNL d   1     -44.847  10.369  23.698  0.00  0.00     0.104 C 
ATOM     23  O   UNL d   1     -44.685  12.281  22.639  0.00  0.00    -0.237 OA
ENDBRANCH  18  19
ENDBRANCH   7  18
TORSDOF 4
ENDMDL
MODEL 2
REMARK VINA RESULT:      -7.4      0.965      1.807
REMARK  4 active torsions:
REMARK  status: ('A' for Active; 'I' for Inactive)
REMARK    1  A    between atoms: C_8  and  C_1 
REMARK    2  A    between atoms: C_6  and  O_10 
REMARK       I    between atoms: N_13  and  C_6 
REMARK    3  A    between atoms: C_11  and  C_8 
REMARK    4  A    between atoms: O_10  and  C_9 
ROOT
ATOM      1  C   UNL d   1     -48.732  12.992  22.860  0.00  0.00     0.141 A 
ATOM      2  C   UNL d   1     -47.453  12.603  22.996  0.00  0.00     0.105 A 
ATOM      3  O   UNL d   1     -47.941  13.219  22.734  0.00  0.00    -0.304 OA
ATOM      4  C   UNL d   1     -47.934  11.991  23.284  0.00  0.00     0.064 A 
ATOM      5  C   UNL d   1     -48.723  12.225  23.203  0.00  0.00     0.220 A 
ATOM      6  C   UNL d   1     -46.633  12.524  23.007  0.00  0.00     0.046 A 
ATOM      7  C   UNL d   1     -46.290  11.835  23.306  0.00  0.00     0.107 A 
ATOM      8  C   UNL d   1     -47.589  11.308  23.581  0.00  0.00     0.007 A 
ATOM      9  O   UNL d   1     -49.392  11.787  23.419  0.00  0.00    -0.284 OA
ATOM     10  C   UNL d   1     -46.772  11.223  23.594  0.00  0.00     0.025 A 
ATOM     11  C   UNL d   1     -46.150  13.129  22.721  0.00  0.00     0.004 C 
ENDROOT
BRANCH   1  12
ATOM     12  C   UNL d   1     -49.404  13.436  22.680  0.00  0.00     0.053 C 
BRANCH  12  13
ATOM     13  C   UNL d   1     -49.401  14.253  22.791  0.00  0.00     0.102 A 
ATOM     14  O   UNL d   1     -49.087  14.813  22.265  0.00  0.00    -0.305 OA
ATOM     15  C   UNL d   1     -49.200  15.561  22.592  0.00  0.00     0.123 A 
ATOM     16  C   UNL d   1     -49.585  15.462  23.322  0.00  0.00     0.029 A 
ATOM     17  C   UNL d   1     -49.705  14.655  23.438  0.00  0.00     0.027 A 
ENDBRANCH  12  13
ENDBRANCH   1  12
BRANCH   7  18
ATOM     18  O   UNL d   1     -45.473  11.752  23.319  0.00  0.00    -0.259 OA
BRANCH  18  19
ATOM     19  C   UNL d   1     -45.127  11.008  23.419  0.00  0.00     0.378 C 
ATOM     20  N   UNL d   1     -44.325  10.899  23.239  0.00  0.00    -0.249 N 
ATOM     21  C   UNL d   1     -43.975  10.154  23.339  0.00  0.00     0.104 C 
ATOM     22  C   UNL d   1     -43.870  11.534  22.959  0.00  0.00     0.104 C 
ATOM     23  O   UNL d   1     -45.577  10.375  23.698  0.00  0.00    -0.237 OA
ENDBRANCH  18  19
ENDBRANCH   7  18
TORSDOF 4
ENDMDL
MODEL 3
REMARK VINA RESULT:      -6.1      8.151      9.700
REMARK  4 active torsions:
REMARK  status: ('A' for Active; 'I' for Inactive)
REMARK    1  A    between atoms: C_8  and  C_1 
REMARK    2  A    between atoms: C_6  and  O_10 
REMARK       I    between atoms: N_13  and  C_6 
REMARK    3  A    between atoms: C_11  and  C_8 
REMARK    4  A    between atoms: O_10  and  C_9 
ROOT
ATOM      1  C   UNL d   1     -39.859  14.805  17.823  0.00  0.00     0.141 A 
ATOM      2  C   UNL d   1     -39.499  15.055  19.094  0.00  0.00     0.105 A 
ATOM      3  O   UNL d   1     -39.291  15.183  18.302  0.00  0.00    -0.304 OA
ATOM      4  C   UNL d   1     -40.192  14.600  19.113  0.00  0.00     0.064 A 
ATOM      5  C   UNL d   1     -40.419  14.443  18.333  0.00  0.00     0.220 A 
ATOM      6  C   UNL d   1     -39.143  15.297  19.797  0.00  0.00     0.046 A 
ATOM      7  C   UNL d   1     -39.478  15.084  20.520  0.00  0.00     0.107 A 
ATOM      8  C   UNL d   1     -40.522  14.391  19.835  0.00  0.00     0.007 A 
ATOM      9  O   UNL d   1     -41.079  14.006  18.090  0.00  0.00    -0.284 OA
ATOM     10  C   UNL d   1     -40.172  14.629  20.540  0.00  0.00     0.025 A 
ATOM     11  C   UNL d   1     -38.454  15.750  19.783  0.00  0.00     0.004 C 
ENDROOT
BRANCH   1  12
ATOM     12  C   UNL d   1     -39.871  14.789  16.998  0.00  0.00     0.053 C 
BRANCH  12  13
ATOM     13  C   UNL d   1     -39.174  14.655  16.577  0.00  0.00     0.102 A 
ATOM     14  O   UNL d   1     -38.791  13.924  16.492  0.00  0.00    -0.305 OA
ATOM     15  C   UNL d   1     -38.118  14.041  16.031  0.00  0.00     0.123 A 
ATOM     16  C   UNL d   1     -38.085  14.847  15.832  0.00  0.00     0.029 A 
ATOM     17  C   UNL d   1     -38.738  15.219  16.172  0.00  0.00     0.027 A 
ENDBRANCH  12  13
ENDBRANCH   1  12
BRANCH   7  18
ATOM     18  O   UNL d   1     -39.127  15.323  21.224  0.00  0.00    -0.259 OA
BRANCH  18  19
ATOM     19  C   UNL d   1     -39.006  14.784  21.838  0.00  0.00     0.378 C 
ATOM     20  N   UNL d   1     -38.894  15.059  22.612  0.00  0.00    -0.249 N 
ATOM     21  C   UNL d   1     -38.773  14.520  23.231  0.00  0.00     0.104 C 
ATOM     22  C   UNL d   1     -38.902  15.874  22.771  0.00  0.00     0.104 C 
ATOM     23  O   UNL d   1     -38.998  13.973  21.684  0.00  0.00    -0.237 OA
ENDBRANCH  18  19
ENDBRANCH   7  18
TORSDOF 4
ENDMDL
MODEL 4
REMARK VINA RESULT:      -5.2      1.304      1.996
REMARK  4 active torsions:
REMARK  status: ('A' for Active; 'I' for Inactive)
REMARK    1  A    between atoms: C_8  and  C_1 
REMARK    2  A    between atoms: C_6  and  O_10 
REMARK       I    between atoms: N_13  and  C_6 
REMARK    3  A    between atoms: C_11  and  C_8 
REMARK    4  A    between atoms: O_10  and  C_9 
ROOT
ATOM      1  C   UNL d   1     -48.118  12.688  23.096  0.00  0.00     0.141 A 
ATOM      2  C   UNL d   1     -46.853  12.936  22.713  0.00  0.00     0.105 A 
ATOM      3  O   UNL d   1     -47.622  13.245  22.725  0.00  0.00    -0.304 OA
ATOM      4  C   UNL d   1     -46.865  12.189  23.074  0.00  0.00     0.064 A 
ATOM      5  C   UNL d   1     -47.641  12.030  23.312  0.00  0.00     0.220 A 
ATOM      6  C   UNL d   1     -46.147  13.241  22.418  0.00  0.00     0.046 A 
ATOM      7  C   UNL d   1     -45.451  12.803  22.483  0.00  0.00     0.107 A 
ATOM      8  C   UNL d   1     -46.170  11.756  23.136  0.00  0.00     0.007 A 
ATOM      9  O   UNL d   1     -47.910  11.347  23.696  0.00  0.00    -0.284 OA
ATOM     10  C   UNL d   1     -45.463  12.056  22.844  0.00  0.00     0.025 A 
ATOM     11  C   UNL d   1     -46.131  13.984  22.059  0.00  0.00     0.004 C 
ENDROOT
BRANCH   1  12
ATOM     12  C   UNL d   1     -48.929  12.765  23.229  0.00  0.00     0.053 C 
BRANCH  12  13
ATOM     13  C   UNL d   1     -49.407  13.129  22.664  0.00  0.00     0.102 A 
ATOM     14  O   UNL d   1     -49.574  13.941  22.622  0.00  0.00    -0.305 OA
ATOM     15  C   UNL d   1     -50.072  14.065  21.977  0.00  0.00     0.123 A 
ATOM     16  C   UNL d   1     -50.211  13.327  21.620  0.00  0.00     0.029 A 
ATOM     17  C   UNL d   1     -49.798  12.756  22.048  0.00  0.00     0.027 A 
ENDBRANCH  12  13
ENDBRANCH   1  12
BRANCH   7  18
ATOM     18  O   UNL d   1     -44.745  13.104  22.191  0.00  0.00    -0.259 OA
BRANCH  18  19
ATOM     19  C   UNL d   1     -44.091  12.611  22.078  0.00  0.00     0.378 C 
ATOM     20  N   UNL d   1     -43.431  12.891  21.664  0.00  0.00    -0.249 N 
ATOM     21  C   UNL d   1     -42.773  12.398  21.549  0.00  0.00     0.104 C 
ATOM     22  C   UNL d   1     -43.423  13.664  21.362  0.00  0.00     0.104 C 
ATOM     23  O   UNL d   1     -44.095  11.842  22.377  0.00  0.00    -0.237 OA
ENDBRANCH  18  19
ENDBRANCH   7  18
TORSDOF 4
ENDMDL
