MODEL 1
REMARK VINA RESULT:      89.4      0.000      0.000
REMARK  5 active torsions:
REMARK  status: ('A' for Active; 'I' for Inactive)
REMARK    1  A    between atoms: C_2  and  C_1 
REMARK    2  A    between atoms: C_6  and  C_2 
REMARK    3  A    between atoms: S_3  and  C_11 
REMARK    4  A    between atoms: N_7  and  S_3 
REMARK    5  A    between atoms: C_15  and  C_6 
ROOT
ATOM      1  C   UNL d   1      60.456  48.947  50.987  0.00  0.00     0.141 C 
ATOM      2  C   UNL d   1      60.971  48.395  50.625  0.00  0.00     0.107 C 
ATOM      3  N   UNL d   1      61.479  47.865  50.285  0.00  0.00    -0.191 NA
ENDROOT
BRANCH   1   4
ATOM      4  C   UNL d   1      59.715  49.087  50.653  0.00  0.00     0.161 A 
ATOM      5  N   UNL d   1      59.573  49.386  49.892  0.00  0.00    -0.287 N 
ATOM      6  C   UNL d   1      58.762  49.442  49.778  0.00  0.00     0.083 A 
ATOM      7  C   UNL d   1      60.163  49.600  49.322  0.00  0.00     0.101 C 
ATOM      8  C   UNL d   1      58.319  49.696  49.143  0.00  0.00     0.019 A 
ATOM      9  C   UNL d   1      58.389  49.170  50.492  0.00  0.00     0.099 A 
ATOM     10  C   UNL d   1      57.493  49.683  49.207  0.00  0.00     0.002 A 
ATOM     11  C   UNL d   1      57.120  49.410  49.921  0.00  0.00     0.002 A 
ATOM     12  C   UNL d   1      57.582  49.157  50.554  0.00  0.00     0.021 A 
ATOM     13  N   UNL d   1      58.987  48.958  51.013  0.00  0.00    -0.226 NA
ENDBRANCH   1   4
BRANCH   1  14
ATOM     14  C   UNL d   1      60.683  49.344  51.665  0.00  0.00     0.208 C 
ATOM     15  O   UNL d   1      61.413  49.703  51.698  0.00  0.00    -0.286 OA
BRANCH  14  16
ATOM     16  C   UNL d   1      60.170  49.381  52.316  0.00  0.00     0.040 A 
ATOM     17  C   UNL d   1      59.390  49.665  52.209  0.00  0.00     0.004 A 
ATOM     18  C   UNL d   1      58.880  49.702  52.856  0.00  0.00     0.013 A 
ATOM     19  C   UNL d   1      59.138  49.462  53.594  0.00  0.00     0.104 A 
ATOM     20  C   UNL d   1      59.917  49.178  53.703  0.00  0.00     0.013 A 
ATOM     21  C   UNL d   1      60.427  49.141  53.055  0.00  0.00     0.004 A 
BRANCH  19  22
ATOM     22  S   UNL d   1      58.624  49.499  54.246  0.00  0.00     0.271 S 
ATOM     23  O   UNL d   1      57.967  49.308  53.740  0.00  0.00    -0.200 OA
ATOM     24  O   UNL d   1      59.265  49.684  54.740  0.00  0.00    -0.200 OA
BRANCH  22  25
ATOM     25  N   UNL d   1      58.114  49.535  54.894  0.00  0.00    -0.229 N 
ATOM     26  C   UNL d   1      58.414  49.655  55.645  0.00  0.00     0.092 A 
ATOM     27  C   UNL d   1      57.901  49.692  56.296  0.00  0.00     0.020 A 
ATOM     28  C   UNL d   1      57.092  49.609  56.192  0.00  0.00     0.003 A 
ATOM     29  C   UNL d   1      56.802  49.490  55.441  0.00  0.00     0.020 A 
ATOM     30  C   UNL d   1      57.315  49.454  54.790  0.00  0.00     0.092 A 
ENDBRANCH  22  25
ENDBRANCH  19  22
ENDBRANCH  14  16
ENDBRANCH   1  14
TORSDOF 5
ENDMDL
