MODEL 1
REMARK VINA RESULT:      -8.2      0.000      0.000
REMARK  2 active torsions:
REMARK  status: ('A' for Active; 'I' for Inactive)
REMARK    1  A    between atoms: C_4  and  N_2 
REMARK    2  A    between atoms: C_7  and  C_4 
REMARK       I    between atoms: N_8  and  C_7 
ROOT
ATOM      1  S   UNL d   1     -46.473  13.052  22.998  0.00  0.00     0.274 S 
ATOM      2  N   UNL d   1     -47.270  13.047  23.168  0.00  0.00    -0.192 N 
ATOM      3  C   UNL d   1     -47.486  12.308  23.458  0.00  0.00     0.275 A 
ATOM      4  C   UNL d   1     -46.801  11.831  23.471  0.00  0.00     0.069 A 
ATOM      5  C   UNL d   1     -46.167  12.296  23.182  0.00  0.00     0.109 A 
ATOM      6  O   UNL d   1     -46.769  13.801  22.812  0.00  0.00    -0.200 OA
ATOM      7  O   UNL d   1     -45.700  13.249  22.768  0.00  0.00    -0.200 OA
ATOM      8  O   UNL d   1     -48.258  12.079  23.698  0.00  0.00    -0.266 OA
ATOM      9  C   UNL d   1     -46.673  11.066  23.697  0.00  0.00     0.005 A 
ATOM     10  C   UNL d   1     -45.426  11.981  23.130  0.00  0.00     0.013 A 
ATOM     11  C   UNL d   1     -45.901  10.740  23.641  0.00  0.00     0.000 A 
ATOM     12  C   UNL d   1     -45.279  11.196  23.359  0.00  0.00     0.001 A 
ENDROOT
BRANCH   2  13
ATOM     13  C   UNL d   1     -47.771  13.689  23.062  0.00  0.00     0.156 C 
BRANCH  13  14
ATOM     14  C   UNL d   1     -48.400  13.632  22.530  0.00  0.00     0.283 C 
ATOM     15  N   UNL d   1     -49.051  14.121  22.622  0.00  0.00    -0.271 N 
ATOM     16  C   UNL d   1     -49.098  14.668  23.230  0.00  0.00     0.083 A 
ATOM     17  C   UNL d   1     -49.683  14.059  22.082  0.00  0.00     0.083 A 
ATOM     18  C   UNL d   1     -49.758  15.151  23.309  0.00  0.00     0.019 A 
ATOM     19  C   UNL d   1     -50.386  15.099  22.783  0.00  0.00     0.003 A 
ATOM     20  C   UNL d   1     -50.338  14.546  22.170  0.00  0.00     0.019 A 
ATOM     21  C   UNL d   1     -51.057  15.590  22.864  0.00  0.00     0.000 C 
ATOM     22  O   UNL d   1     -48.359  13.076  21.908  0.00  0.00    -0.265 OA
ENDBRANCH  13  14
ENDBRANCH   2  13
TORSDOF 2
ENDMDL
MODEL 2
REMARK VINA RESULT:      -7.9      1.038      4.322
REMARK  2 active torsions:
REMARK  status: ('A' for Active; 'I' for Inactive)
REMARK    1  A    between atoms: C_4  and  N_2 
REMARK    2  A    between atoms: C_7  and  C_4 
REMARK       I    between atoms: N_8  and  C_7 
ROOT
ATOM      1  S   UNL d   1     -48.880  14.370  22.929  0.00  0.00     0.274 S 
ATOM      2  N   UNL d   1     -48.569  13.676  22.638  0.00  0.00    -0.192 N 
ATOM      3  C   UNL d   1     -49.104  13.329  22.119  0.00  0.00     0.275 A 
ATOM      4  C   UNL d   1     -49.777  13.823  22.082  0.00  0.00     0.069 A 
ATOM      5  C   UNL d   1     -49.636  14.475  22.589  0.00  0.00     0.109 A 
ATOM      6  O   UNL d   1     -48.133  14.273  23.270  0.00  0.00    -0.200 OA
ATOM      7  O   UNL d   1     -49.020  15.085  23.327  0.00  0.00    -0.200 OA
ATOM      8  O   UNL d   1     -48.992  12.608  21.703  0.00  0.00    -0.266 OA
ATOM      9  C   UNL d   1     -50.471  13.770  21.671  0.00  0.00     0.005 A 
ATOM     10  C   UNL d   1     -50.195  15.052  22.669  0.00  0.00     0.013 A 
ATOM     11  C   UNL d   1     -51.050  14.372  21.756  0.00  0.00     0.000 A 
ATOM     12  C   UNL d   1     -50.913  15.011  22.253  0.00  0.00     0.001 A 
ENDROOT
BRANCH   2  13
ATOM     13  C   UNL d   1     -47.831  13.377  22.840  0.00  0.00     0.156 C 
BRANCH  13  14
ATOM     14  C   UNL d   1     -47.778  12.660  23.246  0.00  0.00     0.283 C 
ATOM     15  N   UNL d   1     -47.063  12.260  23.265  0.00  0.00    -0.271 N 
ATOM     16  C   UNL d   1     -46.395  12.550  22.891  0.00  0.00     0.083 A 
ATOM     17  C   UNL d   1     -47.016  11.536  23.676  0.00  0.00     0.083 A 
ATOM     18  C   UNL d   1     -45.685  12.138  22.919  0.00  0.00     0.019 A 
ATOM     19  C   UNL d   1     -45.627  11.424  23.321  0.00  0.00     0.003 A 
ATOM     20  C   UNL d   1     -46.302  11.130  23.698  0.00  0.00     0.019 A 
ATOM     21  C   UNL d   1     -44.906  11.004  23.349  0.00  0.00     0.000 C 
ATOM     22  O   UNL d   1     -48.455  12.357  23.629  0.00  0.00    -0.265 OA
ENDBRANCH  13  14
ENDBRANCH   2  13
TORSDOF 2
ENDMDL
MODEL 3
REMARK VINA RESULT:      -7.4      1.581      4.090
REMARK  2 active torsions:
REMARK  status: ('A' for Active; 'I' for Inactive)
REMARK    1  A    between atoms: C_4  and  N_2 
REMARK    2  A    between atoms: C_7  and  C_4 
REMARK       I    between atoms: N_8  and  C_7 
ROOT
ATOM      1  S   UNL d   1     -48.912  13.750  23.176  0.00  0.00     0.274 S 
ATOM      2  N   UNL d   1     -48.429  13.211  22.801  0.00  0.00    -0.192 N 
ATOM      3  C   UNL d   1     -48.863  12.539  22.609  0.00  0.00     0.275 A 
ATOM      4  C   UNL d   1     -49.647  12.659  22.871  0.00  0.00     0.069 A 
ATOM      5  C   UNL d   1     -49.677  13.418  23.226  0.00  0.00     0.109 A 
ATOM      6  O   UNL d   1     -48.158  14.085  23.129  0.00  0.00    -0.200 OA
ATOM      7  O   UNL d   1     -49.233  14.411  23.563  0.00  0.00    -0.200 OA
ATOM      8  O   UNL d   1     -48.568  11.856  22.219  0.00  0.00    -0.266 OA
ATOM      9  C   UNL d   1     -50.311  12.200  22.837  0.00  0.00     0.005 A 
ATOM     10  C   UNL d   1     -50.371  13.692  23.535  0.00  0.00     0.013 A 
ATOM     11  C   UNL d   1     -51.032  12.488  23.159  0.00  0.00     0.000 A 
ATOM     12  C   UNL d   1     -51.062  13.231  23.507  0.00  0.00     0.001 A 
ENDROOT
BRANCH   2  13
ATOM     13  C   UNL d   1     -47.632  13.331  22.646  0.00  0.00     0.156 C 
BRANCH  13  14
ATOM     14  C   UNL d   1     -47.069  12.839  22.996  0.00  0.00     0.283 C 
ATOM     15  N   UNL d   1     -46.308  12.820  22.695  0.00  0.00    -0.271 N 
ATOM     16  C   UNL d   1     -46.085  13.277  22.053  0.00  0.00     0.083 A 
ATOM     17  C   UNL d   1     -45.743  12.321  23.053  0.00  0.00     0.083 A 
ATOM     18  C   UNL d   1     -45.317  13.247  21.762  0.00  0.00     0.019 A 
ATOM     19  C   UNL d   1     -44.753  12.759  22.107  0.00  0.00     0.003 A 
ATOM     20  C   UNL d   1     -44.978  12.298  22.756  0.00  0.00     0.019 A 
ATOM     21  C   UNL d   1     -43.973  12.729  21.812  0.00  0.00     0.000 C 
ATOM     22  O   UNL d   1     -47.289  12.371  23.652  0.00  0.00    -0.265 OA
ENDBRANCH  13  14
ENDBRANCH   2  13
TORSDOF 2
ENDMDL
MODEL 4
REMARK VINA RESULT:      -6.8      8.808      9.924
REMARK  2 active torsions:
REMARK  status: ('A' for Active; 'I' for Inactive)
REMARK    1  A    between atoms: C_4  and  N_2 
REMARK    2  A    between atoms: C_7  and  C_4 
REMARK       I    between atoms: N_8  and  C_7 
ROOT
ATOM      1  S   UNL d   1     -40.355  14.406  18.612  0.00  0.00     0.274 S 
ATOM      2  N   UNL d   1     -39.823  14.687  19.161  0.00  0.00    -0.192 N 
ATOM      3  C   UNL d   1     -39.384  15.300  18.831  0.00  0.00     0.275 A 
ATOM      4  C   UNL d   1     -39.651  15.409  18.047  0.00  0.00     0.069 A 
ATOM      5  C   UNL d   1     -40.259  14.849  17.910  0.00  0.00     0.109 A 
ATOM      6  O   UNL d   1     -40.456  13.963  19.303  0.00  0.00    -0.200 OA
ATOM      7  O   UNL d   1     -40.949  13.992  18.205  0.00  0.00    -0.200 OA
ATOM      8  O   UNL d   1     -38.779  15.736  19.217  0.00  0.00    -0.266 OA
ATOM      9  C   UNL d   1     -39.432  15.922  17.462  0.00  0.00     0.005 A 
ATOM     10  C   UNL d   1     -40.627  14.820  17.192  0.00  0.00     0.013 A 
ATOM     11  C   UNL d   1     -39.817  15.890  16.716  0.00  0.00     0.000 A 
ATOM     12  C   UNL d   1     -40.412  15.341  16.582  0.00  0.00     0.001 A 
ENDROOT
BRANCH   2  13
ATOM     13  C   UNL d   1     -39.744  14.394  19.924  0.00  0.00     0.156 C 
BRANCH  13  14
ATOM     14  C   UNL d   1     -39.056  13.990  20.137  0.00  0.00     0.283 C 
ATOM     15  N   UNL d   1     -38.916  13.822  20.927  0.00  0.00    -0.271 N 
ATOM     16  C   UNL d   1     -39.441  14.043  21.516  0.00  0.00     0.083 A 
ATOM     17  C   UNL d   1     -38.220  13.414  21.136  0.00  0.00     0.083 A 
ATOM     18  C   UNL d   1     -39.286  13.867  22.303  0.00  0.00     0.019 A 
ATOM     19  C   UNL d   1     -38.604  13.466  22.521  0.00  0.00     0.003 A 
ATOM     20  C   UNL d   1     -38.074  13.243  21.926  0.00  0.00     0.019 A 
ATOM     21  C   UNL d   1     -38.447  13.287  23.321  0.00  0.00     0.000 C 
ATOM     22  O   UNL d   1     -38.516  13.761  19.542  0.00  0.00    -0.265 OA
ENDBRANCH  13  14
ENDBRANCH   2  13
TORSDOF 2
ENDMDL
MODEL 5
REMARK VINA RESULT:      -6.1      8.479     10.346
REMARK  2 active torsions:
REMARK  status: ('A' for Active; 'I' for Inactive)
REMARK    1  A    between atoms: C_4  and  N_2 
REMARK    2  A    between atoms: C_7  and  C_4 
REMARK       I    between atoms: N_8  and  C_7 
ROOT
ATOM      1  S   UNL d   1     -40.134  14.685  19.704  0.00  0.00     0.274 S 
ATOM      2  N   UNL d   1     -39.438  14.718  19.281  0.00  0.00    -0.192 N 
ATOM      3  C   UNL d   1     -38.871  15.129  19.714  0.00  0.00     0.275 A 
ATOM      4  C   UNL d   1     -39.223  15.362  20.434  0.00  0.00     0.069 A 
ATOM      5  C   UNL d   1     -40.014  15.085  20.428  0.00  0.00     0.109 A 
ATOM      6  O   UNL d   1     -40.260  14.289  18.990  0.00  0.00    -0.200 OA
ATOM      7  O   UNL d   1     -40.908  14.548  19.971  0.00  0.00    -0.200 OA
ATOM      8  O   UNL d   1     -38.082  15.284  19.472  0.00  0.00    -0.266 OA
ATOM      9  C   UNL d   1     -38.943  15.774  21.071  0.00  0.00     0.005 A 
ATOM     10  C   UNL d   1     -40.497  15.228  21.059  0.00  0.00     0.013 A 
ATOM     11  C   UNL d   1     -39.448  15.922  21.726  0.00  0.00     0.000 A 
ATOM     12  C   UNL d   1     -40.223  15.650  21.720  0.00  0.00     0.001 A 
ENDROOT
BRANCH   2  13
ATOM     13  C   UNL d   1     -39.331  14.388  18.537  0.00  0.00     0.156 C 
BRANCH  13  14
ATOM     14  C   UNL d   1     -39.223  14.881  17.884  0.00  0.00     0.283 C 
ATOM     15  N   UNL d   1     -38.909  14.572  17.193  0.00  0.00    -0.271 N 
ATOM     16  C   UNL d   1     -38.698  13.783  17.129  0.00  0.00     0.083 A 
ATOM     17  C   UNL d   1     -38.802  15.075  16.536  0.00  0.00     0.083 A 
ATOM     18  C   UNL d   1     -38.385  13.488  16.430  0.00  0.00     0.019 A 
ATOM     19  C   UNL d   1     -38.275  13.974  15.777  0.00  0.00     0.003 A 
ATOM     20  C   UNL d   1     -38.488  14.770  15.841  0.00  0.00     0.019 A 
ATOM     21  C   UNL d   1     -37.956  13.673  15.066  0.00  0.00     0.000 C 
ATOM     22  O   UNL d   1     -39.436  15.687  17.941  0.00  0.00    -0.265 OA
ENDBRANCH  13  14
ENDBRANCH   2  13
TORSDOF 2
ENDMDL
MODEL 6
REMARK VINA RESULT:      -6.0      8.946     10.433
REMARK  2 active torsions:
REMARK  status: ('A' for Active; 'I' for Inactive)
REMARK    1  A    between atoms: C_4  and  N_2 
REMARK    2  A    between atoms: C_7  and  C_4 
REMARK       I    between atoms: N_8  and  C_7 
ROOT
ATOM      1  S   UNL d   1     -38.618  15.252  16.846  0.00  0.00     0.274 S 
ATOM      2  N   UNL d   1     -38.771  14.869  17.548  0.00  0.00    -0.192 N 
ATOM      3  C   UNL d   1     -38.635  14.063  17.459  0.00  0.00     0.275 A 
ATOM      4  C   UNL d   1     -38.388  13.934  16.672  0.00  0.00     0.069 A 
ATOM      5  C   UNL d   1     -38.377  14.679  16.288  0.00  0.00     0.109 A 
ATOM      6  O   UNL d   1     -38.856  15.825  17.392  0.00  0.00    -0.200 OA
ATOM      7  O   UNL d   1     -38.517  15.808  16.237  0.00  0.00    -0.200 OA
ATOM      8  O   UNL d   1     -38.728  13.478  18.054  0.00  0.00    -0.266 OA
ATOM      9  C   UNL d   1     -38.178  13.266  16.267  0.00  0.00     0.005 A 
ATOM     10  C   UNL d   1     -38.158  14.730  15.512  0.00  0.00     0.013 A 
ATOM     11  C   UNL d   1     -37.951  13.323  15.461  0.00  0.00     0.000 A 
ATOM     12  C   UNL d   1     -37.941  14.052  15.084  0.00  0.00     0.001 A 
ENDROOT
BRANCH   2  13
ATOM     13  C   UNL d   1     -39.022  15.243  18.235  0.00  0.00     0.156 C 
BRANCH  13  14
ATOM     14  C   UNL d   1     -39.758  15.051  18.558  0.00  0.00     0.283 C 
ATOM     15  N   UNL d   1     -39.930  15.271  19.328  0.00  0.00    -0.271 N 
ATOM     16  C   UNL d   1     -39.391  15.678  19.792  0.00  0.00     0.083 A 
ATOM     17  C   UNL d   1     -40.674  15.075  19.648  0.00  0.00     0.083 A 
ATOM     18  C   UNL d   1     -39.578  15.892  20.562  0.00  0.00     0.019 A 
ATOM     19  C   UNL d   1     -40.308  15.704  20.888  0.00  0.00     0.003 A 
ATOM     20  C   UNL d   1     -40.852  15.293  20.420  0.00  0.00     0.019 A 
ATOM     21  C   UNL d   1     -40.498  15.922  21.672  0.00  0.00     0.000 C 
ATOM     22  O   UNL d   1     -40.313  14.636  18.091  0.00  0.00    -0.265 OA
ENDBRANCH  13  14
ENDBRANCH   2  13
TORSDOF 2
ENDMDL
MODEL 7
REMARK VINA RESULT:      -5.9      8.779      9.204
REMARK  2 active torsions:
REMARK  status: ('A' for Active; 'I' for Inactive)
REMARK    1  A    between atoms: C_4  and  N_2 
REMARK    2  A    between atoms: C_7  and  C_4 
REMARK       I    between atoms: N_8  and  C_7 
ROOT
ATOM      1  S   UNL d   1     -39.440  15.003  21.292  0.00  0.00     0.274 S 
ATOM      2  N   UNL d   1     -39.260  14.745  20.540  0.00  0.00    -0.192 N 
ATOM      3  C   UNL d   1     -38.799  14.064  20.585  0.00  0.00     0.275 A 
ATOM      4  C   UNL d   1     -38.686  13.888  21.393  0.00  0.00     0.069 A 
ATOM      5  C   UNL d   1     -39.087  14.476  21.836  0.00  0.00     0.109 A 
ATOM      6  O   UNL d   1     -39.792  15.528  20.759  0.00  0.00    -0.200 OA
ATOM      7  O   UNL d   1     -39.723  15.413  21.956  0.00  0.00    -0.200 OA
ATOM      8  O   UNL d   1     -38.499  13.628  19.933  0.00  0.00    -0.266 OA
ATOM      9  C   UNL d   1     -38.288  13.295  21.773  0.00  0.00     0.005 A 
ATOM     10  C   UNL d   1     -39.077  14.451  22.643  0.00  0.00     0.013 A 
ATOM     11  C   UNL d   1     -38.279  13.272  22.613  0.00  0.00     0.000 A 
ATOM     12  C   UNL d   1     -38.672  13.848  23.046  0.00  0.00     0.001 A 
ENDROOT
BRANCH   2  13
ATOM     13  C   UNL d   1     -39.506  15.116  19.850  0.00  0.00     0.156 C 
BRANCH  13  14
ATOM     14  C   UNL d   1     -40.061  14.746  19.364  0.00  0.00     0.283 C 
ATOM     15  N   UNL d   1     -40.175  15.022  18.601  0.00  0.00    -0.271 N 
ATOM     16  C   UNL d   1     -39.753  15.657  18.303  0.00  0.00     0.083 A 
ATOM     17  C   UNL d   1     -40.737  14.644  18.114  0.00  0.00     0.083 A 
ATOM     18  C   UNL d   1     -39.878  15.922  17.536  0.00  0.00     0.019 A 
ATOM     19  C   UNL d   1     -40.429  15.558  17.048  0.00  0.00     0.003 A 
ATOM     20  C   UNL d   1     -40.856  14.916  17.349  0.00  0.00     0.019 A 
ATOM     21  C   UNL d   1     -40.557  15.827  16.268  0.00  0.00     0.000 C 
ATOM     22  O   UNL d   1     -40.496  14.098  19.661  0.00  0.00    -0.265 OA
ENDBRANCH  13  14
ENDBRANCH   2  13
TORSDOF 2
ENDMDL
