MODEL 1
REMARK VINA RESULT:      31.9      0.000      0.000
REMARK  3 active torsions:
REMARK  status: ('A' for Active; 'I' for Inactive)
REMARK    1  A    between atoms: C_2  and  C_3 
REMARK    2  A    between atoms: C_5  and  C_2 
REMARK    3  A    between atoms: C_3  and  C_6 
ROOT
ATOM      1  N   UNL d   1      58.392  49.703  50.090  0.00  0.00    -0.246 NA
ATOM      2  C   UNL d   1      57.602  49.695  49.855  0.00  0.00     0.081 A 
ATOM      3  C   UNL d   1      58.564  49.700  50.912  0.00  0.00     0.081 A 
ATOM      4  C   UNL d   1      56.993  49.684  50.425  0.00  0.00     0.018 A 
ATOM      5  C   UNL d   1      57.191  49.681  51.215  0.00  0.00     0.003 A 
ATOM      6  C   UNL d   1      57.984  49.689  51.455  0.00  0.00     0.019 A 
ATOM      7  C   UNL d   1      57.414  49.698  49.047  0.00  0.00     0.019 A 
ATOM      8  C   UNL d   1      56.214  49.676  50.172  0.00  0.00     0.002 A 
ATOM      9  C   UNL d   1      56.612  49.690  48.829  0.00  0.00     0.002 A 
ATOM     10  C   UNL d   1      56.033  49.679  49.372  0.00  0.00     0.000 A 
ENDROOT
BRANCH   3  11
ATOM     11  C   UNL d   1      59.353  49.708  51.184  0.00  0.00     0.019 C 
BRANCH  11  12
ATOM     12  C   UNL d   1      59.949  49.346  50.759  0.00  0.00     0.005 C 
BRANCH  12  13
ATOM     13  C   UNL d   1      60.681  49.212  51.114  0.00  0.00     0.039 A 
ATOM     14  C   UNL d   1      61.152  48.602  50.859  0.00  0.00     0.196 A 
ATOM     15  O   UNL d   1      60.914  48.087  50.227  0.00  0.00    -0.287 OA
ATOM     16  C   UNL d   1      61.885  48.467  51.214  0.00  0.00     0.042 A 
ATOM     17  C   UNL d   1      62.130  48.965  51.834  0.00  0.00     0.003 A 
ATOM     18  C   UNL d   1      61.677  49.556  52.084  0.00  0.00     0.000 A 
ATOM     19  C   UNL d   1      60.944  49.691  51.729  0.00  0.00     0.003 A 
ENDBRANCH  12  13
ENDBRANCH  11  12
ENDBRANCH   3  11
TORSDOF 3
ENDMDL
