MODEL 1
REMARK VINA RESULT:      38.1      0.000      0.000
REMARK  6 active torsions:
REMARK  status: ('A' for Active; 'I' for Inactive)
REMARK       I    between atoms: N_2  and  C_1 
REMARK       I    between atoms: N_4  and  C_1 
REMARK    1  A    between atoms: C_8  and  N_2 
REMARK    2  A    between atoms: C_3  and  C_5 
REMARK    3  A    between atoms: O_11  and  C_3 
REMARK    4  A    between atoms: C_14  and  N_4 
REMARK    5  A    between atoms: C_15  and  N_4 
REMARK    6  A    between atoms: C_16  and  O_11 
ROOT
ATOM      1  C   UNL d   1      60.751  48.998  50.798  0.00  0.00     0.064 A 
ATOM      2  C   UNL d   1      59.107  49.066  50.765  0.00  0.00     0.086 A 
ATOM      3  C   UNL d   1      60.368  49.682  50.529  0.00  0.00     0.007 A 
ATOM      4  C   UNL d   1      60.321  48.358  51.047  0.00  0.00     0.007 A 
ATOM      5  C   UNL d   1      59.537  49.705  50.516  0.00  0.00     0.019 A 
ATOM      6  C   UNL d   1      59.494  48.383  51.034  0.00  0.00     0.019 A 
ENDROOT
BRANCH   2   7
ATOM      7  N   UNL d   1      58.283  49.088  50.753  0.00  0.00    -0.192 NA
ATOM      8  C   UNL d   1      57.891  49.291  50.049  0.00  0.00     0.354 C 
ATOM      9  N   UNL d   1      57.077  49.313  50.038  0.00  0.00    -0.256 N 
ATOM     10  O   UNL d   1      58.328  49.466  49.373  0.00  0.00    -0.244 OA
BRANCH   9  11
ATOM     11  C   UNL d   1      56.648  49.136  50.720  0.00  0.00     0.085 C 
ATOM     12  C   UNL d   1      56.054  49.651  50.984  0.00  0.00     0.021 C 
ENDBRANCH   9  11
BRANCH   9  13
ATOM     13  C   UNL d   1      56.685  49.517  49.329  0.00  0.00     0.085 C 
ATOM     14  C   UNL d   1      56.055  49.055  49.072  0.00  0.00     0.021 C 
ENDBRANCH   9  13
ENDBRANCH   2   7
BRANCH   1  15
ATOM     15  C   UNL d   1      61.569  48.968  50.812  0.00  0.00     0.300 C 
ATOM     16  O   UNL d   1      62.003  49.557  51.188  0.00  0.00    -0.259 OA
BRANCH  15  17
ATOM     17  O   UNL d   1      61.960  48.342  50.446  0.00  0.00    -0.271 OA
BRANCH  17  18
ATOM     18  C   UNL d   1      61.702  47.576  50.559  0.00  0.00     0.126 C 
ATOM     19  C   UNL d   1      61.838  47.003  49.986  0.00  0.00     0.029 C 
ENDBRANCH  17  18
ENDBRANCH  15  17
ENDBRANCH   1  15
TORSDOF 6
ENDMDL
