MODEL 1
REMARK VINA RESULT:      41.9      0.000      0.000
REMARK  2 active torsions:
REMARK  status: ('A' for Active; 'I' for Inactive)
REMARK    1  A    between atoms: C_6  and  C_1 
REMARK       I    between atoms: C_7  and  N_8 
REMARK    2  A    between atoms: N_8  and  C_10 
ROOT
ATOM      1  C   UNL d   1     -50.583  25.002  33.474  0.00  0.00     0.025 A 
ATOM      2  C   UNL d   1     -50.474  25.794  33.656  0.00  0.00     0.021 A 
ATOM      3  C   UNL d   1     -49.698  26.115  33.674  0.00  0.00     0.085 A 
ATOM      4  C   UNL d   1     -49.917  24.532  33.309  0.00  0.00     0.002 A 
ATOM      5  C   UNL d   1     -49.184  24.839  33.327  0.00  0.00     0.002 A 
ATOM      6  C   UNL d   1     -49.042  25.639  33.509  0.00  0.00     0.019 A 
ENDROOT
BRANCH   1   7
ATOM      7  C   UNL d   1     -51.320  24.701  33.457  0.00  0.00     0.111 A 
ATOM      8  N   UNL d   1     -51.559  23.925  33.520  0.00  0.00    -0.239 NA
ATOM      9  C   UNL d   1     -52.394  23.919  33.468  0.00  0.00     0.088 A 
ATOM     10  C   UNL d   1     -52.940  23.292  33.496  0.00  0.00     0.020 A 
ATOM     11  C   UNL d   1     -52.640  24.701  33.374  0.00  0.00     0.049 A 
ATOM     12  C   UNL d   1     -53.735  23.453  33.430  0.00  0.00     0.002 A 
ATOM     13  C   UNL d   1     -53.992  24.271  33.332  0.00  0.00     0.001 A 
ATOM     14  C   UNL d   1     -53.436  24.868  33.308  0.00  0.00     0.008 A 
ATOM     15  S   UNL d   1     -51.953  25.179  33.370  0.00  0.00    -0.066 SA
ENDBRANCH   1   7
BRANCH   3  16
ATOM     16  N   UNL d   1     -49.603  26.934  33.864  0.00  0.00    -0.208 NA
ATOM     17  C   UNL d   1     -49.847  27.193  34.611  0.00  0.00     0.279 C 
ATOM     18  O   UNL d   1     -49.750  27.976  34.780  0.00  0.00    -0.265 OA
ATOM     19  C   UNL d   1     -50.173  26.680  35.160  0.00  0.00     0.068 C 
ENDBRANCH   3  16
TORSDOF 2
ENDMDL
