MODEL 1
REMARK VINA RESULT:      22.8      0.000      0.000
REMARK  7 active torsions:
REMARK  status: ('A' for Active; 'I' for Inactive)
REMARK    1  A    between atoms: C_11  and  C_1 
REMARK    2  A    between atoms: C_15  and  N_3 
REMARK    3  A    between atoms: C_7  and  S_12 
REMARK    4  A    between atoms: C_13  and  C_11 
REMARK    5  A    between atoms: S_12  and  C_13 
REMARK    6  A    between atoms: C_20  and  C_15 
REMARK    7  A    between atoms: O_19  and  C_20 
ROOT
ATOM      1  C   UNL d   1      14.992  12.532  -0.630  0.00  0.00     0.057 A 
ATOM      2  C   UNL d   1      14.724  12.327  -1.373  0.00  0.00     0.067 A 
ATOM      3  N   UNL d   1      13.957  12.059  -1.275  0.00  0.00    -0.303 N 
ATOM      4  C   UNL d   1      14.401  12.393  -0.095  0.00  0.00     0.022 A 
ATOM      5  C   UNL d   1      13.774  12.104  -0.496  0.00  0.00     0.064 A 
ATOM      6  C   UNL d   1      15.146  12.380  -2.079  0.00  0.00     0.019 C 
ATOM      7  C   UNL d   1      13.035  11.883  -0.151  0.00  0.00     0.019 C 
ENDROOT
BRANCH   1   8
ATOM      8  C   UNL d   1      15.752  12.836  -0.461  0.00  0.00     0.203 C 
ATOM      9  O   UNL d   1      16.413  12.380  -0.635  0.00  0.00    -0.286 OA
BRANCH   8  10
ATOM     10  C   UNL d   1      15.839  13.582  -0.126  0.00  0.00     0.079 C 
BRANCH  10  11
ATOM     11  S   UNL d   1      15.381  14.216  -0.393  0.00  0.00    -0.056 SA
BRANCH  11  12
ATOM     12  C   UNL d   1      15.254  15.022  -0.557  0.00  0.00     0.164 A 
ATOM     13  S   UNL d   1      15.330  15.368  -1.307  0.00  0.00    -0.039 SA
ATOM     14  C   UNL d   1      15.154  16.184  -1.225  0.00  0.00     0.134 A 
ATOM     15  C   UNL d   1      15.160  16.749  -1.839  0.00  0.00     0.030 C 
ATOM     16  N   UNL d   1      14.970  16.331  -0.423  0.00  0.00    -0.140 NA
ATOM     17  N   UNL d   1      15.035  15.603  -0.015  0.00  0.00    -0.134 NA
ENDBRANCH  11  12
ENDBRANCH  10  11
ENDBRANCH   8  10
ENDBRANCH   1   8
BRANCH   3  18
ATOM     18  C   UNL d   1      13.429  11.779  -1.867  0.00  0.00     0.107 C 
BRANCH  18  19
ATOM     19  C   UNL d   1      13.540  12.026  -2.655  0.00  0.00     0.135 C 
BRANCH  19  20
ATOM     20  O   UNL d   1      13.039  11.787  -3.244  0.00  0.00    -0.325 OA
ATOM     21  C   UNL d   1      13.091  12.069  -3.869  0.00  0.00     0.182 C 
ENDBRANCH  19  20
ENDBRANCH  18  19
ENDBRANCH   3  18
TORSDOF 7
ENDMDL
MODEL 2
REMARK VINA RESULT:      25.4      2.474      4.201
REMARK  7 active torsions:
REMARK  status: ('A' for Active; 'I' for Inactive)
REMARK    1  A    between atoms: C_11  and  C_1 
REMARK    2  A    between atoms: C_15  and  N_3 
REMARK    3  A    between atoms: C_7  and  S_12 
REMARK    4  A    between atoms: C_13  and  C_11 
REMARK    5  A    between atoms: S_12  and  C_13 
REMARK    6  A    between atoms: C_20  and  C_15 
REMARK    7  A    between atoms: O_19  and  C_20 
ROOT
ATOM      1  C   UNL d   1      13.329  13.112  -3.848  0.00  0.00     0.057 A 
ATOM      2  C   UNL d   1      13.068  13.449  -4.544  0.00  0.00     0.067 A 
ATOM      3  N   UNL d   1      13.162  14.258  -4.457  0.00  0.00    -0.303 N 
ATOM      4  C   UNL d   1      13.574  13.702  -3.351  0.00  0.00     0.022 A 
ATOM      5  C   UNL d   1      13.469  14.397  -3.730  0.00  0.00     0.064 A 
ATOM      6  C   UNL d   1      12.771  13.051  -5.202  0.00  0.00     0.019 C 
ATOM      7  C   UNL d   1      13.653  15.158  -3.411  0.00  0.00     0.019 C 
ENDROOT
BRANCH   1   8
ATOM      8  C   UNL d   1      13.336  12.293  -3.685  0.00  0.00     0.203 C 
ATOM      9  O   UNL d   1      13.676  11.780  -4.230  0.00  0.00    -0.286 OA
BRANCH   8  10
ATOM     10  C   UNL d   1      13.009  12.001  -2.990  0.00  0.00     0.079 C 
BRANCH  10  11
ATOM     11  S   UNL d   1      13.495  11.781  -2.359  0.00  0.00    -0.056 SA
BRANCH  11  12
ATOM     12  C   UNL d   1      13.779  11.854  -1.580  0.00  0.00     0.164 A 
ATOM     13  S   UNL d   1      14.578  11.938  -1.376  0.00  0.00    -0.039 SA
ATOM     14  C   UNL d   1      14.619  11.993  -0.540  0.00  0.00     0.134 A 
ATOM     15  C   UNL d   1      15.316  12.083  -0.090  0.00  0.00     0.030 C 
ATOM     16  N   UNL d   1      13.841  11.941  -0.238  0.00  0.00    -0.140 NA
ATOM     17  N   UNL d   1      13.325  11.855  -0.892  0.00  0.00    -0.134 NA
ENDBRANCH  11  12
ENDBRANCH  10  11
ENDBRANCH   8  10
ENDBRANCH   1   8
BRANCH   3  18
ATOM     18  C   UNL d   1      12.977  14.861  -5.013  0.00  0.00     0.107 C 
BRANCH  18  19
ATOM     19  C   UNL d   1      13.526  15.477  -5.137  0.00  0.00     0.135 C 
BRANCH  19  20
ATOM     20  O   UNL d   1      13.672  15.765  -5.878  0.00  0.00    -0.325 OA
ATOM     21  C   UNL d   1      13.593  16.437  -6.003  0.00  0.00     0.182 C 
ENDBRANCH  19  20
ENDBRANCH  18  19
ENDBRANCH   3  18
TORSDOF 7
ENDMDL
