MODEL 1
REMARK VINA RESULT:      -7.4      0.000      0.000
REMARK  4 active torsions:
REMARK  status: ('A' for Active; 'I' for Inactive)
REMARK    1  A    between atoms: N_7  and  C_4 
REMARK    2  A    between atoms: N_9  and  N_7 
REMARK       I    between atoms: C_8  and  N_9 
REMARK    3  A    between atoms: C_11  and  C_8 
REMARK    4  A    between atoms: C_13  and  C_14 
ROOT
ATOM      1  C   UNL d   1     -46.528  13.351  22.803  0.00  0.00     0.297 C 
ATOM      2  N   UNL d   1     -47.331  13.307  22.624  0.00  0.00    -0.104 NA
ATOM      3  O   UNL d   1     -46.148  14.082  22.815  0.00  0.00    -0.264 OA
ENDROOT
BRANCH   1   4
ATOM      4  C   UNL d   1     -46.107  12.664  22.968  0.00  0.00     0.059 A 
ATOM      5  C   UNL d   1     -45.363  12.545  22.632  0.00  0.00     0.004 A 
ATOM      6  C   UNL d   1     -44.940  11.857  22.797  0.00  0.00    -0.004 A 
ATOM      7  C   UNL d   1     -45.263  11.289  23.299  0.00  0.00    -0.023 A 
ATOM      8  C   UNL d   1     -46.013  11.402  23.642  0.00  0.00    -0.004 A 
ATOM      9  C   UNL d   1     -46.428  12.088  23.473  0.00  0.00     0.004 A 
BRANCH   7  10
ATOM     10  C   UNL d   1     -44.829  10.600  23.459  0.00  0.00     0.019 C 
ATOM     11  C   UNL d   1     -45.371  10.041  23.698  0.00  0.00     0.004 C 
ATOM     12  C   UNL d   1     -44.037  10.822  23.295  0.00  0.00     0.004 C 
ATOM     13  C   UNL d   1     -44.407   9.917  23.619  0.00  0.00     0.004 C 
ENDBRANCH   7  10
ENDBRANCH   1   4
BRANCH   2  14
ATOM     14  N   UNL d   1     -47.753  13.994  22.459  0.00  0.00    -0.127 NA
BRANCH  14  15
ATOM     15  C   UNL d   1     -48.545  13.947  22.225  0.00  0.00     0.178 A 
ATOM     16  N   UNL d   1     -49.058  14.570  22.375  0.00  0.00    -0.240 N 
ATOM     17  C   UNL d   1     -49.841  14.524  22.144  0.00  0.00     0.343 A 
ATOM     18  C   UNL d   1     -48.782  15.245  22.761  0.00  0.00     0.105 C 
ATOM     19  N   UNL d   1     -50.117  13.849  21.758  0.00  0.00    -0.224 N 
ATOM     20  O   UNL d   1     -50.356  15.151  22.296  0.00  0.00    -0.245 OA
ATOM     21  C   UNL d   1     -49.613  13.214  21.600  0.00  0.00     0.271 A 
ATOM     22  C   UNL d   1     -50.908  13.802  21.525  0.00  0.00     0.107 C 
ATOM     23  C   UNL d   1     -48.821  13.272  21.839  0.00  0.00     0.101 A 
ATOM     24  O   UNL d   1     -49.887  12.546  21.218  0.00  0.00    -0.266 OA
ENDBRANCH  14  15
ENDBRANCH   2  14
TORSDOF 4
ENDMDL
MODEL 2
REMARK VINA RESULT:      -6.4      1.799      5.236
REMARK  4 active torsions:
REMARK  status: ('A' for Active; 'I' for Inactive)
REMARK    1  A    between atoms: N_7  and  C_4 
REMARK    2  A    between atoms: N_9  and  N_7 
REMARK       I    between atoms: C_8  and  N_9 
REMARK    3  A    between atoms: C_11  and  C_8 
REMARK    4  A    between atoms: C_13  and  C_14 
ROOT
ATOM      1  C   UNL d   1     -47.943  11.983  23.224  0.00  0.00     0.297 C 
ATOM      2  N   UNL d   1     -47.166  12.209  23.075  0.00  0.00    -0.104 NA
ATOM      3  O   UNL d   1     -48.098  11.296  23.654  0.00  0.00    -0.264 OA
ENDROOT
BRANCH   1   4
ATOM      4  C   UNL d   1     -48.565  12.442  22.944  0.00  0.00     0.059 A 
ATOM      5  C   UNL d   1     -48.980  12.209  22.269  0.00  0.00     0.004 A 
ATOM      6  C   UNL d   1     -49.603  12.669  21.988  0.00  0.00    -0.004 A 
ATOM      7  C   UNL d   1     -49.811  13.361  22.382  0.00  0.00    -0.023 A 
ATOM      8  C   UNL d   1     -49.398  13.603  23.064  0.00  0.00    -0.004 A 
ATOM      9  C   UNL d   1     -48.779  13.141  23.338  0.00  0.00     0.004 A 
BRANCH   7  10
ATOM     10  C   UNL d   1     -50.440  13.817  22.092  0.00  0.00     0.019 C 
ATOM     11  C   UNL d   1     -50.967  13.292  21.759  0.00  0.00     0.004 C 
ATOM     12  C   UNL d   1     -50.220  14.603  22.286  0.00  0.00     0.004 C 
ATOM     13  C   UNL d   1     -51.064  14.262  21.802  0.00  0.00     0.004 C 
ENDBRANCH   7  10
ENDBRANCH   1   4
BRANCH   2  14
ATOM     14  N   UNL d   1     -46.543  11.750  23.356  0.00  0.00    -0.127 NA
BRANCH  14  15
ATOM     15  C   UNL d   1     -45.780  11.861  23.058  0.00  0.00     0.178 A 
ATOM     16  N   UNL d   1     -45.186  11.319  23.227  0.00  0.00    -0.240 N 
ATOM     17  C   UNL d   1     -44.432  11.430  22.933  0.00  0.00     0.343 A 
ATOM     18  C   UNL d   1     -45.353  10.661  23.695  0.00  0.00     0.105 C 
ATOM     19  N   UNL d   1     -44.265  12.088  22.464  0.00  0.00    -0.224 N 
ATOM     20  O   UNL d   1     -43.836  10.884  23.103  0.00  0.00    -0.245 OA
ATOM     21  C   UNL d   1     -44.851  12.642  22.285  0.00  0.00     0.271 A 
ATOM     22  C   UNL d   1     -43.502  12.200  22.166  0.00  0.00     0.107 C 
ATOM     23  C   UNL d   1     -45.613  12.520  22.590  0.00  0.00     0.101 A 
ATOM     24  O   UNL d   1     -44.685  13.294  21.821  0.00  0.00    -0.266 OA
ENDBRANCH  14  15
ENDBRANCH   2  14
TORSDOF 4
ENDMDL
MODEL 3
REMARK VINA RESULT:      -6.2      8.099      9.749
REMARK  4 active torsions:
REMARK  status: ('A' for Active; 'I' for Inactive)
REMARK    1  A    between atoms: N_7  and  C_4 
REMARK    2  A    between atoms: N_9  and  N_7 
REMARK       I    between atoms: C_8  and  N_9 
REMARK    3  A    between atoms: C_11  and  C_8 
REMARK    4  A    between atoms: C_13  and  C_14 
ROOT
ATOM      1  C   UNL d   1     -40.140  14.287  18.611  0.00  0.00     0.297 C 
ATOM      2  N   UNL d   1     -39.784  14.540  19.309  0.00  0.00    -0.104 NA
ATOM      3  O   UNL d   1     -40.935  14.065  18.609  0.00  0.00    -0.264 OA
ENDROOT
BRANCH   1   4
ATOM      4  C   UNL d   1     -39.703  14.256  17.915  0.00  0.00     0.059 A 
ATOM      5  C   UNL d   1     -39.134  13.667  17.810  0.00  0.00     0.004 A 
ATOM      6  C   UNL d   1     -38.695  13.636  17.113  0.00  0.00    -0.004 A 
ATOM      7  C   UNL d   1     -38.827  14.193  16.522  0.00  0.00    -0.023 A 
ATOM      8  C   UNL d   1     -39.399  14.790  16.619  0.00  0.00    -0.004 A 
ATOM      9  C   UNL d   1     -39.831  14.815  17.315  0.00  0.00     0.004 A 
BRANCH   7  10
ATOM     10  C   UNL d   1     -38.380  14.153  15.824  0.00  0.00     0.019 C 
ATOM     11  C   UNL d   1     -38.332  13.364  15.629  0.00  0.00     0.004 C 
ATOM     12  C   UNL d   1     -38.196  14.956  15.661  0.00  0.00     0.004 C 
ATOM     13  C   UNL d   1     -37.940  14.107  15.135  0.00  0.00     0.004 C 
ENDBRANCH   7  10
ENDBRANCH   1   4
BRANCH   2  14
ATOM     14  N   UNL d   1     -40.222  14.571  20.005  0.00  0.00    -0.127 NA
BRANCH  14  15
ATOM     15  C   UNL d   1     -39.836  14.615  20.735  0.00  0.00     0.178 A 
ATOM     16  N   UNL d   1     -39.984  15.243  21.244  0.00  0.00    -0.240 N 
ATOM     17  C   UNL d   1     -39.602  15.286  21.966  0.00  0.00     0.343 A 
ATOM     18  C   UNL d   1     -40.520  15.831  21.026  0.00  0.00     0.105 C 
ATOM     19  N   UNL d   1     -39.066  14.698  22.184  0.00  0.00    -0.224 N 
ATOM     20  O   UNL d   1     -39.752  15.917  22.477  0.00  0.00    -0.245 OA
ATOM     21  C   UNL d   1     -38.907  14.061  21.683  0.00  0.00     0.271 A 
ATOM     22  C   UNL d   1     -38.680  14.741  22.914  0.00  0.00     0.107 C 
ATOM     23  C   UNL d   1     -39.300  14.027  20.953  0.00  0.00     0.101 A 
ATOM     24  O   UNL d   1     -38.376  13.479  21.900  0.00  0.00    -0.266 OA
ENDBRANCH  14  15
ENDBRANCH   2  14
TORSDOF 4
ENDMDL
MODEL 4
REMARK VINA RESULT:      -6.2      7.969      9.154
REMARK  4 active torsions:
REMARK  status: ('A' for Active; 'I' for Inactive)
REMARK    1  A    between atoms: N_7  and  C_4 
REMARK    2  A    between atoms: N_9  and  N_7 
REMARK       I    between atoms: C_8  and  N_9 
REMARK    3  A    between atoms: C_11  and  C_8 
REMARK    4  A    between atoms: C_13  and  C_14 
ROOT
ATOM      1  C   UNL d   1     -40.368  14.593  20.292  0.00  0.00     0.297 C 
ATOM      2  N   UNL d   1     -40.011  14.664  19.553  0.00  0.00    -0.104 NA
ATOM      3  O   UNL d   1     -41.156  14.355  20.348  0.00  0.00    -0.264 OA
ENDROOT
BRANCH   1   4
ATOM      4  C   UNL d   1     -39.938  14.759  20.973  0.00  0.00     0.059 A 
ATOM      5  C   UNL d   1     -39.808  15.542  21.199  0.00  0.00     0.004 A 
ATOM      6  C   UNL d   1     -39.377  15.709  21.881  0.00  0.00    -0.004 A 
ATOM      7  C   UNL d   1     -39.078  15.092  22.337  0.00  0.00    -0.023 A 
ATOM      8  C   UNL d   1     -39.205  14.299  22.117  0.00  0.00    -0.004 A 
ATOM      9  C   UNL d   1     -39.634  14.141  21.437  0.00  0.00     0.004 A 
BRANCH   7  10
ATOM     10  C   UNL d   1     -38.646  15.271  23.023  0.00  0.00     0.019 C 
ATOM     11  C   UNL d   1     -38.032  14.736  23.050  0.00  0.00     0.004 C 
ATOM     12  C   UNL d   1     -39.059  15.922  23.353  0.00  0.00     0.004 C 
ATOM     13  C   UNL d   1     -38.215  15.442  23.698  0.00  0.00     0.004 C 
ENDBRANCH   7  10
ENDBRANCH   1   4
BRANCH   2  14
ATOM     14  N   UNL d   1     -40.441  14.498  18.872  0.00  0.00    -0.127 NA
BRANCH  14  15
ATOM     15  C   UNL d   1     -40.060  14.468  18.139  0.00  0.00     0.178 A 
ATOM     16  N   UNL d   1     -40.288  14.973  17.532  0.00  0.00    -0.240 N 
ATOM     17  C   UNL d   1     -39.911  14.943  16.808  0.00  0.00     0.343 A 
ATOM     18  C   UNL d   1     -40.900  15.512  17.655  0.00  0.00     0.105 C 
ATOM     19  N   UNL d   1     -39.298  14.404  16.684  0.00  0.00    -0.224 N 
ATOM     20  O   UNL d   1     -40.142  15.451  16.199  0.00  0.00    -0.245 OA
ATOM     21  C   UNL d   1     -39.057  13.890  17.284  0.00  0.00     0.271 A 
ATOM     22  C   UNL d   1     -38.917  14.374  15.952  0.00  0.00     0.107 C 
ATOM     23  C   UNL d   1     -39.447  13.930  18.015  0.00  0.00     0.101 A 
ATOM     24  O   UNL d   1     -38.451  13.357  17.161  0.00  0.00    -0.266 OA
ENDBRANCH  14  15
ENDBRANCH   2  14
TORSDOF 4
ENDMDL
MODEL 5
REMARK VINA RESULT:      -5.2      8.607      9.392
REMARK  4 active torsions:
REMARK  status: ('A' for Active; 'I' for Inactive)
REMARK    1  A    between atoms: N_7  and  C_4 
REMARK    2  A    between atoms: N_9  and  N_7 
REMARK       I    between atoms: C_8  and  N_9 
REMARK    3  A    between atoms: C_11  and  C_8 
REMARK    4  A    between atoms: C_13  and  C_14 
ROOT
ATOM      1  C   UNL d   1     -38.642  13.994  19.751  0.00  0.00     0.297 C 
ATOM      2  N   UNL d   1     -39.064  14.441  19.203  0.00  0.00    -0.104 NA
ATOM      3  O   UNL d   1     -38.241  13.315  19.509  0.00  0.00    -0.264 OA
ENDROOT
BRANCH   1   4
ATOM      4  C   UNL d   1     -38.622  14.226  20.540  0.00  0.00     0.059 A 
ATOM      5  C   UNL d   1     -38.206  14.904  20.761  0.00  0.00     0.004 A 
ATOM      6  C   UNL d   1     -38.185  15.136  21.551  0.00  0.00    -0.004 A 
ATOM      7  C   UNL d   1     -38.580  14.691  22.119  0.00  0.00    -0.023 A 
ATOM      8  C   UNL d   1     -39.003  14.006  21.905  0.00  0.00    -0.004 A 
ATOM      9  C   UNL d   1     -39.019  13.780  21.117  0.00  0.00     0.004 A 
BRANCH   7  10
ATOM     10  C   UNL d   1     -38.554  14.933  22.913  0.00  0.00     0.019 C 
ATOM     11  C   UNL d   1     -38.786  14.290  23.355  0.00  0.00     0.004 C 
ATOM     12  C   UNL d   1     -38.297  15.731  22.867  0.00  0.00     0.004 C 
ATOM     13  C   UNL d   1     -38.529  15.166  23.697  0.00  0.00     0.004 C 
ENDBRANCH   7  10
ENDBRANCH   1   4
BRANCH   2  14
ATOM     14  N   UNL d   1     -39.084  14.209  18.414  0.00  0.00    -0.127 NA
BRANCH  14  15
ATOM     15  C   UNL d   1     -39.532  14.639  17.867  0.00  0.00     0.178 A 
ATOM     16  N   UNL d   1     -39.175  14.963  17.202  0.00  0.00    -0.240 N 
ATOM     17  C   UNL d   1     -39.618  15.387  16.662  0.00  0.00     0.343 A 
ATOM     18  C   UNL d   1     -38.366  14.858  17.079  0.00  0.00     0.105 C 
ATOM     19  N   UNL d   1     -40.427  15.492  16.785  0.00  0.00    -0.224 N 
ATOM     20  O   UNL d   1     -39.257  15.712  15.994  0.00  0.00    -0.245 OA
ATOM     21  C   UNL d   1     -40.801  15.174  17.449  0.00  0.00     0.271 A 
ATOM     22  C   UNL d   1     -40.875  15.922  16.239  0.00  0.00     0.107 C 
ATOM     23  C   UNL d   1     -40.341  14.744  17.990  0.00  0.00     0.101 A 
ATOM     24  O   UNL d   1     -41.602  15.278  17.570  0.00  0.00    -0.266 OA
ENDBRANCH  14  15
ENDBRANCH   2  14
TORSDOF 4
ENDMDL
MODEL 6
REMARK VINA RESULT:      -5.0      8.728      9.951
REMARK  4 active torsions:
REMARK  status: ('A' for Active; 'I' for Inactive)
REMARK    1  A    between atoms: N_7  and  C_4 
REMARK    2  A    between atoms: N_9  and  N_7 
REMARK       I    between atoms: C_8  and  N_9 
REMARK    3  A    between atoms: C_11  and  C_8 
REMARK    4  A    between atoms: C_13  and  C_14 
ROOT
ATOM      1  C   UNL d   1     -38.874  14.519  18.877  0.00  0.00     0.297 C 
ATOM      2  N   UNL d   1     -38.918  14.670  19.685  0.00  0.00    -0.104 NA
ATOM      3  O   UNL d   1     -38.240  14.088  18.572  0.00  0.00    -0.264 OA
ENDROOT
BRANCH   1   4
ATOM      4  C   UNL d   1     -39.463  14.797  18.374  0.00  0.00     0.059 A 
ATOM      5  C   UNL d   1     -39.260  15.206  17.687  0.00  0.00     0.004 A 
ATOM      6  C   UNL d   1     -39.850  15.485  17.183  0.00  0.00    -0.004 A 
ATOM      7  C   UNL d   1     -40.641  15.354  17.368  0.00  0.00    -0.023 A 
ATOM      8  C   UNL d   1     -40.854  14.943  18.061  0.00  0.00    -0.004 A 
ATOM      9  C   UNL d   1     -40.263  14.668  18.557  0.00  0.00     0.004 A 
BRANCH   7  10
ATOM     10  C   UNL d   1     -41.228  15.639  16.855  0.00  0.00     0.019 C 
ATOM     11  C   UNL d   1     -41.834  15.907  17.328  0.00  0.00     0.004 C 
ATOM     12  C   UNL d   1     -40.902  15.509  16.092  0.00  0.00     0.004 C 
ATOM     13  C   UNL d   1     -41.810  15.922  16.354  0.00  0.00     0.004 C 
ENDBRANCH   7  10
ENDBRANCH   1   4
BRANCH   2  14
ATOM     14  N   UNL d   1     -38.329  14.392  20.187  0.00  0.00    -0.127 NA
BRANCH  14  15
ATOM     15  C   UNL d   1     -38.424  14.445  21.007  0.00  0.00     0.178 A 
ATOM     16  N   UNL d   1     -38.270  13.796  21.486  0.00  0.00    -0.240 N 
ATOM     17  C   UNL d   1     -38.365  13.849  22.296  0.00  0.00     0.343 A 
ATOM     18  C   UNL d   1     -38.019  13.087  21.146  0.00  0.00     0.105 C 
ATOM     19  N   UNL d   1     -38.616  14.558  22.635  0.00  0.00    -0.224 N 
ATOM     20  O   UNL d   1     -38.210  13.195  22.775  0.00  0.00    -0.245 OA
ATOM     21  C   UNL d   1     -38.775  15.220  22.168  0.00  0.00     0.271 A 
ATOM     22  C   UNL d   1     -38.712  14.612  23.454  0.00  0.00     0.107 C 
ATOM     23  C   UNL d   1     -38.676  15.154  21.346  0.00  0.00     0.101 A 
ATOM     24  O   UNL d   1     -39.024  15.922  22.504  0.00  0.00    -0.266 OA
ENDBRANCH  14  15
ENDBRANCH   2  14
TORSDOF 4
ENDMDL
MODEL 7
REMARK VINA RESULT:      -4.8      3.321      4.641
REMARK  4 active torsions:
REMARK  status: ('A' for Active; 'I' for Inactive)
REMARK    1  A    between atoms: N_7  and  C_4 
REMARK    2  A    between atoms: N_9  and  N_7 
REMARK       I    between atoms: C_8  and  N_9 
REMARK    3  A    between atoms: C_11  and  C_8 
REMARK    4  A    between atoms: C_13  and  C_14 
ROOT
ATOM      1  C   UNL d   1     -43.289  12.585  21.761  0.00  0.00     0.297 C 
ATOM      2  N   UNL d   1     -44.024  12.907  21.947  0.00  0.00    -0.104 NA
ATOM      3  O   UNL d   1     -43.134  11.790  21.919  0.00  0.00    -0.264 OA
ENDROOT
BRANCH   1   4
ATOM      4  C   UNL d   1     -42.709  13.057  21.419  0.00  0.00     0.059 A 
ATOM      5  C   UNL d   1     -42.047  13.283  21.857  0.00  0.00     0.004 A 
ATOM      6  C   UNL d   1     -41.466  13.756  21.515  0.00  0.00    -0.004 A 
ATOM      7  C   UNL d   1     -41.547  14.002  20.734  0.00  0.00    -0.023 A 
ATOM      8  C   UNL d   1     -42.212  13.779  20.284  0.00  0.00    -0.004 A 
ATOM      9  C   UNL d   1     -42.786  13.309  20.631  0.00  0.00     0.004 A 
BRANCH   7  10
ATOM     10  C   UNL d   1     -40.957  14.478  20.397  0.00  0.00     0.019 C 
ATOM     11  C   UNL d   1     -40.655  14.057  19.769  0.00  0.00     0.004 C 
ATOM     12  C   UNL d   1     -40.962  15.168  20.876  0.00  0.00     0.004 C 
ATOM     13  C   UNL d   1     -40.373  14.944  20.061  0.00  0.00     0.004 C 
ENDBRANCH   7  10
ENDBRANCH   1   4
BRANCH   2  14
ATOM     14  N   UNL d   1     -44.604  12.434  22.289  0.00  0.00    -0.127 NA
BRANCH  14  15
ATOM     15  C   UNL d   1     -45.318  12.770  22.537  0.00  0.00     0.178 A 
ATOM     16  N   UNL d   1     -45.857  12.326  22.970  0.00  0.00    -0.240 N 
ATOM     17  C   UNL d   1     -46.562  12.658  23.214  0.00  0.00     0.343 A 
ATOM     18  C   UNL d   1     -45.684  11.541  23.158  0.00  0.00     0.105 C 
ATOM     19  N   UNL d   1     -46.735  13.442  23.026  0.00  0.00    -0.224 N 
ATOM     20  O   UNL d   1     -47.102  12.210  23.650  0.00  0.00    -0.245 OA
ATOM     21  C   UNL d   1     -46.204  13.902  22.592  0.00  0.00     0.271 A 
ATOM     22  C   UNL d   1     -47.448  13.779  23.274  0.00  0.00     0.107 C 
ATOM     23  C   UNL d   1     -45.491  13.554  22.349  0.00  0.00     0.101 A 
ATOM     24  O   UNL d   1     -46.375  14.679  22.406  0.00  0.00    -0.266 OA
ENDBRANCH  14  15
ENDBRANCH   2  14
TORSDOF 4
ENDMDL
MODEL 8
REMARK VINA RESULT:      -4.7      1.561      2.257
REMARK  4 active torsions:
REMARK  status: ('A' for Active; 'I' for Inactive)
REMARK    1  A    between atoms: N_7  and  C_4 
REMARK    2  A    between atoms: N_9  and  N_7 
REMARK       I    between atoms: C_8  and  N_9 
REMARK    3  A    between atoms: C_11  and  C_8 
REMARK    4  A    between atoms: C_13  and  C_14 
ROOT
ATOM      1  C   UNL d   1     -46.306  12.314  23.124  0.00  0.00     0.297 C 
ATOM      2  N   UNL d   1     -46.949  12.794  22.940  0.00  0.00    -0.104 NA
ATOM      3  O   UNL d   1     -46.381  11.725  23.697  0.00  0.00    -0.264 OA
ENDROOT
BRANCH   1   4
ATOM      4  C   UNL d   1     -45.588  12.424  22.736  0.00  0.00     0.059 A 
ATOM      5  C   UNL d   1     -45.460  13.104  22.289  0.00  0.00     0.004 A 
ATOM      6  C   UNL d   1     -44.742  13.214  21.900  0.00  0.00    -0.004 A 
ATOM      7  C   UNL d   1     -44.153  12.642  21.960  0.00  0.00    -0.023 A 
ATOM      8  C   UNL d   1     -44.274  11.952  22.410  0.00  0.00    -0.004 A 
ATOM      9  C   UNL d   1     -44.991  11.850  22.794  0.00  0.00     0.004 A 
BRANCH   7  10
ATOM     10  C   UNL d   1     -43.433  12.762  21.565  0.00  0.00     0.019 C 
ATOM     11  C   UNL d   1     -43.620  13.100  20.848  0.00  0.00     0.004 C 
ATOM     12  C   UNL d   1     -42.861  12.472  22.107  0.00  0.00     0.004 C 
ATOM     13  C   UNL d   1     -42.725  12.882  21.170  0.00  0.00     0.004 C 
ENDBRANCH   7  10
ENDBRANCH   1   4
BRANCH   2  14
ATOM     14  N   UNL d   1     -47.666  12.685  23.328  0.00  0.00    -0.127 NA
BRANCH  14  15
ATOM     15  C   UNL d   1     -48.309  13.178  23.157  0.00  0.00     0.178 A 
ATOM     16  N   UNL d   1     -49.078  12.905  23.255  0.00  0.00    -0.240 N 
ATOM     17  C   UNL d   1     -49.711  13.392  23.086  0.00  0.00     0.343 A 
ATOM     18  C   UNL d   1     -49.209  12.137  23.524  0.00  0.00     0.105 C 
ATOM     19  N   UNL d   1     -49.580  14.161  22.817  0.00  0.00    -0.224 N 
ATOM     20  O   UNL d   1     -50.484  13.117  23.184  0.00  0.00    -0.245 OA
ATOM     21  C   UNL d   1     -48.813  14.450  22.714  0.00  0.00     0.271 A 
ATOM     22  C   UNL d   1     -50.221  14.654  22.646  0.00  0.00     0.107 C 
ATOM     23  C   UNL d   1     -48.177  13.946  22.888  0.00  0.00     0.101 A 
ATOM     24  O   UNL d   1     -48.683  15.211  22.447  0.00  0.00    -0.266 OA
ENDBRANCH  14  15
ENDBRANCH   2  14
TORSDOF 4
ENDMDL
