MODEL 1
REMARK VINA RESULT:      22.5      0.000      0.000
REMARK  5 active torsions:
REMARK  status: ('A' for Active; 'I' for Inactive)
REMARK    1  A    between atoms: N_2  and  S_1 
REMARK    2  A    between atoms: C_7  and  S_1 
REMARK    3  A    between atoms: C_3  and  N_2 
REMARK    4  A    between atoms: C_6  and  O_8 
REMARK    5  A    between atoms: O_8  and  C_9 
ROOT
ATOM      1  C   UNL d   1      45.562 -16.242  44.458  0.00  0.00     0.117 A 
ATOM      2  C   UNL d   1      45.445 -15.428  44.511  0.00  0.00     0.118 A 
ATOM      3  C   UNL d   1      44.937 -16.745  44.657  0.00  0.00     0.022 A 
ATOM      4  C   UNL d   1      44.723 -15.123  44.757  0.00  0.00     0.026 A 
ATOM      5  C   UNL d   1      44.215 -16.440  44.903  0.00  0.00     0.002 A 
ATOM      6  C   UNL d   1      44.102 -15.624  44.955  0.00  0.00     0.002 A 
ENDROOT
BRANCH   1   7
ATOM      7  N   UNL d   1      46.284 -16.548  44.212  0.00  0.00    -0.156 NA
BRANCH   7   8
ATOM      8  S   UNL d   1      46.344 -17.337  43.985  0.00  0.00     0.285 S 
ATOM      9  O   UNL d   1      46.516 -17.550  44.783  0.00  0.00    -0.198 OA
ATOM     10  O   UNL d   1      46.176 -17.126  43.204  0.00  0.00    -0.198 OA
BRANCH   8  11
ATOM     11  C   UNL d   1      46.406 -18.146  43.755  0.00  0.00     0.105 A 
ATOM     12  C   UNL d   1      46.469 -18.337  42.950  0.00  0.00     0.013 A 
ATOM     13  C   UNL d   1      46.530 -19.132  42.733  0.00  0.00     0.001 A 
ATOM     14  C   UNL d   1      46.528 -19.738  43.317  0.00  0.00     0.000 A 
ATOM     15  C   UNL d   1      46.465 -19.535  44.107  0.00  0.00     0.001 A 
ATOM     16  C   UNL d   1      46.404 -18.751  44.339  0.00  0.00     0.013 A 
ENDBRANCH   8  11
ENDBRANCH   7   8
ENDBRANCH   1   7
BRANCH   2  17
ATOM     17  O   UNL d   1      46.091 -14.914  44.305  0.00  0.00    -0.306 OA
BRANCH  17  18
ATOM     18  C   UNL d   1      45.968 -14.112  44.177  0.00  0.00     0.100 A 
ATOM     19  C   UNL d   1      45.470 -13.855  43.564  0.00  0.00     0.025 A 
ATOM     20  C   UNL d   1      45.358 -13.041  43.449  0.00  0.00     0.002 A 
ATOM     21  C   UNL d   1      44.917 -12.775  42.908  0.00  0.00     0.000 C 
ATOM     22  C   UNL d   1      45.735 -12.493  43.935  0.00  0.00     0.000 A 
ATOM     23  C   UNL d   1      46.230 -12.763  44.543  0.00  0.00     0.002 A 
ATOM     24  C   UNL d   1      46.339 -13.574  44.655  0.00  0.00     0.025 A 
ATOM     25  C   UNL d   1      46.546 -12.197  44.953  0.00  0.00     0.000 C 
ENDBRANCH  17  18
ENDBRANCH   2  17
TORSDOF 5
ENDMDL
MODEL 2
REMARK VINA RESULT:      23.8      0.809      4.749
REMARK  5 active torsions:
REMARK  status: ('A' for Active; 'I' for Inactive)
REMARK    1  A    between atoms: N_2  and  S_1 
REMARK    2  A    between atoms: C_7  and  S_1 
REMARK    3  A    between atoms: C_3  and  N_2 
REMARK    4  A    between atoms: C_6  and  O_8 
REMARK    5  A    between atoms: O_8  and  C_9 
ROOT
ATOM      1  C   UNL d   1      45.676 -16.033  44.325  0.00  0.00     0.117 A 
ATOM      2  C   UNL d   1      45.798 -16.844  44.242  0.00  0.00     0.118 A 
ATOM      3  C   UNL d   1      44.978 -15.774  44.684  0.00  0.00     0.022 A 
ATOM      4  C   UNL d   1      45.239 -17.383  44.510  0.00  0.00     0.026 A 
ATOM      5  C   UNL d   1      44.419 -16.312  44.952  0.00  0.00     0.002 A 
ATOM      6  C   UNL d   1      44.546 -17.123  44.867  0.00  0.00     0.002 A 
ENDROOT
BRANCH   1   7
ATOM      7  N   UNL d   1      46.236 -15.494  44.057  0.00  0.00    -0.156 NA
BRANCH   7   8
ATOM      8  S   UNL d   1      46.072 -14.687  44.069  0.00  0.00     0.285 S 
ATOM      9  O   UNL d   1      45.872 -14.719  43.251  0.00  0.00    -0.198 OA
ATOM     10  O   UNL d   1      46.269 -14.658  44.871  0.00  0.00    -0.198 OA
BRANCH   8  11
ATOM     11  C   UNL d   1      45.904 -13.861  44.079  0.00  0.00     0.105 A 
ATOM     12  C   UNL d   1      45.587 -13.502  43.401  0.00  0.00     0.013 A 
ATOM     13  C   UNL d   1      45.425 -12.691  43.419  0.00  0.00     0.001 A 
ATOM     14  C   UNL d   1      45.579 -12.238  44.111  0.00  0.00     0.000 A 
ATOM     15  C   UNL d   1      45.891 -12.605  44.771  0.00  0.00     0.001 A 
ATOM     16  C   UNL d   1      46.058 -13.408  44.770  0.00  0.00     0.013 A 
ENDBRANCH   8  11
ENDBRANCH   7   8
ENDBRANCH   1   7
BRANCH   2  17
ATOM     17  O   UNL d   1      46.518 -17.107  43.871  0.00  0.00    -0.306 OA
BRANCH  17  18
ATOM     18  C   UNL d   1      46.560 -17.840  43.503  0.00  0.00     0.100 A 
ATOM     19  C   UNL d   1      46.581 -18.537  43.953  0.00  0.00     0.025 A 
ATOM     20  C   UNL d   1      46.624 -19.269  43.565  0.00  0.00     0.002 A 
ATOM     21  C   UNL d   1      46.645 -19.915  43.937  0.00  0.00     0.000 C 
ATOM     22  C   UNL d   1      46.645 -19.305  42.742  0.00  0.00     0.000 A 
ATOM     23  C   UNL d   1      46.624 -18.602  42.304  0.00  0.00     0.002 A 
ATOM     24  C   UNL d   1      46.581 -17.875  42.695  0.00  0.00     0.025 A 
ATOM     25  C   UNL d   1      46.647 -18.713  41.545  0.00  0.00     0.000 C 
ENDBRANCH  17  18
ENDBRANCH   2  17
TORSDOF 5
ENDMDL
