MODEL 1
REMARK VINA RESULT:      -5.8      0.000      0.000
REMARK  4 active torsions:
REMARK  status: ('A' for Active; 'I' for Inactive)
REMARK    1  A    between atoms: N_2  and  S_1 
REMARK    2  A    between atoms: C_3  and  S_1 
REMARK    3  A    between atoms: C_18  and  N_6 
REMARK    4  A    between atoms: C_19  and  C_18 
ROOT
ATOM      1  N   UNL d   1     -39.528  14.899  19.362  0.00  0.00    -0.226 N 
ATOM      2  N   UNL d   1     -39.750  15.101  17.727  0.00  0.00    -0.300 N 
ATOM      3  C   UNL d   1     -39.390  15.647  19.010  0.00  0.00     0.111 A 
ATOM      4  C   UNL d   1     -39.769  14.281  18.893  0.00  0.00     0.111 A 
ATOM      5  C   UNL d   1     -39.880  14.382  18.073  0.00  0.00     0.100 A 
ATOM      6  C   UNL d   1     -39.502  15.748  18.190  0.00  0.00     0.100 A 
ENDROOT
BRANCH   1   7
ATOM      7  S   UNL d   1     -39.417  14.799  20.173  0.00  0.00     0.272 S 
ATOM      8  O   UNL d   1     -38.687  15.188  20.122  0.00  0.00    -0.200 OA
ATOM      9  O   UNL d   1     -40.152  14.407  20.224  0.00  0.00    -0.200 OA
BRANCH   7  10
ATOM     10  C   UNL d   1     -39.306  14.698  20.988  0.00  0.00     0.106 A 
ATOM     11  C   UNL d   1     -38.907  14.055  21.276  0.00  0.00     0.040 A 
ATOM     12  C   UNL d   1     -38.799  13.956  22.071  0.00  0.00     0.123 A 
ATOM     13  O   UNL d   1     -38.383  13.285  22.350  0.00  0.00    -0.301 OA
ATOM     14  C   UNL d   1     -39.088  14.499  22.595  0.00  0.00     0.123 A 
ATOM     15  C   UNL d   1     -38.272  13.184  23.165  0.00  0.00     0.149 A 
ATOM     16  C   UNL d   1     -38.577  13.756  23.698  0.00  0.00     0.149 A 
ATOM     17  O   UNL d   1     -38.977  14.399  23.411  0.00  0.00    -0.301 OA
ATOM     18  C   UNL d   1     -39.490  15.150  22.338  0.00  0.00     0.028 A 
ATOM     19  C   UNL d   1     -39.610  15.266  21.522  0.00  0.00     0.015 A 
ENDBRANCH   7  10
ENDBRANCH   1   7
BRANCH   2  20
ATOM     20  C   UNL d   1     -39.861  15.202  16.908  0.00  0.00     0.080 C 
BRANCH  20  21
ATOM     21  C   UNL d   1     -39.229  15.202  16.404  0.00  0.00     0.018 A 
ATOM     22  C   UNL d   1     -38.836  15.919  16.223  0.00  0.00     0.002 A 
ATOM     23  C   UNL d   1     -38.204  15.920  15.720  0.00  0.00     0.000 A 
ATOM     24  C   UNL d   1     -37.940  15.216  15.379  0.00  0.00     0.000 A 
ATOM     25  C   UNL d   1     -38.306  14.510  15.540  0.00  0.00     0.000 A 
ATOM     26  C   UNL d   1     -38.964  14.499  16.063  0.00  0.00     0.002 A 
ENDBRANCH  20  21
ENDBRANCH   2  20
TORSDOF 4
ENDMDL
MODEL 2
REMARK VINA RESULT:      -5.8      1.693      5.475
REMARK  4 active torsions:
REMARK  status: ('A' for Active; 'I' for Inactive)
REMARK    1  A    between atoms: N_2  and  S_1 
REMARK    2  A    between atoms: C_3  and  S_1 
REMARK    3  A    between atoms: C_18  and  N_6 
REMARK    4  A    between atoms: C_19  and  C_18 
ROOT
ATOM      1  N   UNL d   1     -39.188  14.879  19.033  0.00  0.00    -0.226 N 
ATOM      2  N   UNL d   1     -39.610  14.905  20.640  0.00  0.00    -0.300 N 
ATOM      3  C   UNL d   1     -39.845  14.433  19.300  0.00  0.00     0.111 A 
ATOM      4  C   UNL d   1     -38.767  15.319  19.568  0.00  0.00     0.111 A 
ATOM      5  C   UNL d   1     -38.978  15.333  20.375  0.00  0.00     0.100 A 
ATOM      6  C   UNL d   1     -40.057  14.446  20.107  0.00  0.00     0.100 A 
ENDROOT
BRANCH   1   7
ATOM      7  S   UNL d   1     -38.979  14.865  18.235  0.00  0.00     0.272 S 
ATOM      8  O   UNL d   1     -39.760  14.675  18.033  0.00  0.00    -0.200 OA
ATOM      9  O   UNL d   1     -38.193  15.057  18.438  0.00  0.00    -0.200 OA
BRANCH   7  10
ATOM     10  C   UNL d   1     -38.769  14.852  17.433  0.00  0.00     0.106 A 
ATOM     11  C   UNL d   1     -38.565  14.157  17.069  0.00  0.00     0.040 A 
ATOM     12  C   UNL d   1     -38.359  14.144  16.288  0.00  0.00     0.123 A 
ATOM     13  O   UNL d   1     -38.152  13.416  15.930  0.00  0.00    -0.301 OA
ATOM     14  C   UNL d   1     -38.354  14.825  15.853  0.00  0.00     0.123 A 
ATOM     15  C   UNL d   1     -37.941  13.402  15.128  0.00  0.00     0.149 A 
ATOM     16  C   UNL d   1     -37.940  14.117  14.688  0.00  0.00     0.149 A 
ATOM     17  O   UNL d   1     -38.143  14.812  15.051  0.00  0.00    -0.301 OA
ATOM     18  C   UNL d   1     -38.552  15.532  16.188  0.00  0.00     0.028 A 
ATOM     19  C   UNL d   1     -38.766  15.563  16.993  0.00  0.00     0.015 A 
ENDBRANCH   7  10
ENDBRANCH   1   7
BRANCH   2  20
ATOM     20  C   UNL d   1     -39.822  14.919  21.446  0.00  0.00     0.080 C 
BRANCH  20  21
ATOM     21  C   UNL d   1     -39.372  14.533  21.995  0.00  0.00     0.018 A 
ATOM     22  C   UNL d   1     -39.456  13.707  22.101  0.00  0.00     0.002 A 
ATOM     23  C   UNL d   1     -39.005  13.321  22.651  0.00  0.00     0.000 A 
ATOM     24  C   UNL d   1     -38.461  13.735  23.112  0.00  0.00     0.000 A 
ATOM     25  C   UNL d   1     -38.364  14.536  23.026  0.00  0.00     0.000 A 
ATOM     26  C   UNL d   1     -38.827  14.947  22.457  0.00  0.00     0.002 A 
ENDBRANCH  20  21
ENDBRANCH   2  20
TORSDOF 4
ENDMDL
MODEL 3
REMARK VINA RESULT:      -4.8      1.667      5.499
REMARK  4 active torsions:
REMARK  status: ('A' for Active; 'I' for Inactive)
REMARK    1  A    between atoms: N_2  and  S_1 
REMARK    2  A    between atoms: C_3  and  S_1 
REMARK    3  A    between atoms: C_18  and  N_6 
REMARK    4  A    between atoms: C_19  and  C_18 
ROOT
ATOM      1  N   UNL d   1     -39.402  15.349  20.047  0.00  0.00    -0.226 N 
ATOM      2  N   UNL d   1     -38.863  15.217  21.613  0.00  0.00    -0.300 N 
ATOM      3  C   UNL d   1     -39.946  15.406  20.682  0.00  0.00     0.111 A 
ATOM      4  C   UNL d   1     -38.616  15.229  20.210  0.00  0.00     0.111 A 
ATOM      5  C   UNL d   1     -38.346  15.162  20.996  0.00  0.00     0.100 A 
ATOM      6  C   UNL d   1     -39.675  15.340  21.468  0.00  0.00     0.100 A 
ENDROOT
BRANCH   1   7
ATOM      7  S   UNL d   1     -39.670  15.415  19.269  0.00  0.00     0.272 S 
ATOM      8  O   UNL d   1     -38.969  15.806  19.061  0.00  0.00    -0.200 OA
ATOM      9  O   UNL d   1     -40.375  15.021  19.479  0.00  0.00    -0.200 OA
BRANCH   7  10
ATOM     10  C   UNL d   1     -39.939  15.481  18.488  0.00  0.00     0.106 A 
ATOM     11  C   UNL d   1     -40.719  15.633  18.329  0.00  0.00     0.040 A 
ATOM     12  C   UNL d   1     -40.981  15.698  17.567  0.00  0.00     0.123 A 
ATOM     13  O   UNL d   1     -41.791  15.856  17.423  0.00  0.00    -0.301 OA
ATOM     14  C   UNL d   1     -40.469  15.611  16.948  0.00  0.00     0.123 A 
ATOM     15  C   UNL d   1     -42.060  15.922  16.642  0.00  0.00     0.149 A 
ATOM     16  C   UNL d   1     -41.517  15.829  16.008  0.00  0.00     0.149 A 
ATOM     17  O   UNL d   1     -40.738  15.677  16.166  0.00  0.00    -0.301 OA
ATOM     18  C   UNL d   1     -39.687  15.458  17.075  0.00  0.00     0.028 A 
ATOM     19  C   UNL d   1     -39.401  15.389  17.854  0.00  0.00     0.015 A 
ENDBRANCH   7  10
ENDBRANCH   1   7
BRANCH   2  20
ATOM     20  C   UNL d   1     -38.593  15.150  22.399  0.00  0.00     0.080 C 
BRANCH  20  21
ATOM     21  C   UNL d   1     -38.618  14.440  22.783  0.00  0.00     0.018 A 
ATOM     22  C   UNL d   1     -37.954  13.929  22.765  0.00  0.00     0.002 A 
ATOM     23  C   UNL d   1     -37.978  13.219  23.149  0.00  0.00     0.000 A 
ATOM     24  C   UNL d   1     -38.654  12.989  23.562  0.00  0.00     0.000 A 
ATOM     25  C   UNL d   1     -39.309  13.468  23.593  0.00  0.00     0.000 A 
ATOM     26  C   UNL d   1     -39.294  14.209  23.196  0.00  0.00     0.002 A 
ENDBRANCH  20  21
ENDBRANCH   2  20
TORSDOF 4
ENDMDL
MODEL 4
REMARK VINA RESULT:      -3.7      8.480      9.668
REMARK  4 active torsions:
REMARK  status: ('A' for Active; 'I' for Inactive)
REMARK    1  A    between atoms: N_2  and  S_1 
REMARK    2  A    between atoms: C_3  and  S_1 
REMARK    3  A    between atoms: C_18  and  N_6 
REMARK    4  A    between atoms: C_19  and  C_18 
ROOT
ATOM      1  N   UNL d   1     -47.148  13.122  22.862  0.00  0.00    -0.226 N 
ATOM      2  N   UNL d   1     -48.162  14.395  22.525  0.00  0.00    -0.300 N 
ATOM      3  C   UNL d   1     -47.408  13.624  23.480  0.00  0.00     0.111 A 
ATOM      4  C   UNL d   1     -47.398  13.268  22.104  0.00  0.00     0.111 A 
ATOM      5  C   UNL d   1     -47.906  13.907  21.935  0.00  0.00     0.100 A 
ATOM      6  C   UNL d   1     -47.917  14.263  23.311  0.00  0.00     0.100 A 
ENDROOT
BRANCH   1   7
ATOM      7  S   UNL d   1     -46.644  12.490  23.030  0.00  0.00     0.272 S 
ATOM      8  O   UNL d   1     -46.004  12.919  22.724  0.00  0.00    -0.200 OA
ATOM      9  O   UNL d   1     -47.289  12.059  23.337  0.00  0.00    -0.200 OA
BRANCH   7  10
ATOM     10  C   UNL d   1     -46.139  11.855  23.198  0.00  0.00     0.106 A 
ATOM     11  C   UNL d   1     -45.345  11.903  23.040  0.00  0.00     0.040 A 
ATOM     12  C   UNL d   1     -44.853  11.285  23.204  0.00  0.00     0.123 A 
ATOM     13  O   UNL d   1     -44.035  11.354  23.033  0.00  0.00    -0.301 OA
ATOM     14  C   UNL d   1     -45.142  10.604  23.530  0.00  0.00     0.123 A 
ATOM     15  C   UNL d   1     -43.530  10.719  23.202  0.00  0.00     0.149 A 
ATOM     16  C   UNL d   1     -43.844  10.018  23.540  0.00  0.00     0.149 A 
ATOM     17  O   UNL d   1     -44.636   9.969  23.698  0.00  0.00    -0.301 OA
ATOM     18  C   UNL d   1     -45.928  10.527  23.698  0.00  0.00     0.028 A 
ATOM     19  C   UNL d   1     -46.449  11.156  23.535  0.00  0.00     0.015 A 
ENDBRANCH   7  10
ENDBRANCH   1   7
BRANCH   2  20
ATOM     20  C   UNL d   1     -48.670  15.033  22.356  0.00  0.00     0.080 C 
BRANCH  20  21
ATOM     21  C   UNL d   1     -49.445  15.012  22.583  0.00  0.00     0.018 A 
ATOM     22  C   UNL d   1     -49.988  14.521  22.176  0.00  0.00     0.002 A 
ATOM     23  C   UNL d   1     -50.764  14.500  22.403  0.00  0.00     0.000 A 
ATOM     24  C   UNL d   1     -51.029  14.960  23.034  0.00  0.00     0.000 A 
ATOM     25  C   UNL d   1     -50.520  15.443  23.442  0.00  0.00     0.000 A 
ATOM     26  C   UNL d   1     -49.710  15.472  23.214  0.00  0.00     0.002 A 
ENDBRANCH  20  21
ENDBRANCH   2  20
TORSDOF 4
ENDMDL
MODEL 5
REMARK VINA RESULT:      -3.4      1.569      2.280
REMARK  4 active torsions:
REMARK  status: ('A' for Active; 'I' for Inactive)
REMARK    1  A    between atoms: N_2  and  S_1 
REMARK    2  A    between atoms: C_3  and  S_1 
REMARK    3  A    between atoms: C_18  and  N_6 
REMARK    4  A    between atoms: C_19  and  C_18 
ROOT
ATOM      1  N   UNL d   1     -38.999  14.165  18.156  0.00  0.00    -0.226 N 
ATOM      2  N   UNL d   1     -38.293  13.471  16.821  0.00  0.00    -0.300 N 
ATOM      3  C   UNL d   1     -39.372  13.520  17.774  0.00  0.00     0.111 A 
ATOM      4  C   UNL d   1     -38.294  14.442  17.865  0.00  0.00     0.111 A 
ATOM      5  C   UNL d   1     -37.940  14.093  17.195  0.00  0.00     0.100 A 
ATOM      6  C   UNL d   1     -39.018  13.171  17.104  0.00  0.00     0.100 A 
ENDROOT
BRANCH   1   7
ATOM      7  S   UNL d   1     -39.349  14.510  18.819  0.00  0.00     0.272 S 
ATOM      8  O   UNL d   1     -38.599  14.688  19.123  0.00  0.00    -0.200 OA
ATOM      9  O   UNL d   1     -40.104  14.331  18.513  0.00  0.00    -0.200 OA
BRANCH   7  10
ATOM     10  C   UNL d   1     -39.701  14.856  19.485  0.00  0.00     0.106 A 
ATOM     11  C   UNL d   1     -39.311  14.882  20.194  0.00  0.00     0.040 A 
ATOM     12  C   UNL d   1     -39.654  15.220  20.843  0.00  0.00     0.123 A 
ATOM     13  O   UNL d   1     -39.234  15.237  21.568  0.00  0.00    -0.301 OA
ATOM     14  C   UNL d   1     -40.395  15.538  20.797  0.00  0.00     0.123 A 
ATOM     15  C   UNL d   1     -39.586  15.584  22.234  0.00  0.00     0.149 A 
ATOM     16  C   UNL d   1     -40.356  15.911  22.172  0.00  0.00     0.149 A 
ATOM     17  O   UNL d   1     -40.747  15.885  21.463  0.00  0.00    -0.301 OA
ATOM     18  C   UNL d   1     -40.809  15.527  20.104  0.00  0.00     0.028 A 
ATOM     19  C   UNL d   1     -40.469  15.182  19.426  0.00  0.00     0.015 A 
ENDBRANCH   7  10
ENDBRANCH   1   7
BRANCH   2  20
ATOM     20  C   UNL d   1     -37.940  13.123  16.152  0.00  0.00     0.080 C 
BRANCH  20  21
ATOM     21  C   UNL d   1     -37.977  13.487  15.431  0.00  0.00     0.018 A 
ATOM     22  C   UNL d   1     -38.034  13.029  14.732  0.00  0.00     0.002 A 
ATOM     23  C   UNL d   1     -38.071  13.393  14.012  0.00  0.00     0.000 A 
ATOM     24  C   UNL d   1     -38.053  14.216  13.956  0.00  0.00     0.000 A 
ATOM     25  C   UNL d   1     -37.999  14.679  14.621  0.00  0.00     0.000 A 
ATOM     26  C   UNL d   1     -37.960  14.310  15.376  0.00  0.00     0.002 A 
ENDBRANCH  20  21
ENDBRANCH   2  20
TORSDOF 4
ENDMDL
MODEL 6
REMARK VINA RESULT:      -2.9      5.708      6.794
REMARK  4 active torsions:
REMARK  status: ('A' for Active; 'I' for Inactive)
REMARK    1  A    between atoms: N_2  and  S_1 
REMARK    2  A    between atoms: C_3  and  S_1 
REMARK    3  A    between atoms: C_18  and  N_6 
REMARK    4  A    between atoms: C_19  and  C_18 
ROOT
ATOM      1  N   UNL d   1     -44.031  12.996  21.796  0.00  0.00    -0.226 N 
ATOM      2  N   UNL d   1     -42.540  13.199  21.092  0.00  0.00    -0.300 N 
ATOM      3  C   UNL d   1     -43.451  12.396  21.866  0.00  0.00     0.111 A 
ATOM      4  C   UNL d   1     -43.853  13.671  21.382  0.00  0.00     0.111 A 
ATOM      5  C   UNL d   1     -43.104  13.773  21.029  0.00  0.00     0.100 A 
ATOM      6  C   UNL d   1     -42.703  12.498  21.513  0.00  0.00     0.100 A 
ENDROOT
BRANCH   1   7
ATOM      7  S   UNL d   1     -44.772  12.896  22.146  0.00  0.00     0.272 S 
ATOM      8  O   UNL d   1     -44.917  13.708  22.071  0.00  0.00    -0.200 OA
ATOM      9  O   UNL d   1     -44.625  12.078  22.221  0.00  0.00    -0.200 OA
BRANCH   7  10
ATOM     10  C   UNL d   1     -45.516  12.795  22.497  0.00  0.00     0.106 A 
ATOM     11  C   UNL d   1     -46.153  13.231  22.253  0.00  0.00     0.040 A 
ATOM     12  C   UNL d   1     -46.878  13.133  22.595  0.00  0.00     0.123 A 
ATOM     13  O   UNL d   1     -47.525  13.594  22.328  0.00  0.00    -0.301 OA
ATOM     14  C   UNL d   1     -46.982  12.595  23.190  0.00  0.00     0.123 A 
ATOM     15  C   UNL d   1     -48.269  13.492  22.680  0.00  0.00     0.149 A 
ATOM     16  C   UNL d   1     -48.363  12.931  23.296  0.00  0.00     0.149 A 
ATOM     17  O   UNL d   1     -47.726  12.494  23.541  0.00  0.00    -0.301 OA
ATOM     18  C   UNL d   1     -46.366  12.146  23.455  0.00  0.00     0.028 A 
ATOM     19  C   UNL d   1     -45.612  12.236  23.112  0.00  0.00     0.015 A 
ENDBRANCH   7  10
ENDBRANCH   1   7
BRANCH   2  20
ATOM     20  C   UNL d   1     -41.792  13.300  20.739  0.00  0.00     0.080 C 
BRANCH  20  21
ATOM     21  C   UNL d   1     -41.302  13.897  20.978  0.00  0.00     0.018 A 
ATOM     22  C   UNL d   1     -41.368  14.658  20.634  0.00  0.00     0.002 A 
ATOM     23  C   UNL d   1     -40.878  15.254  20.874  0.00  0.00     0.000 A 
ATOM     24  C   UNL d   1     -40.310  15.122  21.457  0.00  0.00     0.000 A 
ATOM     25  C   UNL d   1     -40.229  14.392  21.804  0.00  0.00     0.000 A 
ATOM     26  C   UNL d   1     -40.734  13.764  21.562  0.00  0.00     0.002 A 
ENDBRANCH  20  21
ENDBRANCH   2  20
TORSDOF 4
ENDMDL
