MODEL 1
REMARK VINA RESULT:      42.0      0.000      0.000
REMARK  4 active torsions:
REMARK  status: ('A' for Active; 'I' for Inactive)
REMARK    1  A    between atoms: C_10  and  C_3 
REMARK    2  A    between atoms: C_12  and  C_5 
REMARK    3  A    between atoms: C_15  and  C_12 
REMARK    4  A    between atoms: C_18  and  C_15 
ROOT
ATOM      1  C   UNL d   1     -50.946  26.224  33.308  0.00  0.00     0.152 A 
ATOM      2  N   UNL d   1     -51.774  26.338  33.309  0.00  0.00    -0.258 N 
ATOM      3  C   UNL d   1     -50.637  25.461  33.308  0.00  0.00     0.056 A 
ATOM      4  C   UNL d   1     -52.279  25.689  33.310  0.00  0.00     0.266 A 
ATOM      5  C   UNL d   1     -51.971  24.916  33.310  0.00  0.00     0.057 A 
ATOM      6  N   UNL d   1     -50.440  26.884  33.307  0.00  0.00    -0.227 NA
ATOM      7  C   UNL d   1     -51.143  24.801  33.309  0.00  0.00     0.009 A 
ATOM      8  C   UNL d   1     -51.577  27.766  33.309  0.00  0.00     0.086 A 
ATOM      9  C   UNL d   1     -50.747  27.665  33.308  0.00  0.00     0.099 A 
ATOM     10  O   UNL d   1     -53.122  25.805  33.311  0.00  0.00    -0.267 OA
ATOM     11  C   UNL d   1     -50.828  24.042  33.308  0.00  0.00     0.000 C 
ATOM     12  C   UNL d   1     -51.885  28.538  33.309  0.00  0.00     0.019 A 
ATOM     13  C   UNL d   1     -50.251  28.312  33.307  0.00  0.00     0.021 A 
ATOM     14  C   UNL d   1     -51.367  29.181  33.308  0.00  0.00     0.002 A 
ATOM     15  C   UNL d   1     -50.562  29.070  33.307  0.00  0.00     0.002 A 
ENDROOT
BRANCH   5  16
ATOM     16  C   UNL d   1     -52.473  24.261  33.310  0.00  0.00     0.005 C 
BRANCH  16  17
ATOM     17  C   UNL d   1     -52.398  23.683  33.887  0.00  0.00     0.000 C 
BRANCH  17  18
ATOM     18  C   UNL d   1     -53.069  23.375  34.244  0.00  0.00     0.000 C 
ATOM     19  C   UNL d   1     -53.062  23.223  35.058  0.00  0.00     0.000 C 
ATOM     20  C   UNL d   1     -53.746  23.219  33.797  0.00  0.00     0.000 C 
ENDBRANCH  17  18
ENDBRANCH  16  17
ENDBRANCH   5  16
BRANCH   3  21
ATOM     21  C   UNL d   1     -49.822  25.352  33.307  0.00  0.00     0.125 C 
ATOM     22  N   UNL d   1     -49.388  25.467  33.992  0.00  0.00    -0.146 N 
ENDBRANCH   3  21
TORSDOF 4
ENDMDL
