MODEL 1
REMARK VINA RESULT:      15.3      0.000      0.000
REMARK  8 active torsions:
REMARK  status: ('A' for Active; 'I' for Inactive)
REMARK    1  A    between atoms: N_6  and  C_1 
REMARK    2  A    between atoms: N_2  and  C_3 
REMARK       I    between atoms: C_4  and  N_2 
REMARK    3  A    between atoms: C_3  and  N_6 
REMARK    4  A    between atoms: C_10  and  C_4 
REMARK    5  A    between atoms: C_9  and  C_7 
REMARK    6  A    between atoms: C_12  and  C_9 
REMARK    7  A    between atoms: O_17  and  C_12 
REMARK    8  A    between atoms: C_21  and  O_17 
ROOT
ATOM      1  C   UNL d   1      45.889 -16.338  44.349  0.00  0.00     0.225 C 
ATOM      2  S   UNL d   1      45.569 -16.515  43.608  0.00  0.00    -0.037 SA
ENDROOT
BRANCH   1   3
ATOM      3  N   UNL d   1      45.842 -15.541  44.661  0.00  0.00    -0.179 NA
ATOM      4  C   UNL d   1      45.887 -14.892  44.132  0.00  0.00     0.281 C 
ATOM      5  O   UNL d   1      45.978 -15.037  43.294  0.00  0.00    -0.265 OA
BRANCH   4   6
ATOM      6  C   UNL d   1      45.848 -14.122  44.387  0.00  0.00     0.058 A 
ATOM      7  C   UNL d   1      45.151 -13.719  44.417  0.00  0.00     0.005 A 
ATOM      8  C   UNL d   1      44.457 -14.096  44.183  0.00  0.00     0.000 C 
ATOM      9  C   UNL d   1      45.134 -12.949  44.676  0.00  0.00     0.000 A 
ATOM     10  C   UNL d   1      45.840 -12.572  44.912  0.00  0.00     0.000 A 
ATOM     11  C   UNL d   1      46.574 -12.962  44.892  0.00  0.00     0.000 A 
ATOM     12  C   UNL d   1      46.591 -13.757  44.625  0.00  0.00     0.005 A 
ENDBRANCH   4   6
ENDBRANCH   1   3
BRANCH   1  13
ATOM     13  N   UNL d   1      46.260 -16.908  44.815  0.00  0.00    -0.192 NA
BRANCH  13  14
ATOM     14  C   UNL d   1      46.373 -17.666  44.483  0.00  0.00     0.196 A 
ATOM     15  N   UNL d   1      46.445 -17.911  43.684  0.00  0.00    -0.220 NA
ATOM     16  C   UNL d   1      46.547 -18.716  43.674  0.00  0.00     0.095 A 
ATOM     17  C   UNL d   1      46.542 -19.004  44.469  0.00  0.00     0.058 A 
ATOM     18  S   UNL d   1      46.433 -18.341  44.953  0.00  0.00    -0.046 SA
BRANCH  16  19
ATOM     19  C   UNL d   1      46.642 -19.198  43.010  0.00  0.00     0.088 C 
BRANCH  19  20
ATOM     20  C   UNL d   1      46.144 -19.824  42.858  0.00  0.00     0.302 C 
ATOM     21  O   UNL d   1      45.797 -20.252  43.463  0.00  0.00    -0.259 OA
BRANCH  20  22
ATOM     22  O   UNL d   1      45.977 -20.043  42.073  0.00  0.00    -0.271 OA
BRANCH  22  23
ATOM     23  C   UNL d   1      46.454 -19.677  41.451  0.00  0.00     0.126 C 
ATOM     24  C   UNL d   1      46.577 -20.053  40.860  0.00  0.00     0.029 C 
ENDBRANCH  22  23
ENDBRANCH  20  22
ENDBRANCH  19  20
ENDBRANCH  16  19
ENDBRANCH  13  14
ENDBRANCH   1  13
TORSDOF 8
ENDMDL
