MODEL 1
REMARK VINA RESULT:      -9.7      0.000      0.000
REMARK  3 active torsions:
REMARK  status: ('A' for Active; 'I' for Inactive)
REMARK    1  A    between atoms: N_6  and  C_2 
REMARK    2  A    between atoms: C_7  and  C_5 
REMARK    3  A    between atoms: C_9  and  C_7 
ROOT
ATOM      1  N   UNL d   1      51.987  32.169  52.564  0.00  0.00    -0.183 NA
ATOM      2  C   UNL d   1      52.033  32.907  52.923  0.00  0.00     0.183 A 
ATOM      3  S   UNL d   1      52.707  32.920  53.392  0.00  0.00    -0.045 SA
ATOM      4  C   UNL d   1      52.635  31.725  52.810  0.00  0.00     0.287 A 
ATOM      5  C   UNL d   1      53.084  32.187  53.324  0.00  0.00     0.090 A 
ATOM      6  O   UNL d   1      52.805  30.951  52.582  0.00  0.00    -0.265 OA
ENDROOT
BRANCH   5   7
ATOM      7  C   UNL d   1      53.782  31.959  53.700  0.00  0.00     0.011 C 
BRANCH   7   8
ATOM      8  C   UNL d   1      54.200  32.499  54.158  0.00  0.00     0.001 A 
ATOM      9  C   UNL d   1      54.799  32.953  53.809  0.00  0.00     0.001 A 
ATOM     10  C   UNL d   1      55.220  33.496  54.266  0.00  0.00     0.011 A 
ATOM     11  C   UNL d   1      55.044  33.587  55.068  0.00  0.00     0.058 A 
ATOM     12  C   UNL d   1      54.449  33.135  55.413  0.00  0.00     0.011 A 
ATOM     13 CL   UNL d   1      55.489  34.141  55.490  0.00  0.00    -0.082 Cl
ATOM     14  C   UNL d   1      54.025  32.594  54.968  0.00  0.00     0.001 A 
ENDBRANCH   7   8
ENDBRANCH   5   7
BRANCH   2  15
ATOM     15  N   UNL d   1      51.428  33.448  52.750  0.00  0.00    -0.280 N 
ATOM     16  C   UNL d   1      50.791  33.538  53.263  0.00  0.00     0.109 A 
ATOM     17  C   UNL d   1      50.186  34.083  53.085  0.00  0.00     0.142 A 
ATOM     18  O   UNL d   1      50.233  34.528  52.396  0.00  0.00    -0.300 OA
ATOM     19  C   UNL d   1      50.878  34.438  51.877  0.00  0.00     0.142 A 
ATOM     20  C   UNL d   1      51.470  33.899  52.058  0.00  0.00     0.109 A 
ENDBRANCH   2  15
TORSDOF 3
ENDMDL
MODEL 2
REMARK VINA RESULT:      -8.8      2.206      3.837
REMARK  3 active torsions:
REMARK  status: ('A' for Active; 'I' for Inactive)
REMARK    1  A    between atoms: N_6  and  C_2 
REMARK    2  A    between atoms: C_7  and  C_5 
REMARK    3  A    between atoms: C_9  and  C_7 
ROOT
ATOM      1  N   UNL d   1      54.029  31.938  53.765  0.00  0.00    -0.183 NA
ATOM      2  C   UNL d   1      53.317  31.663  53.460  0.00  0.00     0.183 A 
ATOM      3  S   UNL d   1      52.884  32.311  53.200  0.00  0.00    -0.045 SA
ATOM      4  C   UNL d   1      54.037  32.758  53.693  0.00  0.00     0.287 A 
ATOM      5  C   UNL d   1      53.329  32.994  53.343  0.00  0.00     0.090 A 
ATOM      6  O   UNL d   1      54.648  33.258  53.930  0.00  0.00    -0.265 OA
ENDROOT
BRANCH   5   7
ATOM      7  C   UNL d   1      53.106  33.768  53.168  0.00  0.00     0.011 C 
BRANCH   7   8
ATOM      8  C   UNL d   1      52.316  33.949  53.027  0.00  0.00     0.001 A 
ATOM      9  C   UNL d   1      52.049  34.030  52.246  0.00  0.00     0.001 A 
ATOM     10  C   UNL d   1      51.256  34.211  52.102  0.00  0.00     0.011 A 
ATOM     11  C   UNL d   1      50.733  34.311  52.733  0.00  0.00     0.058 A 
ATOM     12  C   UNL d   1      51.001  34.230  53.508  0.00  0.00     0.011 A 
ATOM     13 CL   UNL d   1      49.949  34.492  52.545  0.00  0.00    -0.082 Cl
ATOM     14  C   UNL d   1      51.785  34.051  53.661  0.00  0.00     0.001 A 
ENDBRANCH   7   8
ENDBRANCH   5   7
BRANCH   2  15
ATOM     15  N   UNL d   1      53.191  30.843  53.478  0.00  0.00    -0.280 N 
ATOM     16  C   UNL d   1      53.440  30.398  54.123  0.00  0.00     0.109 A 
ATOM     17  C   UNL d   1      53.312  29.575  54.137  0.00  0.00     0.142 A 
ATOM     18  O   UNL d   1      52.936  29.214  53.502  0.00  0.00    -0.300 OA
ATOM     19  C   UNL d   1      52.683  29.664  52.848  0.00  0.00     0.142 A 
ATOM     20  C   UNL d   1      52.813  30.474  52.842  0.00  0.00     0.109 A 
ENDBRANCH   2  15
TORSDOF 3
ENDMDL
MODEL 3
REMARK VINA RESULT:      -8.6      2.028      3.959
REMARK  3 active torsions:
REMARK  status: ('A' for Active; 'I' for Inactive)
REMARK    1  A    between atoms: N_6  and  C_2 
REMARK    2  A    between atoms: C_7  and  C_5 
REMARK    3  A    between atoms: C_9  and  C_7 
ROOT
ATOM      1  N   UNL d   1      53.882  32.004  53.921  0.00  0.00    -0.183 NA
ATOM      2  C   UNL d   1      53.830  32.819  54.015  0.00  0.00     0.183 A 
ATOM      3  S   UNL d   1      53.205  33.089  53.555  0.00  0.00    -0.045 SA
ATOM      4  C   UNL d   1      53.289  31.770  53.402  0.00  0.00     0.287 A 
ATOM      5  C   UNL d   1      52.866  32.439  53.172  0.00  0.00     0.090 A 
ATOM      6  O   UNL d   1      53.142  30.997  53.153  0.00  0.00    -0.265 OA
ENDROOT
BRANCH   5   7
ATOM      7  C   UNL d   1      52.223  32.456  52.656  0.00  0.00     0.011 C 
BRANCH   7   8
ATOM      8  C   UNL d   1      51.662  33.054  52.715  0.00  0.00     0.001 A 
ATOM      9  C   UNL d   1      51.028  32.969  53.242  0.00  0.00     0.001 A 
ATOM     10  C   UNL d   1      50.463  33.568  53.302  0.00  0.00     0.011 A 
ATOM     11  C   UNL d   1      50.530  34.249  52.840  0.00  0.00     0.058 A 
ATOM     12  C   UNL d   1      51.161  34.331  52.317  0.00  0.00     0.011 A 
ATOM     13 CL   UNL d   1      49.944  34.824  52.931  0.00  0.00    -0.082 Cl
ATOM     14  C   UNL d   1      51.726  33.743  52.249  0.00  0.00     0.001 A 
ENDBRANCH   7   8
ENDBRANCH   5   7
BRANCH   2  15
ATOM     15  N   UNL d   1      54.382  33.177  54.521  0.00  0.00    -0.280 N 
ATOM     16  C   UNL d   1      55.070  33.509  54.217  0.00  0.00     0.109 A 
ATOM     17  C   UNL d   1      55.622  33.866  54.729  0.00  0.00     0.142 A 
ATOM     18  O   UNL d   1      55.472  33.884  55.537  0.00  0.00    -0.300 OA
ATOM     19  C   UNL d   1      54.775  33.548  55.845  0.00  0.00     0.142 A 
ATOM     20  C   UNL d   1      54.236  33.197  55.335  0.00  0.00     0.109 A 
ENDBRANCH   2  15
TORSDOF 3
ENDMDL
MODEL 4
REMARK VINA RESULT:      -8.4      2.436      3.516
REMARK  3 active torsions:
REMARK  status: ('A' for Active; 'I' for Inactive)
REMARK    1  A    between atoms: N_6  and  C_2 
REMARK    2  A    between atoms: C_7  and  C_5 
REMARK    3  A    between atoms: C_9  and  C_7 
ROOT
ATOM      1  N   UNL d   1      52.961  33.021  53.349  0.00  0.00    -0.183 NA
ATOM      2  C   UNL d   1      53.545  32.777  53.873  0.00  0.00     0.183 A 
ATOM      3  S   UNL d   1      53.668  31.973  53.760  0.00  0.00    -0.045 SA
ATOM      4  C   UNL d   1      52.723  32.367  52.911  0.00  0.00     0.287 A 
ATOM      5  C   UNL d   1      53.159  31.714  53.162  0.00  0.00     0.090 A 
ATOM      6  O   UNL d   1      52.146  32.364  52.321  0.00  0.00    -0.265 OA
ENDROOT
BRANCH   5   7
ATOM      7  C   UNL d   1      53.097  30.945  52.871  0.00  0.00     0.011 C 
BRANCH   7   8
ATOM      8  C   UNL d   1      53.153  30.304  53.382  0.00  0.00     0.001 A 
ATOM      9  C   UNL d   1      53.896  29.967  53.535  0.00  0.00     0.001 A 
ATOM     10  C   UNL d   1      53.954  29.323  54.048  0.00  0.00     0.011 A 
ATOM     11  C   UNL d   1      53.277  29.016  54.407  0.00  0.00     0.058 A 
ATOM     12  C   UNL d   1      52.541  29.353  54.255  0.00  0.00     0.011 A 
ATOM     13 CL   UNL d   1      53.380  28.372  54.914  0.00  0.00    -0.082 Cl
ATOM     14  C   UNL d   1      52.472  29.991  53.747  0.00  0.00     0.001 A 
ENDBRANCH   7   8
ENDBRANCH   5   7
BRANCH   2  15
ATOM     15  N   UNL d   1      53.867  33.355  54.374  0.00  0.00    -0.280 N 
ATOM     16  C   UNL d   1      53.409  33.991  54.624  0.00  0.00     0.109 A 
ATOM     17  C   UNL d   1      53.736  34.569  55.127  0.00  0.00     0.142 A 
ATOM     18  O   UNL d   1      54.518  34.497  55.370  0.00  0.00    -0.300 OA
ATOM     19  C   UNL d   1      54.982  33.853  55.118  0.00  0.00     0.142 A 
ATOM     20  C   UNL d   1      54.653  33.288  54.623  0.00  0.00     0.109 A 
ENDBRANCH   2  15
TORSDOF 3
ENDMDL
MODEL 5
REMARK VINA RESULT:      -8.2      1.892      2.531
REMARK  3 active torsions:
REMARK  status: ('A' for Active; 'I' for Inactive)
REMARK    1  A    between atoms: N_6  and  C_2 
REMARK    2  A    between atoms: C_7  and  C_5 
REMARK    3  A    between atoms: C_9  and  C_7 
ROOT
ATOM      1  N   UNL d   1      52.692  33.772  53.817  0.00  0.00    -0.183 NA
ATOM      2  C   UNL d   1      52.280  33.353  53.242  0.00  0.00     0.183 A 
ATOM      3  S   UNL d   1      52.676  32.645  53.110  0.00  0.00    -0.045 SA
ATOM      4  C   UNL d   1      53.344  33.323  54.041  0.00  0.00     0.287 A 
ATOM      5  C   UNL d   1      53.338  32.623  53.605  0.00  0.00     0.090 A 
ATOM      6  O   UNL d   1      53.907  33.536  54.605  0.00  0.00    -0.265 OA
ENDROOT
BRANCH   5   7
ATOM      7  C   UNL d   1      53.892  32.013  53.655  0.00  0.00     0.011 C 
BRANCH   7   8
ATOM      8  C   UNL d   1      53.642  31.231  53.693  0.00  0.00     0.001 A 
ATOM      9  C   UNL d   1      53.545  30.868  54.432  0.00  0.00     0.001 A 
ATOM     10  C   UNL d   1      53.294  30.083  54.471  0.00  0.00     0.011 A 
ATOM     11  C   UNL d   1      53.142  29.660  53.778  0.00  0.00     0.058 A 
ATOM     12  C   UNL d   1      53.239  30.023  53.045  0.00  0.00     0.011 A 
ATOM     13 CL   UNL d   1      52.893  28.877  53.863  0.00  0.00    -0.082 Cl
ATOM     14  C   UNL d   1      53.487  30.801  52.995  0.00  0.00     0.001 A 
ENDBRANCH   7   8
ENDBRANCH   5   7
BRANCH   2  15
ATOM     15  N   UNL d   1      51.596  33.707  52.935  0.00  0.00    -0.280 N 
ATOM     16  C   UNL d   1      50.899  33.713  53.371  0.00  0.00     0.109 A 
ATOM     17  C   UNL d   1      50.214  34.069  53.060  0.00  0.00     0.142 A 
ATOM     18  O   UNL d   1      50.242  34.415  52.314  0.00  0.00    -0.300 OA
ATOM     19  C   UNL d   1      50.947  34.409  51.872  0.00  0.00     0.142 A 
ATOM     20  C   UNL d   1      51.618  34.056  52.185  0.00  0.00     0.109 A 
ENDBRANCH   2  15
TORSDOF 3
ENDMDL
MODEL 6
REMARK VINA RESULT:      -7.9      1.590      3.021
REMARK  3 active torsions:
REMARK  status: ('A' for Active; 'I' for Inactive)
REMARK    1  A    between atoms: N_6  and  C_2 
REMARK    2  A    between atoms: C_7  and  C_5 
REMARK    3  A    between atoms: C_9  and  C_7 
ROOT
ATOM      1  N   UNL d   1      52.432  31.486  52.850  0.00  0.00    -0.183 NA
ATOM      2  C   UNL d   1      53.038  31.158  53.298  0.00  0.00     0.183 A 
ATOM      3  S   UNL d   1      53.563  31.760  53.495  0.00  0.00    -0.045 SA
ATOM      4  C   UNL d   1      52.582  32.290  52.768  0.00  0.00     0.287 A 
ATOM      5  C   UNL d   1      53.282  32.465  53.166  0.00  0.00     0.090 A 
ATOM      6  O   UNL d   1      52.113  32.830  52.358  0.00  0.00    -0.265 OA
ENDROOT
BRANCH   5   7
ATOM      7  C   UNL d   1      53.637  33.207  53.226  0.00  0.00     0.011 C 
BRANCH   7   8
ATOM      8  C   UNL d   1      54.059  33.410  53.902  0.00  0.00     0.001 A 
ATOM      9  C   UNL d   1      54.883  33.322  53.911  0.00  0.00     0.001 A 
ATOM     10  C   UNL d   1      55.308  33.526  54.589  0.00  0.00     0.011 A 
ATOM     11  C   UNL d   1      54.914  33.815  55.254  0.00  0.00     0.058 A 
ATOM     12  C   UNL d   1      54.095  33.901  55.243  0.00  0.00     0.011 A 
ATOM     13 CL   UNL d   1      55.377  34.007  55.911  0.00  0.00    -0.082 Cl
ATOM     14  C   UNL d   1      53.664  33.703  54.576  0.00  0.00     0.001 A 
ENDBRANCH   7   8
ENDBRANCH   5   7
BRANCH   2  15
ATOM     15  N   UNL d   1      52.997  30.344  53.450  0.00  0.00    -0.280 N 
ATOM     16  C   UNL d   1      52.622  29.840  52.919  0.00  0.00     0.109 A 
ATOM     17  C   UNL d   1      52.583  29.023  53.075  0.00  0.00     0.142 A 
ATOM     18  O   UNL d   1      52.922  28.726  53.762  0.00  0.00    -0.300 OA
ATOM     19  C   UNL d   1      53.302  29.236  54.301  0.00  0.00     0.142 A 
ATOM     20  C   UNL d   1      53.336  30.039  54.141  0.00  0.00     0.109 A 
ENDBRANCH   2  15
TORSDOF 3
ENDMDL
