MODEL 1
REMARK VINA RESULT:      -3.7      0.000      0.000
REMARK  3 active torsions:
REMARK  status: ('A' for Active; 'I' for Inactive)
REMARK    1  A    between atoms: C_9  and  C_1 
REMARK    2  A    between atoms: C_4  and  C_5 
REMARK       I    between atoms: C_5  and  N_8 
REMARK    3  A    between atoms: N_8  and  C_16 
ROOT
ATOM      1  C   UNL d   1      33.114  19.185 -22.681  0.00  0.00     0.024 A 
ATOM      2  C   UNL d   1      33.186  19.166 -21.872  0.00  0.00     0.004 A 
ATOM      3  C   UNL d   1      33.078  19.896 -23.089  0.00  0.00     0.004 A 
ATOM      4  C   UNL d   1      33.187  20.589 -21.854  0.00  0.00     0.085 A 
ATOM      5  C   UNL d   1      33.114  20.599 -22.677  0.00  0.00     0.019 A 
ATOM      6  C   UNL d   1      33.223  19.871 -21.452  0.00  0.00     0.019 A 
ENDROOT
BRANCH   1   7
ATOM      7  C   UNL d   1      33.077  18.477 -23.098  0.00  0.00     0.111 A 
ATOM      8  N   UNL d   1      33.241  17.722 -22.789  0.00  0.00    -0.239 NA
ATOM      9  C   UNL d   1      33.135  17.168 -23.400  0.00  0.00     0.088 A 
ATOM     10  C   UNL d   1      33.215  16.355 -23.424  0.00  0.00     0.020 A 
ATOM     11  C   UNL d   1      32.907  17.582 -24.084  0.00  0.00     0.049 A 
ATOM     12  C   UNL d   1      33.071  15.942 -24.125  0.00  0.00     0.002 A 
ATOM     13  C   UNL d   1      32.844  16.349 -24.805  0.00  0.00     0.001 A 
ATOM     14  C   UNL d   1      32.762  17.172 -24.787  0.00  0.00     0.008 A 
ATOM     15  S   UNL d   1      32.873  18.383 -23.895  0.00  0.00    -0.066 SA
ENDBRANCH   1   7
BRANCH   4  16
ATOM     16  N   UNL d   1      33.223  21.302 -21.438  0.00  0.00    -0.206 NA
ATOM     17  C   UNL d   1      32.565  21.561 -21.013  0.00  0.00     0.304 C 
ATOM     18  O   UNL d   1      31.877  21.119 -21.000  0.00  0.00    -0.263 OA
BRANCH  17  19
ATOM     19  C   UNL d   1      32.612  22.280 -20.597  0.00  0.00     0.182 A 
ATOM     20  O   UNL d   1      32.728  22.263 -19.778  0.00  0.00    -0.296 OA
ATOM     21  C   UNL d   1      32.774  22.979 -19.368  0.00  0.00     0.150 A 
ATOM     22  C   UNL d   1      32.705  23.698 -19.768  0.00  0.00     0.149 A 
ATOM     23  O   UNL d   1      32.591  23.702 -20.578  0.00  0.00    -0.299 OA
ATOM     24  C   UNL d   1      32.543  22.999 -20.997  0.00  0.00     0.152 A 
ENDBRANCH  17  19
ENDBRANCH   4  16
TORSDOF 3
ENDMDL
MODEL 2
REMARK VINA RESULT:      -3.4      2.153      5.715
REMARK  3 active torsions:
REMARK  status: ('A' for Active; 'I' for Inactive)
REMARK    1  A    between atoms: C_9  and  C_1 
REMARK    2  A    between atoms: C_4  and  C_5 
REMARK       I    between atoms: C_5  and  N_8 
REMARK    3  A    between atoms: N_8  and  C_16 
ROOT
ATOM      1  C   UNL d   1      33.055  20.274 -22.106  0.00  0.00     0.024 A 
ATOM      2  C   UNL d   1      32.993  20.203 -22.913  0.00  0.00     0.004 A 
ATOM      3  C   UNL d   1      33.178  19.619 -21.629  0.00  0.00     0.004 A 
ATOM      4  C   UNL d   1      33.178  18.798 -22.788  0.00  0.00     0.085 A 
ATOM      5  C   UNL d   1      33.240  18.879 -21.968  0.00  0.00     0.019 A 
ATOM      6  C   UNL d   1      33.054  19.462 -23.261  0.00  0.00     0.019 A 
ENDROOT
BRANCH   1   7
ATOM      7  C   UNL d   1      32.993  21.020 -21.762  0.00  0.00     0.111 A 
ATOM      8  N   UNL d   1      33.207  21.739 -22.120  0.00  0.00    -0.239 NA
ATOM      9  C   UNL d   1      33.052  22.350 -21.577  0.00  0.00     0.088 A 
ATOM     10  C   UNL d   1      33.150  23.160 -21.619  0.00  0.00     0.020 A 
ATOM     11  C   UNL d   1      32.741  22.006 -20.886  0.00  0.00     0.049 A 
ATOM     12  C   UNL d   1      32.942  23.640 -20.979  0.00  0.00     0.002 A 
ATOM     13  C   UNL d   1      32.634  23.302 -20.293  0.00  0.00     0.001 A 
ATOM     14  C   UNL d   1      32.533  22.482 -20.245  0.00  0.00     0.008 A 
ATOM     15  S   UNL d   1      32.706  21.191 -21.004  0.00  0.00    -0.066 SA
ENDBRANCH   1   7
BRANCH   4  16
ATOM     16  N   UNL d   1      33.241  18.049 -23.131  0.00  0.00    -0.206 NA
ATOM     17  C   UNL d   1      32.585  17.713 -23.501  0.00  0.00     0.304 C 
ATOM     18  O   UNL d   1      31.873  18.115 -23.533  0.00  0.00    -0.263 OA
BRANCH  17  19
ATOM     19  C   UNL d   1      32.658  16.958 -23.843  0.00  0.00     0.182 A 
ATOM     20  O   UNL d   1      32.540  16.289 -23.370  0.00  0.00    -0.296 OA
ATOM     21  C   UNL d   1      32.613  15.542 -23.713  0.00  0.00     0.150 A 
ATOM     22  C   UNL d   1      32.802  15.463 -24.513  0.00  0.00     0.149 A 
ATOM     23  O   UNL d   1      32.916  16.130 -24.971  0.00  0.00    -0.299 OA
ATOM     24  C   UNL d   1      32.846  16.879 -24.644  0.00  0.00     0.152 A 
ENDBRANCH  17  19
ENDBRANCH   4  16
TORSDOF 3
ENDMDL
MODEL 3
REMARK VINA RESULT:      -2.7      2.007      5.671
REMARK  3 active torsions:
REMARK  status: ('A' for Active; 'I' for Inactive)
REMARK    1  A    between atoms: C_9  and  C_1 
REMARK    2  A    between atoms: C_4  and  C_5 
REMARK       I    between atoms: C_5  and  N_8 
REMARK    3  A    between atoms: N_8  and  C_16 
ROOT
ATOM      1  C   UNL d   1      33.031  20.878 -21.353  0.00  0.00     0.024 A 
ATOM      2  C   UNL d   1      33.176  20.117 -21.104  0.00  0.00     0.004 A 
ATOM      3  C   UNL d   1      32.940  21.055 -22.148  0.00  0.00     0.004 A 
ATOM      4  C   UNL d   1      33.144  19.685 -22.459  0.00  0.00     0.085 A 
ATOM      5  C   UNL d   1      32.996  20.460 -22.703  0.00  0.00     0.019 A 
ATOM      6  C   UNL d   1      33.233  19.514 -21.658  0.00  0.00     0.019 A 
ENDROOT
BRANCH   1   7
ATOM      7  C   UNL d   1      32.974  21.479 -20.793  0.00  0.00     0.111 A 
ATOM      8  N   UNL d   1      33.217  21.429 -20.000  0.00  0.00    -0.239 NA
ATOM      9  C   UNL d   1      33.057  22.161 -19.638  0.00  0.00     0.088 A 
ATOM     10  C   UNL d   1      33.174  22.435 -18.877  0.00  0.00     0.020 A 
ATOM     11  C   UNL d   1      32.716  22.660 -20.210  0.00  0.00     0.049 A 
ATOM     12  C   UNL d   1      32.956  23.205 -18.672  0.00  0.00     0.002 A 
ATOM     13  C   UNL d   1      32.618  23.702 -19.236  0.00  0.00     0.001 A 
ATOM     14  C   UNL d   1      32.496  23.430 -20.008  0.00  0.00     0.008 A 
ATOM     15  S   UNL d   1      32.666  22.239 -20.916  0.00  0.00    -0.066 SA
ENDBRANCH   1   7
BRANCH   4  16
ATOM     16  N   UNL d   1      33.201  19.082 -23.022  0.00  0.00    -0.206 NA
ATOM     17  C   UNL d   1      32.565  18.569 -23.136  0.00  0.00     0.304 C 
ATOM     18  O   UNL d   1      31.879  18.650 -22.697  0.00  0.00    -0.263 OA
BRANCH  17  19
ATOM     19  C   UNL d   1      32.632  17.966 -23.705  0.00  0.00     0.182 A 
ATOM     20  O   UNL d   1      32.724  18.173 -24.502  0.00  0.00    -0.296 OA
ATOM     21  C   UNL d   1      32.790  17.572 -25.063  0.00  0.00     0.150 A 
ATOM     22  C   UNL d   1      32.765  16.778 -24.836  0.00  0.00     0.149 A 
ATOM     23  O   UNL d   1      32.674  16.586 -24.047  0.00  0.00    -0.299 OA
ATOM     24  C   UNL d   1      32.607  17.172 -23.478  0.00  0.00     0.152 A 
ENDBRANCH  17  19
ENDBRANCH   4  16
TORSDOF 3
ENDMDL
