MODEL 1
REMARK VINA RESULT:      -0.4      0.000      0.000
REMARK  6 active torsions:
REMARK  status: ('A' for Active; 'I' for Inactive)
REMARK    1  A    between atoms: N_4  and  C_3 
REMARK       I    between atoms: C_6  and  N_10 
REMARK    2  A    between atoms: C_21  and  C_6 
REMARK    3  A    between atoms: C_11  and  C_7 
REMARK    4  A    between atoms: C_9  and  O_12 
REMARK    5  A    between atoms: N_10  and  C_22 
REMARK    6  A    between atoms: O_12  and  C_21 
ROOT
ATOM      1  C   UNL d   1      58.856  -9.632  32.961  0.00  0.00     0.019 A 
ATOM      2  C   UNL d   1      59.672  -9.676  33.010  0.00  0.00     0.003 A 
ATOM      3  C   UNL d   1      58.405  -9.651  33.652  0.00  0.00     0.003 A 
ATOM      4  C   UNL d   1      59.599  -9.755  34.430  0.00  0.00     0.085 A 
ATOM      5  C   UNL d   1      58.776  -9.712  34.387  0.00  0.00     0.019 A 
ATOM      6  C   UNL d   1      60.043  -9.737  33.744  0.00  0.00     0.019 A 
ENDROOT
BRANCH   4   7
ATOM      7  N   UNL d   1      59.970  -9.817  35.164  0.00  0.00    -0.206 NA
ATOM      8  C   UNL d   1      60.153  -9.139  35.592  0.00  0.00     0.304 C 
ATOM      9  O   UNL d   1      60.526  -9.201  36.330  0.00  0.00    -0.263 OA
BRANCH   8  10
ATOM     10  C   UNL d   1      59.966  -8.396  35.285  0.00  0.00     0.185 C 
BRANCH  10  11
ATOM     11  O   UNL d   1      59.668  -7.808  35.781  0.00  0.00    -0.299 OA
BRANCH  11  12
ATOM     12  C   UNL d   1      59.999  -7.052  35.768  0.00  0.00     0.111 A 
ATOM     13  C   UNL d   1      59.518  -6.390  35.873  0.00  0.00     0.081 A 
ATOM     14  C   UNL d   1      59.840  -5.639  35.861  0.00  0.00     0.025 A 
ATOM     15 CL   UNL d   1      58.695  -6.486  35.991  0.00  0.00    -0.080 Cl
ATOM     16  C   UNL d   1      60.652  -5.545  35.744  0.00  0.00     0.059 A 
ATOM     17  C   UNL d   1      61.133  -6.207  35.640  0.00  0.00     0.013 A 
ATOM     18 CL   UNL d   1      60.983  -4.782  35.732  0.00  0.00    -0.082 Cl
ATOM     19  C   UNL d   1      60.802  -6.963  35.652  0.00  0.00     0.026 A 
ENDBRANCH  11  12
ENDBRANCH  10  11
ENDBRANCH   8  10
ENDBRANCH   4   7
BRANCH   1  20
ATOM     20  C   UNL d   1      58.485  -9.571  32.227  0.00  0.00     0.103 A 
ATOM     21  N   UNL d   1      58.885  -9.793  31.544  0.00  0.00    -0.147 NA
ATOM     22  N   UNL d   1      58.514  -9.731  30.810  0.00  0.00    -0.130 NA
ATOM     23  C   UNL d   1      57.743  -9.448  30.759  0.00  0.00     0.170 A 
ATOM     24  C   UNL d   1      57.341  -9.225  31.444  0.00  0.00     0.041 A 
ATOM     25  C   UNL d   1      57.712  -9.287  32.179  0.00  0.00     0.024 A 
BRANCH  23  26
ATOM     26  N   UNL d   1      57.372  -9.387  30.024  0.00  0.00    -0.284 N 
ATOM     27  C   UNL d   1      57.682  -8.900  29.445  0.00  0.00     0.108 A 
ATOM     28  C   UNL d   1      57.311  -8.839  28.711  0.00  0.00     0.142 A 
ATOM     29  O   UNL d   1      56.630  -9.264  28.556  0.00  0.00    -0.300 OA
ATOM     30  C   UNL d   1      56.314  -9.757  29.138  0.00  0.00     0.142 A 
ATOM     31  C   UNL d   1      56.685  -9.818  29.873  0.00  0.00     0.108 A 
ENDBRANCH  23  26
ENDBRANCH   1  20
TORSDOF 6
ENDMDL
