MODEL 1
REMARK VINA RESULT:      67.3      0.000      0.000
REMARK  4 active torsions:
REMARK  status: ('A' for Active; 'I' for Inactive)
REMARK    1  A    between atoms: N_5  and  C_1 
REMARK    2  A    between atoms: N_8  and  C_3 
REMARK    3  A    between atoms: C_19  and  N_8 
REMARK    4  A    between atoms: C_21  and  C_19 
ROOT
ATOM      1  C   UNL d   1     -58.192 -99.087 -43.815  0.00  0.00     0.200 A 
ATOM      2  C   UNL d   1     -58.982 -99.091 -44.050  0.00  0.00     0.288 A 
ATOM      3  C   UNL d   1     -57.583 -99.002 -44.376  0.00  0.00     0.109 A 
ATOM      4  N   UNL d   1     -59.169 -99.010 -44.855  0.00  0.00    -0.270 N 
ATOM      5  C   UNL d   1     -57.779 -98.921 -45.180  0.00  0.00     0.036 A 
ATOM      6  C   UNL d   1     -58.571 -98.925 -45.417  0.00  0.00     0.069 A 
ATOM      7  O   UNL d   1     -59.579 -99.176 -43.489  0.00  0.00    -0.265 OA
ATOM      8  C   UNL d   1     -59.958 -99.014 -45.090  0.00  0.00     0.102 C 
ATOM      9  C   UNL d   1     -57.181 -98.836 -45.742  0.00  0.00     0.003 A 
ATOM     10  C   UNL d   1     -58.762 -98.845 -46.214  0.00  0.00     0.018 A 
ATOM     11  C   UNL d   1     -57.375 -98.756 -46.541  0.00  0.00     0.000 A 
ATOM     12  C   UNL d   1     -58.164 -98.760 -46.776  0.00  0.00     0.002 A 
ENDROOT
BRANCH   3  13
ATOM     13  N   UNL d   1     -56.794 -98.998 -44.142  0.00  0.00    -0.242 NA
BRANCH  13  14
ATOM     14  C   UNL d   1     -56.213 -99.308 -44.639  0.00  0.00     0.099 C 
BRANCH  14  15
ATOM     15  C   UNL d   1     -55.857-100.028 -44.458  0.00  0.00     0.021 A 
ATOM     16  C   UNL d   1     -55.662-100.205 -43.678  0.00  0.00     0.028 A 
ATOM     17  C   UNL d   1     -55.307-100.925 -43.497  0.00  0.00     0.119 A 
ATOM     18  O   UNL d   1     -55.054-101.251 -42.790  0.00  0.00    -0.300 OA
ATOM     19  C   UNL d   1     -55.147-101.469 -44.096  0.00  0.00     0.119 A 
ATOM     20  C   UNL d   1     -54.737-101.995 -42.942  0.00  0.00     0.304 A 
ATOM     21  O   UNL d   1     -54.796-102.127 -43.755  0.00  0.00    -0.300 OA
ATOM     22  C   UNL d   1     -55.345-101.287 -44.882  0.00  0.00     0.026 A 
ATOM     23  C   UNL d   1     -55.700-100.567 -45.062  0.00  0.00     0.004 A 
ENDBRANCH  14  15
ENDBRANCH  13  14
ENDBRANCH   3  13
BRANCH   1  24
ATOM     24  N   UNL d   1     -57.996 -99.168 -43.012  0.00  0.00    -0.107 N 
ATOM     25  O   UNL d   1     -58.447 -99.659 -42.528  0.00  0.00    -0.531 OA
ATOM     26  O   UNL d   1     -57.351 -98.757 -42.698  0.00  0.00    -0.531 OA
ENDBRANCH   1  24
TORSDOF 4
ENDMDL
