MODEL 1
REMARK VINA RESULT:      -2.4      0.000      0.000
REMARK  4 active torsions:
REMARK  status: ('A' for Active; 'I' for Inactive)
REMARK    1  A    between atoms: N_5  and  C_1 
REMARK    2  A    between atoms: C_8  and  C_2 
REMARK       I    between atoms: C_7  and  N_5 
REMARK    3  A    between atoms: C_10  and  C_7 
REMARK    4  A    between atoms: N_9  and  C_8 
ROOT
ATOM      1  C   UNL d   1      31.388  16.544 -24.313  0.00  0.00     0.115 A 
ATOM      2  C   UNL d   1      31.876  17.186 -24.477  0.00  0.00     0.042 A 
ATOM      3  S   UNL d   1      31.799  15.848 -24.530  0.00  0.00    -0.068 SA
ATOM      4  C   UNL d   1      32.586  16.892 -24.794  0.00  0.00     0.009 A 
ATOM      5  C   UNL d   1      32.522  16.067 -24.820  0.00  0.00     0.031 A 
ATOM      6  C   UNL d   1      33.241  17.334 -25.041  0.00  0.00     0.001 C 
ATOM      7  C   UNL d   1      33.101  15.541 -25.097  0.00  0.00     0.007 C 
ENDROOT
BRANCH   1   8
ATOM      8  N   UNL d   1      30.638  16.667 -23.990  0.00  0.00    -0.201 NA
ATOM      9  C   UNL d   1      30.020  16.157 -24.176  0.00  0.00     0.280 C 
ATOM     10  O   UNL d   1      30.152  15.522 -24.685  0.00  0.00    -0.265 OA
BRANCH   9  11
ATOM     11  C   UNL d   1      29.271  16.279 -23.853  0.00  0.00     0.058 A 
ATOM     12  C   UNL d   1      28.955  15.734 -23.324  0.00  0.00     0.007 A 
ATOM     13  C   UNL d   1      28.198  15.858 -22.998  0.00  0.00     0.030 A 
ATOM     14  C   UNL d   1      27.765  16.526 -23.205  0.00  0.00     0.140 A 
ATOM     15  C   UNL d   1      28.080  17.072 -23.734  0.00  0.00     0.030 A 
ATOM     16  F   UNL d   1      27.015  16.649 -22.882  0.00  0.00    -0.204 F 
ATOM     17  C   UNL d   1      28.838  16.948 -24.061  0.00  0.00     0.007 A 
ENDBRANCH   9  11
ENDBRANCH   1   8
BRANCH   2  18
ATOM     18  C   UNL d   1      31.692  17.989 -24.348  0.00  0.00     0.082 C 
BRANCH  18  19
ATOM     19  N   UNL d   1      32.174  18.451 -23.862  0.00  0.00    -0.302 N 
ATOM     20  C   UNL d   1      32.369  19.170 -24.218  0.00  0.00     0.080 A 
ATOM     21  C   UNL d   1      32.831  19.778 -23.923  0.00  0.00     0.019 A 
ATOM     22  C   UNL d   1      33.219  19.826 -23.196  0.00  0.00     0.002 A 
ATOM     23  C   UNL d   1      33.238  19.275 -22.583  0.00  0.00     0.002 A 
ATOM     24  C   UNL d   1      32.870  18.534 -22.550  0.00  0.00     0.019 A 
ATOM     25  C   UNL d   1      32.399  18.168 -23.115  0.00  0.00     0.080 A 
ENDBRANCH  18  19
ENDBRANCH   2  18
TORSDOF 4
ENDMDL
MODEL 2
REMARK VINA RESULT:      -2.0      2.251      4.195
REMARK  4 active torsions:
REMARK  status: ('A' for Active; 'I' for Inactive)
REMARK    1  A    between atoms: N_5  and  C_1 
REMARK    2  A    between atoms: C_8  and  C_2 
REMARK       I    between atoms: C_7  and  N_5 
REMARK    3  A    between atoms: C_10  and  C_7 
REMARK    4  A    between atoms: N_9  and  C_8 
ROOT
ATOM      1  C   UNL d   1      32.652  17.620 -23.564  0.00  0.00     0.115 A 
ATOM      2  C   UNL d   1      32.282  17.283 -24.217  0.00  0.00     0.042 A 
ATOM      3  S   UNL d   1      32.972  16.999 -23.102  0.00  0.00    -0.068 SA
ATOM      4  C   UNL d   1      32.370  16.458 -24.163  0.00  0.00     0.009 A 
ATOM      5  C   UNL d   1      32.798  16.300 -23.471  0.00  0.00     0.031 A 
ATOM      6  C   UNL d   1      32.088  15.892 -24.696  0.00  0.00     0.001 C 
ATOM      7  C   UNL d   1      33.016  15.550 -23.193  0.00  0.00     0.007 C 
ENDROOT
BRANCH   1   8
ATOM      8  N   UNL d   1      32.655  18.440 -23.468  0.00  0.00    -0.201 NA
ATOM      9  C   UNL d   1      32.948  18.774 -22.775  0.00  0.00     0.280 C 
ATOM     10  O   UNL d   1      33.240  18.287 -22.178  0.00  0.00    -0.265 OA
BRANCH   9  11
ATOM     11  C   UNL d   1      32.951  19.593 -22.679  0.00  0.00     0.058 A 
ATOM     12  C   UNL d   1      32.676  19.927 -21.980  0.00  0.00     0.007 A 
ATOM     13  C   UNL d   1      32.678  20.755 -21.883  0.00  0.00     0.030 A 
ATOM     14  C   UNL d   1      32.956  21.240 -22.487  0.00  0.00     0.140 A 
ATOM     15  C   UNL d   1      33.231  20.906 -23.187  0.00  0.00     0.030 A 
ATOM     16  F   UNL d   1      32.958  22.059 -22.391  0.00  0.00    -0.204 F 
ATOM     17  C   UNL d   1      33.229  20.078 -23.284  0.00  0.00     0.007 A 
ENDBRANCH   9  11
ENDBRANCH   1   8
BRANCH   2  18
ATOM     18  C   UNL d   1      31.888  17.695 -24.826  0.00  0.00     0.082 C 
BRANCH  18  19
ATOM     19  N   UNL d   1      31.063  17.747 -24.823  0.00  0.00    -0.302 N 
ATOM     20  C   UNL d   1      30.804  18.502 -25.033  0.00  0.00     0.080 A 
ATOM     21  C   UNL d   1      30.036  18.780 -25.096  0.00  0.00     0.019 A 
ATOM     22  C   UNL d   1      29.328  18.376 -24.966  0.00  0.00     0.002 A 
ATOM     23  C   UNL d   1      29.215  17.591 -24.739  0.00  0.00     0.002 A 
ATOM     24  C   UNL d   1      29.790  17.015 -24.587  0.00  0.00     0.019 A 
ATOM     25  C   UNL d   1      30.608  17.083 -24.623  0.00  0.00     0.080 A 
ENDBRANCH  18  19
ENDBRANCH   2  18
TORSDOF 4
ENDMDL
MODEL 3
REMARK VINA RESULT:       0.6      3.425      5.180
REMARK  4 active torsions:
REMARK  status: ('A' for Active; 'I' for Inactive)
REMARK    1  A    between atoms: N_5  and  C_1 
REMARK    2  A    between atoms: C_8  and  C_2 
REMARK       I    between atoms: C_7  and  N_5 
REMARK    3  A    between atoms: C_10  and  C_7 
REMARK    4  A    between atoms: N_9  and  C_8 
ROOT
ATOM      1  C   UNL d   1      32.624  20.893 -22.253  0.00  0.00     0.115 A 
ATOM      2  C   UNL d   1      32.882  21.666 -22.367  0.00  0.00     0.042 A 
ATOM      3  S   UNL d   1      32.302  20.842 -21.481  0.00  0.00    -0.068 SA
ATOM      4  C   UNL d   1      32.723  22.094 -21.673  0.00  0.00     0.009 A 
ATOM      5  C   UNL d   1      32.365  21.573 -21.137  0.00  0.00     0.031 A 
ATOM      6  C   UNL d   1      32.886  22.893 -21.533  0.00  0.00     0.001 C 
ATOM      7  C   UNL d   1      32.111  21.759 -20.371  0.00  0.00     0.007 C 
ENDROOT
BRANCH   1   8
ATOM      8  N   UNL d   1      32.711  20.335 -22.854  0.00  0.00    -0.201 NA
ATOM      9  C   UNL d   1      32.644  19.532 -22.686  0.00  0.00     0.280 C 
ATOM     10  O   UNL d   1      32.489  19.287 -21.914  0.00  0.00    -0.265 OA
BRANCH   9  11
ATOM     11  C   UNL d   1      32.731  18.974 -23.287  0.00  0.00     0.058 A 
ATOM     12  C   UNL d   1      33.090  18.251 -23.129  0.00  0.00     0.007 A 
ATOM     13  C   UNL d   1      33.178  17.687 -23.737  0.00  0.00     0.030 A 
ATOM     14  C   UNL d   1      32.905  17.853 -24.496  0.00  0.00     0.140 A 
ATOM     15  C   UNL d   1      32.546  18.576 -24.654  0.00  0.00     0.030 A 
ATOM     16  F   UNL d   1      32.992  17.295 -25.097  0.00  0.00    -0.204 F 
ATOM     17  C   UNL d   1      32.458  19.140 -24.046  0.00  0.00     0.007 A 
ENDBRANCH   9  11
ENDBRANCH   1   8
BRANCH   2  18
ATOM     18  C   UNL d   1      33.241  21.967 -23.058  0.00  0.00     0.082 C 
BRANCH  18  19
ATOM     19  N   UNL d   1      32.815  22.464 -23.561  0.00  0.00    -0.302 N 
ATOM     20  C   UNL d   1      32.968  22.299 -24.356  0.00  0.00     0.080 A 
ATOM     21  C   UNL d   1      32.661  22.662 -25.022  0.00  0.00     0.019 A 
ATOM     22  C   UNL d   1      32.121  23.284 -25.069  0.00  0.00     0.002 A 
ATOM     23  C   UNL d   1      31.754  23.698 -24.457  0.00  0.00     0.002 A 
ATOM     24  C   UNL d   1      31.842  23.586 -23.641  0.00  0.00     0.019 A 
ATOM     25  C   UNL d   1      32.311  23.041 -23.244  0.00  0.00     0.080 A 
ENDBRANCH  18  19
ENDBRANCH   2  18
TORSDOF 4
ENDMDL
