MODEL 1
REMARK VINA RESULT:      83.6      0.000      0.000
REMARK  5 active torsions:
REMARK  status: ('A' for Active; 'I' for Inactive)
REMARK    1  A    between atoms: N_8  and  S_1 
REMARK    2  A    between atoms: C_18  and  S_1 
REMARK    3  A    between atoms: C_13  and  C_3 
REMARK    4  A    between atoms: C_5  and  C_11 
REMARK    5  A    between atoms: C_17  and  N_8 
ROOT
ATOM      1  N   UNL d   1     -48.126  28.866  35.422  0.00  0.00    -0.246 NA
ATOM      2  C   UNL d   1     -48.076  30.369  34.734  0.00  0.00     0.003 A 
ATOM      3  C   UNL d   1     -47.658  30.216  35.430  0.00  0.00     0.018 A 
ATOM      4  C   UNL d   1     -48.544  29.016  34.726  0.00  0.00     0.081 A 
ATOM      5  C   UNL d   1     -48.519  29.765  34.383  0.00  0.00     0.019 A 
ATOM      6  C   UNL d   1     -47.683  29.466  35.774  0.00  0.00     0.081 A 
ATOM      7  C   UNL d   1     -47.215  30.819  35.781  0.00  0.00     0.002 A 
ATOM      8  C   UNL d   1     -47.265  29.316  36.469  0.00  0.00     0.019 A 
ATOM      9  C   UNL d   1     -46.797  30.667  36.478  0.00  0.00     0.000 A 
ATOM     10  C   UNL d   1     -46.822  29.917  36.821  0.00  0.00     0.002 A 
ATOM     11  C   UNL d   1     -46.388  31.253  36.787  0.00  0.00     0.000 C 
ENDROOT
BRANCH   4  12
ATOM     12  C   UNL d   1     -48.987  28.415  34.374  0.00  0.00     0.018 A 
ATOM     13  C   UNL d   1     -49.680  28.597  33.968  0.00  0.00     0.003 A 
ATOM     14  C   UNL d   1     -50.123  27.997  33.616  0.00  0.00     0.020 A 
ATOM     15  C   UNL d   1     -49.871  27.213  33.672  0.00  0.00     0.094 A 
ATOM     16  C   UNL d   1     -49.178  27.030  34.079  0.00  0.00     0.020 A 
ATOM     17  C   UNL d   1     -48.735  27.632  34.430  0.00  0.00     0.003 A 
BRANCH  15  18
ATOM     18  N   UNL d   1     -50.314  26.612  33.320  0.00  0.00    -0.158 NA
BRANCH  18  19
ATOM     19  S   UNL d   1     -51.137  26.625  33.366  0.00  0.00     0.286 S 
ATOM     20  O   UNL d   1     -51.909  26.637  33.409  0.00  0.00    -0.198 OA
ATOM     21  O   UNL d   1     -51.127  27.450  33.307  0.00  0.00    -0.198 OA
BRANCH  19  22
ATOM     22  C   UNL d   1     -51.147  25.802  33.425  0.00  0.00     0.117 C 
ATOM     23  C   UNL d   1     -51.935  25.584  33.320  0.00  0.00     0.014 C 
ENDBRANCH  19  22
ENDBRANCH  18  19
ENDBRANCH  15  18
ENDBRANCH   4  12
BRANCH   2  24
ATOM     24  C   UNL d   1     -48.051  31.109  34.395  0.00  0.00     0.000 A 
ATOM     25  C   UNL d   1     -48.739  31.558  34.339  0.00  0.00     0.000 A 
ATOM     26  C   UNL d   1     -48.714  32.310  33.995  0.00  0.00     0.000 A 
ATOM     27  C   UNL d   1     -48.001  32.610  33.708  0.00  0.00     0.000 A 
ATOM     28  C   UNL d   1     -47.312  32.158  33.765  0.00  0.00     0.000 A 
ATOM     29  C   UNL d   1     -47.337  31.406  34.109  0.00  0.00     0.000 A 
ENDBRANCH   2  24
TORSDOF 5
ENDMDL
MODEL 2
REMARK VINA RESULT:      84.1      1.923      5.815
REMARK  5 active torsions:
REMARK  status: ('A' for Active; 'I' for Inactive)
REMARK    1  A    between atoms: N_8  and  S_1 
REMARK    2  A    between atoms: C_18  and  S_1 
REMARK    3  A    between atoms: C_13  and  C_3 
REMARK    4  A    between atoms: C_5  and  C_11 
REMARK    5  A    between atoms: C_17  and  N_8 
ROOT
ATOM      1  N   UNL d   1     -49.382  26.011  33.908  0.00  0.00    -0.246 NA
ATOM      2  C   UNL d   1     -51.022  25.961  33.698  0.00  0.00     0.003 A 
ATOM      3  C   UNL d   1     -50.575  25.268  33.651  0.00  0.00     0.018 A 
ATOM      4  C   UNL d   1     -49.825  26.706  33.956  0.00  0.00     0.081 A 
ATOM      5  C   UNL d   1     -50.643  26.681  33.851  0.00  0.00     0.019 A 
ATOM      6  C   UNL d   1     -49.757  25.293  33.755  0.00  0.00     0.081 A 
ATOM      7  C   UNL d   1     -50.953  24.549  33.498  0.00  0.00     0.002 A 
ATOM      8  C   UNL d   1     -49.313  24.599  33.708  0.00  0.00     0.019 A 
ATOM      9  C   UNL d   1     -50.506  23.855  33.451  0.00  0.00     0.000 A 
ATOM     10  C   UNL d   1     -49.688  23.880  33.555  0.00  0.00     0.002 A 
ATOM     11  C   UNL d   1     -50.887  23.191  33.306  0.00  0.00     0.000 C 
ENDROOT
BRANCH   4  12
ATOM     12  C   UNL d   1     -49.450  27.425  34.108  0.00  0.00     0.018 A 
ATOM     13  C   UNL d   1     -49.882  28.061  34.404  0.00  0.00     0.003 A 
ATOM     14  C   UNL d   1     -49.507  28.780  34.556  0.00  0.00     0.020 A 
ATOM     15  C   UNL d   1     -48.698  28.861  34.411  0.00  0.00     0.094 A 
ATOM     16  C   UNL d   1     -48.266  28.225  34.116  0.00  0.00     0.020 A 
ATOM     17  C   UNL d   1     -48.642  27.505  33.963  0.00  0.00     0.003 A 
BRANCH  15  18
ATOM     18  N   UNL d   1     -48.323  29.580  34.564  0.00  0.00    -0.158 NA
BRANCH  18  19
ATOM     19  S   UNL d   1     -47.771  29.636  35.175  0.00  0.00     0.286 S 
ATOM     20  O   UNL d   1     -47.255  29.690  35.747  0.00  0.00    -0.198 OA
ATOM     21  O   UNL d   1     -47.918  28.849  35.380  0.00  0.00    -0.198 OA
BRANCH  19  22
ATOM     22  C   UNL d   1     -47.625  30.422  34.970  0.00  0.00     0.117 C 
ATOM     23  C   UNL d   1     -47.460  30.807  35.680  0.00  0.00     0.014 C 
ENDBRANCH  19  22
ENDBRANCH  18  19
ENDBRANCH  15  18
ENDBRANCH   4  12
BRANCH   2  24
ATOM     24  C   UNL d   1     -51.829  25.937  33.595  0.00  0.00     0.000 A 
ATOM     25  C   UNL d   1     -52.241  26.626  33.410  0.00  0.00     0.000 A 
ATOM     26  C   UNL d   1     -53.060  26.601  33.306  0.00  0.00     0.000 A 
ATOM     27  C   UNL d   1     -53.467  25.887  33.387  0.00  0.00     0.000 A 
ATOM     28  C   UNL d   1     -53.052  25.197  33.572  0.00  0.00     0.000 A 
ATOM     29  C   UNL d   1     -52.232  25.222  33.677  0.00  0.00     0.000 A 
ENDBRANCH   2  24
TORSDOF 5
ENDMDL
