MODEL 1
REMARK VINA RESULT:      93.2      0.000      0.000
REMARK  9 active torsions:
REMARK  status: ('A' for Active; 'I' for Inactive)
REMARK    1  A    between atoms: C_10  and  N_1 
REMARK    2  A    between atoms: S_13  and  C_2 
REMARK    3  A    between atoms: C_6  and  N_11 
REMARK    4  A    between atoms: C_24  and  C_10 
REMARK       I    between atoms: N_11  and  C_15 
REMARK    5  A    between atoms: C_21  and  S_13 
REMARK    6  A    between atoms: C_15  and  C_21 
REMARK    7  A    between atoms: O_27  and  C_17 
REMARK    8  A    between atoms: O_28  and  C_18 
REMARK    9  A    between atoms: C_23  and  C_24 
ROOT
ATOM      1  N   UNL d   1     -49.075  28.231  35.782  0.00  0.00    -0.253 N 
ATOM      2  C   UNL d   1     -49.266  28.313  34.993  0.00  0.00     0.182 A 
ATOM      3  C   UNL d   1     -48.473  28.694  36.120  0.00  0.00     0.268 A 
ATOM      4  N   UNL d   1     -48.859  28.859  34.521  0.00  0.00    -0.222 NA
ATOM      5  C   UNL d   1     -48.069  29.239  35.643  0.00  0.00     0.074 A 
ATOM      6  C   UNL d   1     -48.260  29.321  34.854  0.00  0.00     0.088 A 
ATOM      7  O   UNL d   1     -48.282  28.612  36.908  0.00  0.00    -0.267 OA
ATOM      8  C   UNL d   1     -47.463  29.704  35.981  0.00  0.00     0.006 A 
ATOM      9  C   UNL d   1     -47.850  29.870  34.382  0.00  0.00     0.019 A 
ATOM     10  C   UNL d   1     -47.064  30.245  35.505  0.00  0.00     0.000 A 
ATOM     11  C   UNL d   1     -47.255  30.327  34.715  0.00  0.00     0.002 A 
ENDROOT
BRANCH   1  12
ATOM     12  C   UNL d   1     -49.485  27.680  36.260  0.00  0.00     0.085 C 
BRANCH  12  13
ATOM     13  C   UNL d   1     -49.539  27.795  37.076  0.00  0.00     0.019 C 
BRANCH  13  14
ATOM     14  C   UNL d   1     -50.154  27.447  37.503  0.00  0.00     0.004 A 
ATOM     15  C   UNL d   1     -50.517  27.863  38.118  0.00  0.00     0.026 A 
ATOM     16  C   UNL d   1     -51.126  27.523  38.543  0.00  0.00     0.116 A 
ATOM     17  C   UNL d   1     -51.384  26.754  38.357  0.00  0.00     0.116 A 
ATOM     18  C   UNL d   1     -51.013  26.342  37.736  0.00  0.00     0.026 A 
ATOM     19  C   UNL d   1     -50.401  26.692  37.314  0.00  0.00     0.002 A 
BRANCH  16  20
ATOM     20  O   UNL d   1     -51.487  27.937  39.155  0.00  0.00    -0.326 OA
ATOM     21  C   UNL d   1     -52.292  28.070  39.141  0.00  0.00     0.181 C 
ENDBRANCH  16  20
BRANCH  17  22
ATOM     22  O   UNL d   1     -51.989  26.409  38.774  0.00  0.00    -0.326 OA
ATOM     23  C   UNL d   1     -52.057  25.588  38.826  0.00  0.00     0.181 C 
ENDBRANCH  17  22
ENDBRANCH  13  14
ENDBRANCH  12  13
ENDBRANCH   1  12
BRANCH   2  24
ATOM     24  S   UNL d   1     -49.874  27.846  34.652  0.00  0.00    -0.044 SA
BRANCH  24  25
ATOM     25  C   UNL d   1     -49.696  27.288  34.065  0.00  0.00     0.101 C 
BRANCH  25  26
ATOM     26  C   UNL d   1     -50.234  26.689  33.897  0.00  0.00     0.287 C 
ATOM     27  N   UNL d   1     -49.977  25.926  33.778  0.00  0.00    -0.186 NA
ATOM     28  O   UNL d   1     -51.040  26.865  33.848  0.00  0.00    -0.265 OA
BRANCH  27  29
ATOM     29  C   UNL d   1     -50.515  25.328  33.610  0.00  0.00     0.194 A 
ATOM     30  N   UNL d   1     -51.320  25.421  33.439  0.00  0.00    -0.107 NA
ATOM     31  O   UNL d   1     -51.647  24.680  33.306  0.00  0.00    -0.210 OA
ATOM     32  C   UNL d   1     -51.052  24.114  33.392  0.00  0.00     0.128 A 
ATOM     33  C   UNL d   1     -50.356  24.514  33.579  0.00  0.00     0.068 A 
ATOM     34  C   UNL d   1     -51.143  23.306  33.306  0.00  0.00     0.029 C 
ENDBRANCH  27  29
ENDBRANCH  25  26
ENDBRANCH  24  25
ENDBRANCH   2  24
TORSDOF 9
ENDMDL
MODEL 2
REMARK VINA RESULT:      95.0      1.577      4.855
REMARK  9 active torsions:
REMARK  status: ('A' for Active; 'I' for Inactive)
REMARK    1  A    between atoms: C_10  and  N_1 
REMARK    2  A    between atoms: S_13  and  C_2 
REMARK    3  A    between atoms: C_6  and  N_11 
REMARK    4  A    between atoms: C_24  and  C_10 
REMARK       I    between atoms: N_11  and  C_15 
REMARK    5  A    between atoms: C_21  and  S_13 
REMARK    6  A    between atoms: C_15  and  C_21 
REMARK    7  A    between atoms: O_27  and  C_17 
REMARK    8  A    between atoms: O_28  and  C_18 
REMARK    9  A    between atoms: C_23  and  C_24 
ROOT
ATOM      1  N   UNL d   1     -49.561  27.573  35.395  0.00  0.00    -0.253 N 
ATOM      2  C   UNL d   1     -50.152  27.329  35.903  0.00  0.00     0.182 A 
ATOM      3  C   UNL d   1     -49.542  27.302  34.609  0.00  0.00     0.268 A 
ATOM      4  N   UNL d   1     -50.740  26.808  35.637  0.00  0.00    -0.222 NA
ATOM      5  C   UNL d   1     -50.132  26.780  34.350  0.00  0.00     0.074 A 
ATOM      6  C   UNL d   1     -50.723  26.537  34.857  0.00  0.00     0.088 A 
ATOM      7  O   UNL d   1     -48.952  27.544  34.103  0.00  0.00    -0.267 OA
ATOM      8  C   UNL d   1     -50.114  26.507  33.561  0.00  0.00     0.006 A 
ATOM      9  C   UNL d   1     -51.312  26.013  34.589  0.00  0.00     0.019 A 
ATOM     10  C   UNL d   1     -50.702  25.988  33.306  0.00  0.00     0.000 A 
ATOM     11  C   UNL d   1     -51.293  25.745  33.813  0.00  0.00     0.002 A 
ENDROOT
BRANCH   1  12
ATOM     12  C   UNL d   1     -48.967  28.099  35.661  0.00  0.00     0.085 C 
BRANCH  12  13
ATOM     13  C   UNL d   1     -48.412  28.403  35.131  0.00  0.00     0.019 C 
BRANCH  13  14
ATOM     14  C   UNL d   1     -48.109  29.163  35.240  0.00  0.00     0.004 A 
ATOM     15  C   UNL d   1     -47.727  29.359  35.945  0.00  0.00     0.026 A 
ATOM     16  C   UNL d   1     -47.426  30.110  36.058  0.00  0.00     0.116 A 
ATOM     17  C   UNL d   1     -47.504  30.683  35.458  0.00  0.00     0.116 A 
ATOM     18  C   UNL d   1     -47.891  30.477  34.750  0.00  0.00     0.026 A 
ATOM     19  C   UNL d   1     -48.190  29.719  34.646  0.00  0.00     0.002 A 
BRANCH  16  20
ATOM     20  O   UNL d   1     -47.046  30.305  36.760  0.00  0.00    -0.326 OA
ATOM     21  C   UNL d   1     -46.347  29.936  36.963  0.00  0.00     0.181 C 
ENDBRANCH  16  20
BRANCH  17  22
ATOM     22  O   UNL d   1     -47.208  31.431  35.562  0.00  0.00    -0.326 OA
ATOM     23  C   UNL d   1     -47.295  32.009  34.978  0.00  0.00     0.181 C 
ENDBRANCH  17  22
ENDBRANCH  13  14
ENDBRANCH  12  13
ENDBRANCH   1  12
BRANCH   2  24
ATOM     24  S   UNL d   1     -50.172  27.603  36.695  0.00  0.00    -0.044 SA
BRANCH  24  25
ATOM     25  C   UNL d   1     -50.099  27.070  37.326  0.00  0.00     0.101 C 
BRANCH  25  26
ATOM     26  C   UNL d   1     -50.761  26.876  37.773  0.00  0.00     0.287 C 
ATOM     27  N   UNL d   1     -50.980  26.097  37.868  0.00  0.00    -0.186 NA
ATOM     28  O   UNL d   1     -51.205  27.475  38.127  0.00  0.00    -0.265 OA
BRANCH  27  29
ATOM     29  C   UNL d   1     -51.642  25.903  38.314  0.00  0.00     0.194 A 
ATOM     30  N   UNL d   1     -52.070  26.412  38.809  0.00  0.00    -0.107 NA
ATOM     31  O   UNL d   1     -52.687  25.989  39.148  0.00  0.00    -0.210 OA
ATOM     32  C   UNL d   1     -52.653  25.212  38.870  0.00  0.00     0.128 A 
ATOM     33  C   UNL d   1     -52.010  25.160  38.357  0.00  0.00     0.068 A 
ATOM     34  C   UNL d   1     -53.168  24.608  39.070  0.00  0.00     0.029 C 
ENDBRANCH  27  29
ENDBRANCH  25  26
ENDBRANCH  24  25
ENDBRANCH   2  24
TORSDOF 9
ENDMDL
