MODEL 1
REMARK VINA RESULT:      -4.7      0.000      0.000
REMARK  3 active torsions:
REMARK  status: ('A' for Active; 'I' for Inactive)
REMARK    1  A    between atoms: S_2  and  C_5 
REMARK    2  A    between atoms: C_7  and  S_2 
REMARK    3  A    between atoms: C_3  and  C_7 
ROOT
ATOM      1  C   UNL d   1     -41.385-122.188 -52.398  0.00  0.00     0.087 A 
ATOM      2  N   UNL d   1     -41.469-121.368 -52.328  0.00  0.00    -0.244 NA
ATOM      3  C   UNL d   1     -41.473-122.555 -53.130  0.00  0.00     0.043 A 
ATOM      4  C   UNL d   1     -41.212-122.633 -51.725  0.00  0.00     0.018 A 
ATOM      5  C   UNL d   1     -41.217-123.817 -52.530  0.00  0.00     0.001 A 
ATOM      6  C   UNL d   1     -41.379-121.006 -51.590  0.00  0.00     0.099 A 
ATOM      7  C   UNL d   1     -41.389-123.375 -53.200  0.00  0.00     0.008 A 
ATOM      8  C   UNL d   1     -41.128-123.453 -51.795  0.00  0.00     0.002 A 
ATOM      9  C   UNL d   1     -41.123-122.282 -50.994  0.00  0.00     0.003 A 
ATOM     10  C   UNL d   1     -41.206-121.464 -50.921  0.00  0.00     0.021 A 
ENDROOT
BRANCH   3  11
ATOM     11  S   UNL d   1     -41.646-122.097 -53.798  0.00  0.00    -0.101 SA
BRANCH  11  12
ATOM     12  C   UNL d   1     -41.863-122.262 -54.587  0.00  0.00     0.160 C 
BRANCH  12  13
ATOM     13  C   UNL d   1     -42.190-121.823 -55.210  0.00  0.00     0.197 C 
ATOM     14  O   UNL d   1     -43.006-121.693 -55.241  0.00  0.00    -0.647 OA
ATOM     15  O   UNL d   1     -41.700-121.515 -55.800  0.00  0.00    -0.647 OA
ENDBRANCH  12  13
ENDBRANCH  11  12
ENDBRANCH   3  11
TORSDOF 3
ENDMDL
MODEL 2
REMARK VINA RESULT:      -4.7      1.951      3.242
REMARK  3 active torsions:
REMARK  status: ('A' for Active; 'I' for Inactive)
REMARK    1  A    between atoms: S_2  and  C_5 
REMARK    2  A    between atoms: C_7  and  S_2 
REMARK    3  A    between atoms: C_3  and  C_7 
ROOT
ATOM      1  C   UNL d   1     -41.854-122.326 -54.039  0.00  0.00     0.087 A 
ATOM      2  N   UNL d   1     -42.222-121.589 -53.967  0.00  0.00    -0.244 NA
ATOM      3  C   UNL d   1     -41.491-122.676 -53.389  0.00  0.00     0.043 A 
ATOM      4  C   UNL d   1     -41.854-122.705 -54.772  0.00  0.00     0.018 A 
ATOM      5  C   UNL d   1     -41.123-123.790 -54.190  0.00  0.00     0.001 A 
ATOM      6  C   UNL d   1     -42.584-121.243 -54.624  0.00  0.00     0.099 A 
ATOM      7  C   UNL d   1     -41.123-123.413 -53.461  0.00  0.00     0.008 A 
ATOM      8  C   UNL d   1     -41.485-123.442 -54.845  0.00  0.00     0.002 A 
ATOM      9  C   UNL d   1     -42.210-122.368 -55.425  0.00  0.00     0.003 A 
ATOM     10  C   UNL d   1     -42.578-121.633 -55.356  0.00  0.00     0.021 A 
ENDROOT
BRANCH   3  11
ATOM     11  S   UNL d   1     -41.497-122.286 -52.657  0.00  0.00    -0.101 SA
BRANCH  11  12
ATOM     12  C   UNL d   1     -41.475-122.528 -51.859  0.00  0.00     0.160 C 
BRANCH  12  13
ATOM     13  C   UNL d   1     -41.621-122.160 -51.131  0.00  0.00     0.197 C 
ATOM     14  O   UNL d   1     -41.156-121.520 -50.889  0.00  0.00    -0.647 OA
ATOM     15  O   UNL d   1     -42.233-122.432 -50.645  0.00  0.00    -0.647 OA
ENDBRANCH  12  13
ENDBRANCH  11  12
ENDBRANCH   3  11
TORSDOF 3
ENDMDL
MODEL 3
REMARK VINA RESULT:      -3.6      1.267      1.935
REMARK  3 active torsions:
REMARK  status: ('A' for Active; 'I' for Inactive)
REMARK    1  A    between atoms: S_2  and  C_5 
REMARK    2  A    between atoms: C_7  and  S_2 
REMARK    3  A    between atoms: C_3  and  C_7 
ROOT
ATOM      1  C   UNL d   1     -41.541-122.661 -51.480  0.00  0.00     0.087 A 
ATOM      2  N   UNL d   1     -41.746-123.461 -51.437  0.00  0.00    -0.244 NA
ATOM      3  C   UNL d   1     -41.377-122.312 -52.206  0.00  0.00     0.043 A 
ATOM      4  C   UNL d   1     -41.503-122.218 -50.784  0.00  0.00     0.018 A 
ATOM      5  C   UNL d   1     -41.135-121.071 -51.558  0.00  0.00     0.001 A 
ATOM      6  C   UNL d   1     -41.909-123.807 -50.703  0.00  0.00     0.099 A 
ATOM      7  C   UNL d   1     -41.172-121.511 -52.249  0.00  0.00     0.008 A 
ATOM      8  C   UNL d   1     -41.298-121.418 -50.827  0.00  0.00     0.002 A 
ATOM      9  C   UNL d   1     -41.664-122.553 -50.058  0.00  0.00     0.003 A 
ATOM     10  C   UNL d   1     -41.868-123.351 -50.012  0.00  0.00     0.021 A 
ENDROOT
BRANCH   3  11
ATOM     11  S   UNL d   1     -41.418-122.767 -52.898  0.00  0.00    -0.101 SA
BRANCH  11  12
ATOM     12  C   UNL d   1     -41.422-122.600 -53.715  0.00  0.00     0.160 C 
BRANCH  12  13
ATOM     13  C   UNL d   1     -41.491-123.053 -54.406  0.00  0.00     0.197 C 
ATOM     14  O   UNL d   1     -41.921-122.762 -55.050  0.00  0.00    -0.647 OA
ATOM     15  O   UNL d   1     -41.131-123.796 -54.452  0.00  0.00    -0.647 OA
ENDBRANCH  12  13
ENDBRANCH  11  12
ENDBRANCH   3  11
TORSDOF 3
ENDMDL
MODEL 4
REMARK VINA RESULT:      -2.4      3.245      3.992
REMARK  3 active torsions:
REMARK  status: ('A' for Active; 'I' for Inactive)
REMARK    1  A    between atoms: S_2  and  C_5 
REMARK    2  A    between atoms: C_7  and  S_2 
REMARK    3  A    between atoms: C_3  and  C_7 
ROOT
ATOM      1  C   UNL d   1     -41.224-122.386 -51.032  0.00  0.00     0.087 A 
ATOM      2  N   UNL d   1     -41.224-121.664 -50.628  0.00  0.00    -0.244 NA
ATOM      3  C   UNL d   1     -41.274-123.095 -50.617  0.00  0.00     0.043 A 
ATOM      4  C   UNL d   1     -41.173-122.386 -51.855  0.00  0.00     0.018 A 
ATOM      5  C   UNL d   1     -41.222-123.817 -51.840  0.00  0.00     0.001 A 
ATOM      6  C   UNL d   1     -41.174-120.955 -51.051  0.00  0.00     0.099 A 
ATOM      7  C   UNL d   1     -41.273-123.817 -51.021  0.00  0.00     0.008 A 
ATOM      8  C   UNL d   1     -41.172-123.108 -52.259  0.00  0.00     0.002 A 
ATOM      9  C   UNL d   1     -41.123-121.690 -52.278  0.00  0.00     0.003 A 
ATOM     10  C   UNL d   1     -41.123-120.968 -51.878  0.00  0.00     0.021 A 
ENDROOT
BRANCH   3  11
ATOM     11  S   UNL d   1     -41.324-123.083 -49.790  0.00  0.00    -0.101 SA
BRANCH  11  12
ATOM     12  C   UNL d   1     -41.622-123.602 -49.209  0.00  0.00     0.160 C 
BRANCH  12  13
ATOM     13  C   UNL d   1     -41.822-123.533 -48.407  0.00  0.00     0.197 C 
ATOM     14  O   UNL d   1     -42.597-123.684 -48.160  0.00  0.00    -0.647 OA
ATOM     15  O   UNL d   1     -41.248-123.312 -47.855  0.00  0.00    -0.647 OA
ENDBRANCH  12  13
ENDBRANCH  11  12
ENDBRANCH   3  11
TORSDOF 3
ENDMDL
