MODEL 1
REMARK VINA RESULT:     357.1      0.000      0.000
REMARK  5 active torsions:
REMARK  status: ('A' for Active; 'I' for Inactive)
REMARK    1  A    between atoms: N_8  and  S_1 
REMARK    2  A    between atoms: C_11  and  S_1 
REMARK    3  A    between atoms: S_2  and  C_10 
REMARK    4  A    between atoms: N_9  and  S_2 
REMARK    5  A    between atoms: N_20  and  C_5 
ROOT
ATOM      1  C   UNL d   1     -57.808-100.948 -42.079  0.00  0.00     0.021 A 
ATOM      2  C   UNL d   1     -58.054-100.604 -43.339  0.00  0.00     0.021 A 
ATOM      3  C   UNL d   1     -58.326-100.509 -42.568  0.00  0.00     0.111 A 
ATOM      4  C   UNL d   1     -57.387-101.089 -43.315  0.00  0.00     0.002 A 
ATOM      5  C   UNL d   1     -57.251-101.292 -42.527  0.00  0.00     0.002 A 
ATOM      6  C   UNL d   1     -57.944-100.496 -44.764  0.00  0.00     0.104 A 
ATOM      7  C   UNL d   1     -57.239-101.515 -40.895  0.00  0.00     0.104 A 
ATOM      8  C   UNL d   1     -58.326-100.313 -44.056  0.00  0.00     0.015 A 
ATOM      9  C   UNL d   1     -57.817-101.050 -41.255  0.00  0.00     0.015 A 
ATOM     10  C   UNL d   1     -56.673-101.757 -42.167  0.00  0.00     0.001 A 
ATOM     11  C   UNL d   1     -56.992-101.283 -44.017  0.00  0.00     0.001 A 
ATOM     12  C   UNL d   1     -56.691-101.852 -41.350  0.00  0.00     0.013 A 
ATOM     13  C   UNL d   1     -57.271-100.989 -44.712  0.00  0.00     0.013 A 
ENDROOT
BRANCH   6  14
ATOM     14  S   UNL d   1     -58.219-100.200 -45.504  0.00  0.00     0.271 S 
ATOM     15  O   UNL d   1     -58.053 -99.408 -45.249  0.00  0.00    -0.200 OA
ATOM     16  O   UNL d   1     -58.371-101.002 -45.723  0.00  0.00    -0.200 OA
BRANCH  14  17
ATOM     17  N   UNL d   1     -58.490 -99.935 -46.230  0.00  0.00    -0.229 N 
ATOM     18  C   UNL d   1     -58.554 -99.133 -46.368  0.00  0.00     0.092 A 
ATOM     19  C   UNL d   1     -58.826 -98.882 -47.097  0.00  0.00     0.020 A 
ATOM     20  C   UNL d   1     -59.033 -99.412 -47.685  0.00  0.00     0.003 A 
ATOM     21  C   UNL d   1     -58.968-100.232 -47.545  0.00  0.00     0.020 A 
ATOM     22  C   UNL d   1     -59.309 -99.143 -48.424  0.00  0.00     0.000 C 
ATOM     23  C   UNL d   1     -58.693-100.493 -46.807  0.00  0.00     0.092 A 
ENDBRANCH  14  17
ENDBRANCH   6  14
BRANCH   3  24
ATOM     24  N   UNL d   1     -58.978-100.072 -42.313  0.00  0.00    -0.096 NA
ATOM     25  O   UNL d   1     -59.547 -99.855 -42.887  0.00  0.00    -0.061 OA
ENDBRANCH   3  24
BRANCH   7  26
ATOM     26  S   UNL d   1     -57.220-101.637 -40.071  0.00  0.00     0.271 S 
ATOM     27  O   UNL d   1     -56.821-102.369 -40.191  0.00  0.00    -0.200 OA
ATOM     28  O   UNL d   1     -57.615-100.913 -39.975  0.00  0.00    -0.200 OA
BRANCH  26  29
ATOM     29  N   UNL d   1     -57.195-101.772 -39.242  0.00  0.00    -0.229 N 
ATOM     30  C   UNL d   1     -56.458-101.872 -38.892  0.00  0.00     0.092 A 
ATOM     31  C   UNL d   1     -56.405-102.003 -38.095  0.00  0.00     0.020 A 
ATOM     32  C   UNL d   1     -57.078-102.040 -37.619  0.00  0.00     0.003 A 
ATOM     33  C   UNL d   1     -57.830-101.938 -37.974  0.00  0.00     0.020 A 
ATOM     34  C   UNL d   1     -57.004-102.176 -36.795  0.00  0.00     0.000 C 
ATOM     35  C   UNL d   1     -57.882-101.804 -38.788  0.00  0.00     0.092 A 
ENDBRANCH  26  29
ENDBRANCH   7  26
TORSDOF 5
ENDMDL
