MODEL 1
REMARK VINA RESULT:      12.3      0.000      0.000
REMARK  3 active torsions:
REMARK  status: ('A' for Active; 'I' for Inactive)
REMARK    1  A    between atoms: N_2  and  C_1 
REMARK       I    between atoms: C_5  and  N_2 
REMARK    2  A    between atoms: C_8  and  C_5 
REMARK    3  A    between atoms: O_17  and  C_13 
ROOT
ATOM      1  N   UNL d   1      46.217 -16.771  43.727  0.00  0.00    -0.184 NA
ATOM      2  C   UNL d   1      45.824 -16.437  44.373  0.00  0.00     0.281 C 
ATOM      3  O   UNL d   1      45.525 -16.941  44.955  0.00  0.00    -0.265 OA
ENDROOT
BRANCH   1   4
ATOM      4  C   UNL d   1      46.297 -17.596  43.687  0.00  0.00     0.182 A 
ATOM      5  N   UNL d   1      46.263 -18.095  43.011  0.00  0.00    -0.283 N 
ATOM      6  C   UNL d   1      46.382 -18.884  43.310  0.00  0.00     0.072 A 
ATOM      7  C   UNL d   1      46.145 -17.865  42.260  0.00  0.00     0.101 C 
ATOM      8  C   UNL d   1      46.412 -19.635  42.928  0.00  0.00     0.018 A 
ATOM      9  C   UNL d   1      46.476 -18.827  44.099  0.00  0.00     0.048 A 
ATOM     10  C   UNL d   1      46.542 -20.330  43.394  0.00  0.00     0.002 A 
ATOM     11  C   UNL d   1      46.635 -20.261  44.194  0.00  0.00     0.001 A 
ATOM     12  C   UNL d   1      46.606 -19.517  44.574  0.00  0.00     0.008 A 
ATOM     13  S   UNL d   1      46.427 -18.064  44.340  0.00  0.00    -0.048 SA
ENDBRANCH   1   4
BRANCH   2  14
ATOM     14  C   UNL d   1      45.719 -15.640  44.459  0.00  0.00     0.058 A 
ATOM     15  C   UNL d   1      46.267 -15.126  44.148  0.00  0.00     0.007 A 
ATOM     16  C   UNL d   1      46.156 -14.314  44.238  0.00  0.00     0.024 A 
ATOM     17  C   UNL d   1      45.503 -14.030  44.637  0.00  0.00     0.094 A 
ATOM     18  C   UNL d   1      44.955 -14.544  44.949  0.00  0.00     0.024 A 
ATOM     19  C   UNL d   1      45.046 -15.377  44.869  0.00  0.00     0.007 A 
BRANCH  17  20
ATOM     20  O   UNL d   1      45.399 -13.211  44.724  0.00  0.00    -0.328 OA
ATOM     21  C   UNL d   1      45.518 -12.598  44.104  0.00  0.00     0.181 C 
ENDBRANCH  17  20
ENDBRANCH   2  14
TORSDOF 3
ENDMDL
