MODEL 1
REMARK VINA RESULT:      23.9      0.000      0.000
REMARK  4 active torsions:
REMARK  status: ('A' for Active; 'I' for Inactive)
REMARK    1  A    between atoms: N_5  and  C_1 
REMARK    2  A    between atoms: N_8  and  C_3 
REMARK    3  A    between atoms: C_19  and  N_8 
REMARK    4  A    between atoms: C_21  and  C_19 
ROOT
ATOM      1  C   UNL d   1      46.193 -18.162  42.229  0.00  0.00     0.200 A 
ATOM      2  C   UNL d   1      46.236 -18.951  41.994  0.00  0.00     0.288 A 
ATOM      3  C   UNL d   1      46.273 -17.953  43.031  0.00  0.00     0.109 A 
ATOM      4  N   UNL d   1      46.361 -19.541  42.565  0.00  0.00    -0.270 N 
ATOM      5  C   UNL d   1      46.398 -18.550  43.596  0.00  0.00     0.036 A 
ATOM      6  C   UNL d   1      46.441 -19.342  43.362  0.00  0.00     0.069 A 
ATOM      7  O   UNL d   1      46.155 -19.150  41.199  0.00  0.00    -0.265 OA
ATOM      8  C   UNL d   1      46.404 -20.329  42.331  0.00  0.00     0.102 C 
ATOM      9  C   UNL d   1      46.479 -18.351  44.392  0.00  0.00     0.003 A 
ATOM     10  C   UNL d   1      46.565 -19.931  43.924  0.00  0.00     0.018 A 
ATOM     11  C   UNL d   1      46.603 -18.943  44.955  0.00  0.00     0.000 A 
ATOM     12  C   UNL d   1      46.646 -19.732  44.721  0.00  0.00     0.002 A 
ENDROOT
BRANCH   3  13
ATOM     13  N   UNL d   1      46.230 -17.166  43.267  0.00  0.00    -0.242 NA
BRANCH  13  14
ATOM     14  C   UNL d   1      45.503 -16.834  43.471  0.00  0.00     0.099 C 
BRANCH  14  15
ATOM     15  C   UNL d   1      45.476 -16.109  43.862  0.00  0.00     0.021 A 
ATOM     16  C   UNL d   1      46.090 -15.570  43.767  0.00  0.00     0.028 A 
ATOM     17  C   UNL d   1      46.063 -14.845  44.158  0.00  0.00     0.119 A 
ATOM     18  O   UNL d   1      46.578 -14.209  44.173  0.00  0.00    -0.300 OA
ATOM     19  C   UNL d   1      45.421 -14.661  44.642  0.00  0.00     0.119 A 
ATOM     20  C   UNL d   1      46.263 -13.628  44.664  0.00  0.00     0.304 A 
ATOM     21  O   UNL d   1      45.545 -13.913  44.954  0.00  0.00    -0.300 OA
ATOM     22  C   UNL d   1      44.803 -15.208  44.735  0.00  0.00     0.026 A 
ATOM     23  C   UNL d   1      44.831 -15.932  44.345  0.00  0.00     0.004 A 
ENDBRANCH  14  15
ENDBRANCH  13  14
ENDBRANCH   3  13
BRANCH   1  24
ATOM     24  N   UNL d   1      46.068 -17.566  41.665  0.00  0.00    -0.107 N 
ATOM     25  O   UNL d   1      46.635 -16.979  41.557  0.00  0.00    -0.531 OA
ATOM     26  O   UNL d   1      45.376 -17.561  41.211  0.00  0.00    -0.531 OA
ENDBRANCH   1  24
TORSDOF 4
ENDMDL
