MODEL 1
REMARK VINA RESULT:      -3.3      0.000      0.000
REMARK  1 active torsions:
REMARK  status: ('A' for Active; 'I' for Inactive)
REMARK       I    between atoms: N_2  and  C_1 
REMARK       I    between atoms: N_4  and  C_1 
REMARK    1  A    between atoms: C_5  and  N_3 
ROOT
ATOM      1  C   UNL d   1      32.991  21.336 -20.325  0.00  0.00     0.340 C 
ATOM      2  N   UNL d   1      32.990  20.821 -20.988  0.00  0.00    -0.254 N 
ATOM      3  N   UNL d   1      32.987  19.814 -22.283  0.00  0.00    -0.301 N 
ATOM      4  N   UNL d   1      32.748  22.126 -20.404  0.00  0.00    -0.253 N 
ATOM      5  O   UNL d   1      33.239  21.048 -19.583  0.00  0.00    -0.245 OA
ATOM      6  C   UNL d   1      32.746  21.103 -21.719  0.00  0.00     0.104 A 
ATOM      7  C   UNL d   1      33.236  20.033 -20.888  0.00  0.00     0.104 A 
ATOM      8  C   UNL d   1      33.235  19.528 -21.538  0.00  0.00     0.100 A 
ATOM      9  C   UNL d   1      32.745  20.598 -22.369  0.00  0.00     0.100 A 
ATOM     10  O   UNL d   1      32.268  23.692 -20.558  0.00  0.00    -0.300 OA
ATOM     11  C   UNL d   1      32.754  22.624 -19.743  0.00  0.00     0.111 A 
ATOM     12  C   UNL d   1      32.505  22.405 -21.139  0.00  0.00     0.111 A 
ATOM     13  C   UNL d   1      32.262  23.194 -21.218  0.00  0.00     0.142 A 
ATOM     14  C   UNL d   1      32.513  23.407 -19.824  0.00  0.00     0.142 A 
ENDROOT
BRANCH   3  15
ATOM     15  C   UNL d   1      32.983  19.313 -22.941  0.00  0.00     0.064 A 
ATOM     16  C   UNL d   1      33.113  19.632 -23.686  0.00  0.00     0.018 A 
ATOM     17  C   UNL d   1      33.110  19.133 -24.345  0.00  0.00     0.001 A 
ATOM     18  C   UNL d   1      33.239  19.448 -25.097  0.00  0.00     0.000 C 
ATOM     19  C   UNL d   1      32.976  18.317 -24.250  0.00  0.00     0.000 A 
ATOM     20  C   UNL d   1      32.846  18.003 -23.499  0.00  0.00     0.001 A 
ATOM     21  C   UNL d   1      32.850  18.505 -22.842  0.00  0.00     0.018 A 
ATOM     22  C   UNL d   1      32.714  17.193 -23.403  0.00  0.00     0.000 C 
ENDBRANCH   3  15
TORSDOF 1
ENDMDL
MODEL 2
REMARK VINA RESULT:      -2.8      1.783      4.554
REMARK  1 active torsions:
REMARK  status: ('A' for Active; 'I' for Inactive)
REMARK       I    between atoms: N_2  and  C_1 
REMARK       I    between atoms: N_4  and  C_1 
REMARK    1  A    between atoms: C_5  and  N_3 
ROOT
ATOM      1  C   UNL d   1      33.145  18.570 -22.680  0.00  0.00     0.340 C 
ATOM      2  N   UNL d   1      33.091  19.365 -22.419  0.00  0.00    -0.254 N 
ATOM      3  N   UNL d   1      32.986  20.921 -21.909  0.00  0.00    -0.301 N 
ATOM      4  N   UNL d   1      33.104  18.387 -23.488  0.00  0.00    -0.253 N 
ATOM      5  O   UNL d   1      33.241  17.961 -22.118  0.00  0.00    -0.245 OA
ATOM      6  C   UNL d   1      32.997  19.966 -22.970  0.00  0.00     0.104 A 
ATOM      7  C   UNL d   1      33.135  19.528 -21.604  0.00  0.00     0.104 A 
ATOM      8  C   UNL d   1      33.082  20.309 -21.348  0.00  0.00     0.100 A 
ATOM      9  C   UNL d   1      32.944  20.747 -22.714  0.00  0.00     0.100 A 
ATOM     10  O   UNL d   1      33.023  18.022 -25.090  0.00  0.00    -0.300 OA
ATOM     11  C   UNL d   1      33.159  17.598 -23.733  0.00  0.00     0.111 A 
ATOM     12  C   UNL d   1      33.010  18.992 -24.037  0.00  0.00     0.111 A 
ATOM     13  C   UNL d   1      32.968  18.810 -24.845  0.00  0.00     0.142 A 
ATOM     14  C   UNL d   1      33.118  17.419 -24.535  0.00  0.00     0.142 A 
ENDROOT
BRANCH   3  15
ATOM     15  C   UNL d   1      32.932  21.708 -21.660  0.00  0.00     0.064 A 
ATOM     16  C   UNL d   1      33.109  22.307 -22.191  0.00  0.00     0.018 A 
ATOM     17  C   UNL d   1      33.057  23.095 -21.946  0.00  0.00     0.001 A 
ATOM     18  C   UNL d   1      33.234  23.702 -22.475  0.00  0.00     0.000 C 
ATOM     19  C   UNL d   1      32.825  23.274 -21.166  0.00  0.00     0.000 A 
ATOM     20  C   UNL d   1      32.648  22.667 -20.636  0.00  0.00     0.001 A 
ATOM     21  C   UNL d   1      32.702  21.880 -20.887  0.00  0.00     0.018 A 
ATOM     22  C   UNL d   1      32.418  22.843 -19.862  0.00  0.00     0.000 C 
ENDBRANCH   3  15
TORSDOF 1
ENDMDL
MODEL 3
REMARK VINA RESULT:      -2.5      2.273      5.012
REMARK  1 active torsions:
REMARK  status: ('A' for Active; 'I' for Inactive)
REMARK       I    between atoms: N_2  and  C_1 
REMARK       I    between atoms: N_4  and  C_1 
REMARK    1  A    between atoms: C_5  and  N_3 
ROOT
ATOM      1  C   UNL d   1      32.956  18.211 -24.283  0.00  0.00     0.340 C 
ATOM      2  N   UNL d   1      32.997  18.840 -23.729  0.00  0.00    -0.254 N 
ATOM      3  N   UNL d   1      33.077  20.071 -22.647  0.00  0.00    -0.301 N 
ATOM      4  N   UNL d   1      32.754  17.445 -24.037  0.00  0.00    -0.253 N 
ATOM      5  O   UNL d   1      33.120  18.362 -25.087  0.00  0.00    -0.245 OA
ATOM      6  C   UNL d   1      32.835  18.695 -22.938  0.00  0.00     0.104 A 
ATOM      7  C   UNL d   1      33.201  19.602 -23.996  0.00  0.00     0.104 A 
ATOM      8  C   UNL d   1      33.241  20.219 -23.453  0.00  0.00     0.100 A 
ATOM      9  C   UNL d   1      32.875  19.312 -22.395  0.00  0.00     0.100 A 
ATOM     10  O   UNL d   1      32.354  15.925 -23.551  0.00  0.00    -0.300 OA
ATOM     11  C   UNL d   1      32.717  16.833 -24.592  0.00  0.00     0.111 A 
ATOM     12  C   UNL d   1      32.592  17.302 -23.243  0.00  0.00     0.111 A 
ATOM     13  C   UNL d   1      32.391  16.537 -22.996  0.00  0.00     0.142 A 
ATOM     14  C   UNL d   1      32.516  16.074 -24.346  0.00  0.00     0.142 A 
ENDROOT
BRANCH   3  15
ATOM     15  C   UNL d   1      33.115  20.686 -22.095  0.00  0.00     0.064 A 
ATOM     16  C   UNL d   1      33.158  20.502 -21.297  0.00  0.00     0.018 A 
ATOM     17  C   UNL d   1      33.197  21.115 -20.742  0.00  0.00     0.001 A 
ATOM     18  C   UNL d   1      33.241  20.937 -19.938  0.00  0.00     0.000 C 
ATOM     19  C   UNL d   1      33.191  21.908 -20.996  0.00  0.00     0.000 A 
ATOM     20  C   UNL d   1      33.147  22.085 -21.801  0.00  0.00     0.001 A 
ATOM     21  C   UNL d   1      33.109  21.470 -22.351  0.00  0.00     0.018 A 
ATOM     22  C   UNL d   1      33.141  22.872 -22.054  0.00  0.00     0.000 C 
ENDBRANCH   3  15
TORSDOF 1
ENDMDL
MODEL 4
REMARK VINA RESULT:      -2.5      2.776      5.069
REMARK  1 active torsions:
REMARK  status: ('A' for Active; 'I' for Inactive)
REMARK       I    between atoms: N_2  and  C_1 
REMARK       I    between atoms: N_4  and  C_1 
REMARK    1  A    between atoms: C_5  and  N_3 
ROOT
ATOM      1  C   UNL d   1      32.022  16.757 -23.812  0.00  0.00     0.340 C 
ATOM      2  N   UNL d   1      32.231  17.503 -23.492  0.00  0.00    -0.254 N 
ATOM      3  N   UNL d   1      32.640  18.964 -22.865  0.00  0.00    -0.301 N 
ATOM      4  N   UNL d   1      31.308  16.658 -24.223  0.00  0.00    -0.253 N 
ATOM      5  O   UNL d   1      32.540  16.110 -23.715  0.00  0.00    -0.245 OA
ATOM      6  C   UNL d   1      31.723  18.141 -23.586  0.00  0.00     0.104 A 
ATOM      7  C   UNL d   1      32.952  17.581 -23.084  0.00  0.00     0.104 A 
ATOM      8  C   UNL d   1      33.157  18.314 -22.769  0.00  0.00     0.100 A 
ATOM      9  C   UNL d   1      31.928  18.873 -23.272  0.00  0.00     0.100 A 
ATOM     10  O   UNL d   1      29.892  16.461 -25.037  0.00  0.00    -0.300 OA
ATOM     11  C   UNL d   1      31.113  15.917 -24.534  0.00  0.00     0.111 A 
ATOM     12  C   UNL d   1      30.801  17.300 -24.315  0.00  0.00     0.111 A 
ATOM     13  C   UNL d   1      30.087  17.202 -24.725  0.00  0.00     0.142 A 
ATOM     14  C   UNL d   1      30.404  15.822 -24.941  0.00  0.00     0.142 A 
ENDROOT
BRANCH   3  15
ATOM     15  C   UNL d   1      32.839  19.703 -22.552  0.00  0.00     0.064 A 
ATOM     16  C   UNL d   1      32.939  20.337 -23.062  0.00  0.00     0.018 A 
ATOM     17  C   UNL d   1      33.139  21.078 -22.753  0.00  0.00     0.001 A 
ATOM     18  C   UNL d   1      33.241  21.720 -23.261  0.00  0.00     0.000 C 
ATOM     19  C   UNL d   1      33.235  21.174 -21.931  0.00  0.00     0.000 A 
ATOM     20  C   UNL d   1      33.133  20.532 -21.424  0.00  0.00     0.001 A 
ATOM     21  C   UNL d   1      32.933  19.793 -21.738  0.00  0.00     0.018 A 
ATOM     22  C   UNL d   1      33.228  20.626 -20.608  0.00  0.00     0.000 C 
ENDBRANCH   3  15
TORSDOF 1
ENDMDL
MODEL 5
REMARK VINA RESULT:      -1.6      1.281      2.016
REMARK  1 active torsions:
REMARK  status: ('A' for Active; 'I' for Inactive)
REMARK       I    between atoms: N_2  and  C_1 
REMARK       I    between atoms: N_4  and  C_1 
REMARK    1  A    between atoms: C_5  and  N_3 
ROOT
ATOM      1  C   UNL d   1      33.098  20.789 -21.634  0.00  0.00     0.340 C 
ATOM      2  N   UNL d   1      33.012  20.056 -22.034  0.00  0.00    -0.254 N 
ATOM      3  N   UNL d   1      32.843  18.623 -22.815  0.00  0.00    -0.301 N 
ATOM      4  N   UNL d   1      33.116  21.501 -22.058  0.00  0.00    -0.253 N 
ATOM      5  O   UNL d   1      33.166  20.796 -20.803  0.00  0.00    -0.245 OA
ATOM      6  C   UNL d   1      32.945  20.046 -22.852  0.00  0.00     0.104 A 
ATOM      7  C   UNL d   1      32.996  19.352 -21.590  0.00  0.00     0.104 A 
ATOM      8  C   UNL d   1      32.911  18.633 -21.982  0.00  0.00     0.100 A 
ATOM      9  C   UNL d   1      32.860  19.327 -23.244  0.00  0.00     0.100 A 
ATOM     10  O   UNL d   1      33.152  22.915 -22.898  0.00  0.00    -0.300 OA
ATOM     11  C   UNL d   1      33.202  22.217 -21.653  0.00  0.00     0.111 A 
ATOM     12  C   UNL d   1      33.049  21.488 -22.878  0.00  0.00     0.111 A 
ATOM     13  C   UNL d   1      33.066  22.199 -23.303  0.00  0.00     0.142 A 
ATOM     14  C   UNL d   1      33.219  22.923 -22.076  0.00  0.00     0.142 A 
ENDROOT
BRANCH   3  15
ATOM     15  C   UNL d   1      32.757  17.905 -23.216  0.00  0.00     0.064 A 
ATOM     16  C   UNL d   1      33.041  17.218 -22.867  0.00  0.00     0.018 A 
ATOM     17  C   UNL d   1      32.958  16.498 -23.265  0.00  0.00     0.001 A 
ATOM     18  C   UNL d   1      33.241  15.804 -22.920  0.00  0.00     0.000 C 
ATOM     19  C   UNL d   1      32.589  16.474 -24.011  0.00  0.00     0.000 A 
ATOM     20  C   UNL d   1      32.306  17.168 -24.356  0.00  0.00     0.001 A 
ATOM     21  C   UNL d   1      32.391  17.886 -23.955  0.00  0.00     0.018 A 
ATOM     22  C   UNL d   1      31.939  17.146 -25.097  0.00  0.00     0.000 C 
ENDBRANCH   3  15
TORSDOF 1
ENDMDL
MODEL 6
REMARK VINA RESULT:      -0.7      1.805      2.666
REMARK  1 active torsions:
REMARK  status: ('A' for Active; 'I' for Inactive)
REMARK       I    between atoms: N_2  and  C_1 
REMARK       I    between atoms: N_4  and  C_1 
REMARK    1  A    between atoms: C_5  and  N_3 
ROOT
ATOM      1  C   UNL d   1      32.951  21.622 -19.993  0.00  0.00     0.340 C 
ATOM      2  N   UNL d   1      33.000  21.730 -20.824  0.00  0.00    -0.254 N 
ATOM      3  N   UNL d   1      33.097  21.942 -22.448  0.00  0.00    -0.301 N 
ATOM      4  N   UNL d   1      32.855  22.273 -19.488  0.00  0.00    -0.253 N 
ATOM      5  O   UNL d   1      32.998  20.852 -19.678  0.00  0.00    -0.245 OA
ATOM      6  C   UNL d   1      32.954  22.488 -21.137  0.00  0.00     0.104 A 
ATOM      7  C   UNL d   1      33.095  21.065 -21.314  0.00  0.00     0.104 A 
ATOM      8  C   UNL d   1      33.144  21.171 -22.129  0.00  0.00     0.100 A 
ATOM      9  C   UNL d   1      33.002  22.594 -21.952  0.00  0.00     0.100 A 
ATOM     10  O   UNL d   1      32.667  23.562 -18.484  0.00  0.00    -0.300 OA
ATOM     11  C   UNL d   1      32.808  22.153 -18.671  0.00  0.00     0.111 A 
ATOM     12  C   UNL d   1      32.809  23.031 -19.805  0.00  0.00     0.111 A 
ATOM     13  C   UNL d   1      32.714  23.682 -19.301  0.00  0.00     0.142 A 
ATOM     14  C   UNL d   1      32.714  22.801 -18.171  0.00  0.00     0.142 A 
ENDROOT
BRANCH   3  15
ATOM     15  C   UNL d   1      33.145  22.056 -23.266  0.00  0.00     0.064 A 
ATOM     16  C   UNL d   1      33.168  21.400 -23.759  0.00  0.00     0.018 A 
ATOM     17  C   UNL d   1      33.216  21.511 -24.577  0.00  0.00     0.001 A 
ATOM     18  C   UNL d   1      33.239  20.856 -25.078  0.00  0.00     0.000 C 
ATOM     19  C   UNL d   1      33.240  22.281 -24.893  0.00  0.00     0.000 A 
ATOM     20  C   UNL d   1      33.217  22.936 -24.392  0.00  0.00     0.001 A 
ATOM     21  C   UNL d   1      33.169  22.820 -23.574  0.00  0.00     0.018 A 
ATOM     22  C   UNL d   1      33.241  23.701 -24.704  0.00  0.00     0.000 C 
ENDBRANCH   3  15
TORSDOF 1
ENDMDL
