MODEL 1
REMARK VINA RESULT:      37.8      0.000      0.000
REMARK  2 active torsions:
REMARK  status: ('A' for Active; 'I' for Inactive)
REMARK    1  A    between atoms: C_2  and  C_1 
REMARK    2  A    between atoms: C_14  and  N_5 
ROOT
ATOM      1  C   UNL d   1      14.355  12.958  -1.839  0.00  0.00     0.117 A 
ATOM      2  N   UNL d   1      14.307  12.992  -2.675  0.00  0.00    -0.164 NA
ATOM      3  C   UNL d   1      13.949  12.297  -1.587  0.00  0.00     0.107 A 
ATOM      4  N   UNL d   1      13.872  12.353  -2.921  0.00  0.00    -0.228 N 
ATOM      5  C   UNL d   1      13.648  11.918  -2.244  0.00  0.00     0.112 A 
ATOM      6  C   UNL d   1      13.848  12.039  -0.800  0.00  0.00     0.104 C 
ATOM      7  N   UNL d   1      13.749  11.784  -0.017  0.00  0.00    -0.191 NA
ENDROOT
BRANCH   1   8
ATOM      8  C   UNL d   1      14.764  13.530  -1.387  0.00  0.00     0.084 A 
ATOM      9  C   UNL d   1      15.363  13.278  -0.847  0.00  0.00     0.302 A 
ATOM     10  O   UNL d   1      15.766  13.819  -0.403  0.00  0.00    -0.273 OA
ATOM     11  O   UNL d   1      15.540  12.478  -0.768  0.00  0.00    -0.259 OA
ATOM     12  C   UNL d   1      15.602  14.632  -0.468  0.00  0.00     0.103 A 
ATOM     13  C   UNL d   1      15.016  14.876  -0.998  0.00  0.00     0.023 A 
ATOM     14  C   UNL d   1      16.014  15.168  -0.017  0.00  0.00     0.025 A 
ATOM     15  C   UNL d   1      14.600  14.328  -1.454  0.00  0.00     0.009 A 
ATOM     16  C   UNL d   1      14.853  15.685  -1.063  0.00  0.00     0.002 A 
ATOM     17  C   UNL d   1      15.269  16.218  -0.608  0.00  0.00     0.000 A 
ATOM     18  C   UNL d   1      15.850  15.974  -0.083  0.00  0.00     0.002 A 
ENDBRANCH   1   8
BRANCH   4  19
ATOM     19  C   UNL d   1      13.697  12.185  -3.712  0.00  0.00     0.083 A 
ATOM     20  C   UNL d   1      12.939  11.946  -3.935  0.00  0.00     0.019 A 
ATOM     21  C   UNL d   1      12.776  11.783  -4.719  0.00  0.00     0.002 A 
ATOM     22  C   UNL d   1      13.363  11.857  -5.282  0.00  0.00     0.000 A 
ATOM     23  C   UNL d   1      14.144  12.100  -5.074  0.00  0.00     0.002 A 
ATOM     24  C   UNL d   1      14.298  12.263  -4.271  0.00  0.00     0.019 A 
ENDBRANCH   4  19
TORSDOF 2
ENDMDL
