MODEL 1
REMARK VINA RESULT:      -0.1      0.000      0.000
REMARK  9 active torsions:
REMARK  status: ('A' for Active; 'I' for Inactive)
REMARK    1  A    between atoms: C_12  and  N_1 
REMARK    2  A    between atoms: S_7  and  C_2 
REMARK    3  A    between atoms: C_15  and  S_7 
REMARK    4  A    between atoms: C_9  and  C_15 
REMARK    5  A    between atoms: O_14  and  C_9 
REMARK       I    between atoms: C_10  and  N_16 
REMARK    6  A    between atoms: C_19  and  C_12 
REMARK    7  A    between atoms: C_18  and  O_14 
REMARK    8  A    between atoms: N_16  and  C_19 
REMARK    9  A    between atoms: C_20  and  C_18 
ROOT
ATOM      1  N   UNL d   1      31.596  17.431 -24.722  0.00  0.00    -0.251 N 
ATOM      2  C   UNL d   1      31.548  18.241 -24.573  0.00  0.00     0.182 A 
ATOM      3  C   UNL d   1      30.904  16.986 -24.849  0.00  0.00     0.268 A 
ATOM      4  N   UNL d   1      30.809  18.618 -24.549  0.00  0.00    -0.222 NA
ATOM      5  C   UNL d   1      30.166  17.367 -24.824  0.00  0.00     0.074 A 
ATOM      6  C   UNL d   1      30.118  18.177 -24.675  0.00  0.00     0.088 A 
ATOM      7  O   UNL d   1      30.952  16.168 -25.000  0.00  0.00    -0.267 OA
ATOM      8  C   UNL d   1      29.472  16.922 -24.951  0.00  0.00     0.006 A 
ATOM      9  C   UNL d   1      29.377  18.554 -24.651  0.00  0.00     0.019 A 
ATOM     10  C   UNL d   1      28.733  17.302 -24.926  0.00  0.00     0.000 A 
ATOM     11  C   UNL d   1      28.685  18.112 -24.777  0.00  0.00     0.002 A 
ENDROOT
BRANCH   2  12
ATOM     12  S   UNL d   1      32.246  18.693 -24.445  0.00  0.00    -0.044 SA
BRANCH  12  13
ATOM     13  C   UNL d   1      32.205  19.443 -24.069  0.00  0.00     0.107 C 
BRANCH  13  14
ATOM     14  C   UNL d   1      32.870  19.932 -24.052  0.00  0.00     0.307 C 
ATOM     15  O   UNL d   1      33.232  20.162 -24.755  0.00  0.00    -0.258 OA
BRANCH  14  16
ATOM     16  O   UNL d   1      33.170  20.191 -23.320  0.00  0.00    -0.271 OA
BRANCH  16  17
ATOM     17  C   UNL d   1      33.034  20.967 -23.078  0.00  0.00     0.126 C 
BRANCH  17  18
ATOM     18  C   UNL d   1      33.001  21.142 -22.276  0.00  0.00     0.025 A 
ATOM     19  C   UNL d   1      33.112  20.546 -21.716  0.00  0.00     0.002 A 
ATOM     20  C   UNL d   1      33.079  20.721 -20.917  0.00  0.00     0.000 A 
ATOM     21  C   UNL d   1      32.937  21.493 -20.666  0.00  0.00     0.000 A 
ATOM     22  C   UNL d   1      32.825  22.096 -21.229  0.00  0.00     0.000 A 
ATOM     23  C   UNL d   1      32.859  21.915 -22.033  0.00  0.00     0.002 A 
ENDBRANCH  17  18
ENDBRANCH  16  17
ENDBRANCH  14  16
ENDBRANCH  13  14
ENDBRANCH  12  13
ENDBRANCH   2  12
BRANCH   1  24
ATOM     24  C   UNL d   1      32.342  17.051 -24.747  0.00  0.00     0.106 C 
BRANCH  24  25
ATOM     25  C   UNL d   1      32.798  16.968 -24.065  0.00  0.00     0.121 C 
BRANCH  25  26
ATOM     26  N   UNL d   1      32.888  16.230 -23.692  0.00  0.00    -0.205 NA
ATOM     27  C   UNL d   1      33.108  16.187 -22.893  0.00  0.00     0.280 C 
ATOM     28  O   UNL d   1      33.240  16.879 -22.464  0.00  0.00    -0.265 OA
ATOM     29  C   UNL d   1      33.195  15.454 -22.529  0.00  0.00     0.068 C 
ENDBRANCH  25  26
ENDBRANCH  24  25
ENDBRANCH   1  24
TORSDOF 9
ENDMDL
