MODEL 1
REMARK VINA RESULT:      85.3      0.000      0.000
REMARK  6 active torsions:
REMARK  status: ('A' for Active; 'I' for Inactive)
REMARK    1  A    between atoms: C_2  and  S_1 
REMARK    2  A    between atoms: C_13  and  S_1 
REMARK    3  A    between atoms: C_5  and  C_3 
REMARK    4  A    between atoms: C_19  and  C_5 
REMARK    5  A    between atoms: O_25  and  C_22 
REMARK    6  A    between atoms: C_30  and  O_25 
ROOT
ATOM      1  C   UNL d   1      14.029  14.505  -3.320  0.00  0.00     0.094 A 
ATOM      2  C   UNL d   1      14.148  14.501  -2.498  0.00  0.00     0.069 A 
ATOM      3  C   UNL d   1      13.770  13.825  -3.704  0.00  0.00     0.031 A 
ATOM      4  C   UNL d   1      13.627  13.135  -3.272  0.00  0.00     0.084 A 
ATOM      5  C   UNL d   1      13.653  13.833  -4.519  0.00  0.00     0.029 A 
ATOM      6  N   UNL d   1      13.744  13.127  -2.458  0.00  0.00    -0.244 NA
ATOM      7  C   UNL d   1      14.006  13.811  -2.067  0.00  0.00     0.103 A 
ATOM      8  C   UNL d   1      13.368  12.455  -3.657  0.00  0.00     0.046 A 
ATOM      9  C   UNL d   1      13.394  13.153  -4.903  0.00  0.00     0.123 A 
ATOM     10  C   UNL d   1      13.251  12.463  -4.471  0.00  0.00     0.124 A 
ATOM     11  O   UNL d   1      13.277  13.160  -5.718  0.00  0.00    -0.301 OA
ATOM     12  O   UNL d   1      12.992  11.783  -4.856  0.00  0.00    -0.301 OA
ATOM     13  C   UNL d   1      12.874  11.788  -5.674  0.00  0.00     0.149 A 
ATOM     14  C   UNL d   1      13.017  12.478  -6.106  0.00  0.00     0.149 A 
ENDROOT
BRANCH   1  15
ATOM     15  S   UNL d   1      14.169  15.188  -3.761  0.00  0.00     0.210 S 
ATOM     16  O   UNL d   1      13.358  15.312  -3.848  0.00  0.00    -0.217 OA
ATOM     17  O   UNL d   1      14.980  15.064  -3.674  0.00  0.00    -0.217 OA
BRANCH  15  18
ATOM     18  C   UNL d   1      14.320  15.870  -4.201  0.00  0.00     0.088 A 
ATOM     19  C   UNL d   1      13.709  16.217  -4.637  0.00  0.00     0.013 A 
ATOM     20  C   UNL d   1      13.861  16.903  -5.080  0.00  0.00     0.025 A 
ATOM     21  C   UNL d   1      14.615  17.232  -5.083  0.00  0.00     0.100 A 
ATOM     22  C   UNL d   1      15.227  16.888  -4.648  0.00  0.00     0.025 A 
ATOM     23  C   UNL d   1      15.075  16.199  -4.203  0.00  0.00     0.013 A 
BRANCH  21  24
ATOM     24  O   UNL d   1      14.775  17.920  -5.524  0.00  0.00    -0.305 OA
BRANCH  24  25
ATOM     25  C   UNL d   1      14.279  18.576  -5.475  0.00  0.00     0.123 C 
ATOM     26  C   UNL d   1      14.511  19.291  -5.810  0.00  0.00     0.029 C 
ENDBRANCH  24  25
ENDBRANCH  21  24
ENDBRANCH  15  18
ENDBRANCH   1  15
BRANCH   2  27
ATOM     27  C   UNL d   1      14.409  15.183  -2.110  0.00  0.00     0.198 C 
ATOM     28  O   UNL d   1      14.229  15.930  -2.412  0.00  0.00    -0.286 OA
BRANCH  27  29
ATOM     29  C   UNL d   1      14.851  15.117  -1.417  0.00  0.00     0.039 A 
ATOM     30  C   UNL d   1      14.967  14.376  -1.060  0.00  0.00     0.003 A 
ATOM     31  C   UNL d   1      15.409  14.308  -0.367  0.00  0.00     0.000 A 
ATOM     32  C   UNL d   1      15.742  14.978  -0.018  0.00  0.00     0.000 A 
ATOM     33  C   UNL d   1      15.626  15.724  -0.376  0.00  0.00     0.000 A 
ATOM     34  C   UNL d   1      15.185  15.795  -1.068  0.00  0.00     0.003 A 
ENDBRANCH  27  29
ENDBRANCH   2  27
TORSDOF 6
ENDMDL
MODEL 2
REMARK VINA RESULT:      85.6      0.954      3.702
REMARK  6 active torsions:
REMARK  status: ('A' for Active; 'I' for Inactive)
REMARK    1  A    between atoms: C_2  and  S_1 
REMARK    2  A    between atoms: C_13  and  S_1 
REMARK    3  A    between atoms: C_5  and  C_3 
REMARK    4  A    between atoms: C_19  and  C_5 
REMARK    5  A    between atoms: O_25  and  C_22 
REMARK    6  A    between atoms: C_30  and  O_25 
ROOT
ATOM      1  C   UNL d   1      13.929  14.991  -3.389  0.00  0.00     0.094 A 
ATOM      2  C   UNL d   1      13.566  14.257  -3.528  0.00  0.00     0.069 A 
ATOM      3  C   UNL d   1      14.267  15.153  -2.656  0.00  0.00     0.031 A 
ATOM      4  C   UNL d   1      14.247  14.585  -2.057  0.00  0.00     0.084 A 
ATOM      5  C   UNL d   1      14.625  15.882  -2.522  0.00  0.00     0.029 A 
ATOM      6  N   UNL d   1      13.889  13.857  -2.191  0.00  0.00    -0.244 NA
ATOM      7  C   UNL d   1      13.547  13.689  -2.929  0.00  0.00     0.103 A 
ATOM      8  C   UNL d   1      14.585  14.748  -1.324  0.00  0.00     0.046 A 
ATOM      9  C   UNL d   1      14.963  16.044  -1.789  0.00  0.00     0.123 A 
ATOM     10  C   UNL d   1      14.943  15.476  -1.190  0.00  0.00     0.124 A 
ATOM     11  O   UNL d   1      15.321  16.773  -1.655  0.00  0.00    -0.301 OA
ATOM     12  O   UNL d   1      15.282  15.639  -0.457  0.00  0.00    -0.301 OA
ATOM     13  C   UNL d   1      15.642  16.370  -0.320  0.00  0.00     0.149 A 
ATOM     14  C   UNL d   1      15.662  16.938  -0.919  0.00  0.00     0.149 A 
ENDROOT
BRANCH   1  15
ATOM     15  S   UNL d   1      13.954  15.566  -3.980  0.00  0.00     0.210 S 
ATOM     16  O   UNL d   1      13.153  15.731  -3.871  0.00  0.00    -0.217 OA
ATOM     17  O   UNL d   1      14.755  15.400  -4.089  0.00  0.00    -0.217 OA
BRANCH  15  18
ATOM     18  C   UNL d   1      13.992  16.138  -4.573  0.00  0.00     0.088 A 
ATOM     19  C   UNL d   1      14.715  16.296  -4.942  0.00  0.00     0.013 A 
ATOM     20  C   UNL d   1      14.753  16.872  -5.539  0.00  0.00     0.025 A 
ATOM     21  C   UNL d   1      14.074  17.281  -5.760  0.00  0.00     0.100 A 
ATOM     22  C   UNL d   1      13.350  17.126  -5.394  0.00  0.00     0.025 A 
ATOM     23  C   UNL d   1      13.312  16.547  -4.794  0.00  0.00     0.013 A 
BRANCH  21  24
ATOM     24  O   UNL d   1      14.104  17.860  -6.358  0.00  0.00    -0.305 OA
BRANCH  24  25
ATOM     25  C   UNL d   1      13.541  18.461  -6.389  0.00  0.00     0.123 C 
ATOM     26  C   UNL d   1      13.757  19.234  -6.202  0.00  0.00     0.029 C 
ENDBRANCH  24  25
ENDBRANCH  21  24
ENDBRANCH  15  18
ENDBRANCH   1  15
BRANCH   2  27
ATOM     27  C   UNL d   1      13.226  14.092  -4.264  0.00  0.00     0.198 C 
ATOM     28  O   UNL d   1      12.855  14.689  -4.696  0.00  0.00    -0.286 OA
BRANCH  27  29
ATOM     29  C   UNL d   1      13.258  13.325  -4.567  0.00  0.00     0.039 A 
ATOM     30  C   UNL d   1      13.592  13.180  -5.313  0.00  0.00     0.003 A 
ATOM     31  C   UNL d   1      13.624  12.414  -5.617  0.00  0.00     0.000 A 
ATOM     32  C   UNL d   1      13.324  11.780  -5.182  0.00  0.00     0.000 A 
ATOM     33  C   UNL d   1      12.987  11.925  -4.431  0.00  0.00     0.000 A 
ATOM     34  C   UNL d   1      12.954  12.688  -4.124  0.00  0.00     0.003 A 
ENDBRANCH  27  29
ENDBRANCH   2  27
TORSDOF 6
ENDMDL
MODEL 3
REMARK VINA RESULT:      87.0      1.323      4.874
REMARK  6 active torsions:
REMARK  status: ('A' for Active; 'I' for Inactive)
REMARK    1  A    between atoms: C_2  and  S_1 
REMARK    2  A    between atoms: C_13  and  S_1 
REMARK    3  A    between atoms: C_5  and  C_3 
REMARK    4  A    between atoms: C_19  and  C_5 
REMARK    5  A    between atoms: O_25  and  C_22 
REMARK    6  A    between atoms: C_30  and  O_25 
ROOT
ATOM      1  C   UNL d   1      14.555  16.228  -3.851  0.00  0.00     0.094 A 
ATOM      2  C   UNL d   1      14.673  16.843  -4.396  0.00  0.00     0.069 A 
ATOM      3  C   UNL d   1      14.784  16.321  -3.066  0.00  0.00     0.031 A 
ATOM      4  C   UNL d   1      15.133  17.027  -2.818  0.00  0.00     0.084 A 
ATOM      5  C   UNL d   1      14.665  15.708  -2.529  0.00  0.00     0.029 A 
ATOM      6  N   UNL d   1      15.251  17.639  -3.355  0.00  0.00    -0.244 NA
ATOM      7  C   UNL d   1      15.022  17.549  -4.148  0.00  0.00     0.103 A 
ATOM      8  C   UNL d   1      15.362  17.119  -2.032  0.00  0.00     0.046 A 
ATOM      9  C   UNL d   1      14.894  15.801  -1.744  0.00  0.00     0.123 A 
ATOM     10  C   UNL d   1      15.243  16.508  -1.495  0.00  0.00     0.124 A 
ATOM     11  O   UNL d   1      14.775  15.189  -1.206  0.00  0.00    -0.301 OA
ATOM     12  O   UNL d   1      15.472  16.600  -0.710  0.00  0.00    -0.301 OA
ATOM     13  C   UNL d   1      15.353  15.986  -0.168  0.00  0.00     0.149 A 
ATOM     14  C   UNL d   1      15.005  15.280  -0.417  0.00  0.00     0.149 A 
ENDROOT
BRANCH   1  15
ATOM     15  S   UNL d   1      14.208  15.518  -4.088  0.00  0.00     0.210 S 
ATOM     16  O   UNL d   1      14.894  15.304  -4.494  0.00  0.00    -0.217 OA
ATOM     17  O   UNL d   1      13.523  15.731  -3.682  0.00  0.00    -0.217 OA
BRANCH  15  18
ATOM     18  C   UNL d   1      13.851  14.811  -4.319  0.00  0.00     0.088 A 
ATOM     19  C   UNL d   1      14.220  14.333  -4.885  0.00  0.00     0.013 A 
ATOM     20  C   UNL d   1      13.861  13.622  -5.118  0.00  0.00     0.025 A 
ATOM     21  C   UNL d   1      13.143  13.396  -4.786  0.00  0.00     0.100 A 
ATOM     22  C   UNL d   1      12.771  13.870  -4.221  0.00  0.00     0.025 A 
ATOM     23  C   UNL d   1      13.132  14.585  -3.987  0.00  0.00     0.013 A 
BRANCH  21  24
ATOM     24  O   UNL d   1      12.776  12.683  -5.015  0.00  0.00    -0.305 OA
BRANCH  24  25
ATOM     25  C   UNL d   1      13.031  11.963  -4.707  0.00  0.00     0.123 C 
ATOM     26  C   UNL d   1      12.886  11.780  -3.918  0.00  0.00     0.029 C 
ENDBRANCH  24  25
ENDBRANCH  21  24
ENDBRANCH  15  18
ENDBRANCH   1  15
BRANCH   2  27
ATOM     27  C   UNL d   1      14.444  16.752  -5.185  0.00  0.00     0.198 C 
ATOM     28  O   UNL d   1      14.571  16.037  -5.578  0.00  0.00    -0.286 OA
BRANCH  27  29
ATOM     29  C   UNL d   1      14.086  17.380  -5.583  0.00  0.00     0.039 A 
ATOM     30  C   UNL d   1      14.545  17.996  -5.897  0.00  0.00     0.003 A 
ATOM     31  C   UNL d   1      14.189  18.625  -6.295  0.00  0.00     0.000 A 
ATOM     32  C   UNL d   1      13.369  18.649  -6.386  0.00  0.00     0.000 A 
ATOM     33  C   UNL d   1      12.906  18.030  -6.070  0.00  0.00     0.000 A 
ATOM     34  C   UNL d   1      13.258  17.401  -5.672  0.00  0.00     0.003 A 
ENDBRANCH  27  29
ENDBRANCH   2  27
TORSDOF 6
ENDMDL
