MODEL 1
REMARK VINA RESULT:      -8.0      0.000      0.000
REMARK  2 active torsions:
REMARK  status: ('A' for Active; 'I' for Inactive)
REMARK    1  A    between atoms: N_9  and  C_3 
REMARK    2  A    between atoms: C_11  and  C_4 
ROOT
ATOM      1  N   UNL d   1     -48.727  14.049  22.908  0.00  0.00    -0.196 N 
ATOM      2  C   UNL d   1     -48.221  13.404  22.901  0.00  0.00     0.167 A 
ATOM      3  C   UNL d   1     -49.535  13.942  23.042  0.00  0.00     0.153 A 
ATOM      4  C   UNL d   1     -47.462  13.677  22.757  0.00  0.00     0.057 A 
ATOM      5  N   UNL d   1     -48.283  14.723  22.769  0.00  0.00    -0.161 NA
ATOM      6  N   UNL d   1     -48.515  12.643  23.027  0.00  0.00    -0.227 NA
ATOM      7  C   UNL d   1     -49.831  13.179  23.169  0.00  0.00     0.057 A 
ATOM      8  C   UNL d   1     -47.499  14.487  22.675  0.00  0.00     0.124 A 
ATOM      9  C   UNL d   1     -49.324  12.534  23.162  0.00  0.00     0.086 A 
ATOM     10  C   UNL d   1     -49.631  11.768  23.290  0.00  0.00     0.021 C 
ENDROOT
BRANCH   3  11
ATOM     11  N   UNL d   1     -50.041  14.587  23.049  0.00  0.00    -0.285 N 
ATOM     12  C   UNL d   1     -50.556  14.720  22.413  0.00  0.00     0.108 A 
ATOM     13  C   UNL d   1     -51.064  15.368  22.421  0.00  0.00     0.142 A 
ATOM     14  O   UNL d   1     -51.062  15.887  23.064  0.00  0.00    -0.300 OA
ATOM     15  C   UNL d   1     -50.552  15.756  23.697  0.00  0.00     0.142 A 
ATOM     16  C   UNL d   1     -50.043  15.108  23.690  0.00  0.00     0.108 A 
ENDBRANCH   3  11
BRANCH   4  17
ATOM     17  C   UNL d   1     -46.738  13.290  22.689  0.00  0.00     0.004 A 
ATOM     18  C   UNL d   1     -46.422  12.866  23.333  0.00  0.00     0.000 A 
ATOM     19  C   UNL d   1     -45.700  12.483  23.258  0.00  0.00     0.000 A 
ATOM     20  C   UNL d   1     -45.279  12.514  22.542  0.00  0.00     0.000 A 
ATOM     21  C   UNL d   1     -45.592  12.934  21.905  0.00  0.00     0.000 A 
ATOM     22  C   UNL d   1     -46.320  13.323  21.975  0.00  0.00     0.000 A 
ENDBRANCH   4  17
TORSDOF 2
ENDMDL
MODEL 2
REMARK VINA RESULT:      -7.7      1.631      4.052
REMARK  2 active torsions:
REMARK  status: ('A' for Active; 'I' for Inactive)
REMARK    1  A    between atoms: N_9  and  C_3 
REMARK    2  A    between atoms: C_11  and  C_4 
ROOT
ATOM      1  N   UNL d   1     -47.890  13.610  22.835  0.00  0.00    -0.196 N 
ATOM      2  C   UNL d   1     -48.689  13.684  23.005  0.00  0.00     0.167 A 
ATOM      3  C   UNL d   1     -47.515  12.878  22.905  0.00  0.00     0.153 A 
ATOM      4  C   UNL d   1     -48.904  14.466  22.886  0.00  0.00     0.057 A 
ATOM      5  N   UNL d   1     -47.608  14.346  22.610  0.00  0.00    -0.161 NA
ATOM      6  N   UNL d   1     -49.124  13.026  23.249  0.00  0.00    -0.227 NA
ATOM      7  C   UNL d   1     -47.951  12.218  23.150  0.00  0.00     0.057 A 
ATOM      8  C   UNL d   1     -48.241  14.873  22.644  0.00  0.00     0.124 A 
ATOM      9  C   UNL d   1     -48.750  12.291  23.320  0.00  0.00     0.086 A 
ATOM     10  C   UNL d   1     -49.182  11.621  23.566  0.00  0.00     0.021 C 
ENDROOT
BRANCH   3  11
ATOM     11  N   UNL d   1     -46.717  12.804  22.735  0.00  0.00    -0.285 N 
ATOM     12  C   UNL d   1     -46.185  12.563  23.323  0.00  0.00     0.108 A 
ATOM     13  C   UNL d   1     -45.383  12.489  23.152  0.00  0.00     0.142 A 
ATOM     14  O   UNL d   1     -45.106  12.656  22.392  0.00  0.00    -0.300 OA
ATOM     15  C   UNL d   1     -45.632  12.896  21.805  0.00  0.00     0.142 A 
ATOM     16  C   UNL d   1     -46.435  12.970  21.976  0.00  0.00     0.108 A 
ENDBRANCH   3  11
BRANCH   4  17
ATOM     17  C   UNL d   1     -49.622  14.861  22.969  0.00  0.00     0.004 A 
ATOM     18  C   UNL d   1     -50.229  14.756  22.408  0.00  0.00     0.000 A 
ATOM     19  C   UNL d   1     -50.942  15.154  22.497  0.00  0.00     0.000 A 
ATOM     20  C   UNL d   1     -51.064  15.661  23.143  0.00  0.00     0.000 A 
ATOM     21  C   UNL d   1     -50.462  15.764  23.698  0.00  0.00     0.000 A 
ATOM     22  C   UNL d   1     -49.741  15.366  23.614  0.00  0.00     0.000 A 
ENDBRANCH   4  17
TORSDOF 2
ENDMDL
MODEL 3
REMARK VINA RESULT:      -7.4      2.060      4.459
REMARK  2 active torsions:
REMARK  status: ('A' for Active; 'I' for Inactive)
REMARK    1  A    between atoms: N_9  and  C_3 
REMARK    2  A    between atoms: C_11  and  C_4 
ROOT
ATOM      1  N   UNL d   1     -47.502  12.587  22.706  0.00  0.00    -0.196 N 
ATOM      2  C   UNL d   1     -48.089  13.145  22.576  0.00  0.00     0.167 A 
ATOM      3  C   UNL d   1     -46.739  12.826  22.913  0.00  0.00     0.153 A 
ATOM      4  C   UNL d   1     -48.779  12.748  22.381  0.00  0.00     0.057 A 
ATOM      5  N   UNL d   1     -47.826  11.843  22.591  0.00  0.00    -0.161 NA
ATOM      6  N   UNL d   1     -47.922  13.950  22.651  0.00  0.00    -0.227 NA
ATOM      7  C   UNL d   1     -46.571  13.634  22.989  0.00  0.00     0.057 A 
ATOM      8  C   UNL d   1     -48.619  11.949  22.390  0.00  0.00     0.124 A 
ATOM      9  C   UNL d   1     -47.158  14.191  22.859  0.00  0.00     0.086 A 
ATOM     10  C   UNL d   1     -46.980  15.003  22.938  0.00  0.00     0.021 C 
ENDROOT
BRANCH   3  11
ATOM     11  N   UNL d   1     -46.152  12.269  23.043  0.00  0.00    -0.285 N 
ATOM     12  C   UNL d   1     -46.282  11.641  23.567  0.00  0.00     0.108 A 
ATOM     13  C   UNL d   1     -45.692  11.081  23.698  0.00  0.00     0.142 A 
ATOM     14  O   UNL d   1     -44.968  11.145  23.304  0.00  0.00    -0.300 OA
ATOM     15  C   UNL d   1     -44.837  11.768  22.782  0.00  0.00     0.142 A 
ATOM     16  C   UNL d   1     -45.427  12.328  22.652  0.00  0.00     0.108 A 
ENDBRANCH   3  11
BRANCH   4  17
ATOM     17  C   UNL d   1     -49.536  13.013  22.195  0.00  0.00     0.004 A 
ATOM     18  C   UNL d   1     -49.729  13.229  21.414  0.00  0.00     0.000 A 
ATOM     19  C   UNL d   1     -50.487  13.493  21.237  0.00  0.00     0.000 A 
ATOM     20  C   UNL d   1     -51.064  13.546  21.831  0.00  0.00     0.000 A 
ATOM     21  C   UNL d   1     -50.872  13.331  22.605  0.00  0.00     0.000 A 
ATOM     22  C   UNL d   1     -50.110  13.065  22.790  0.00  0.00     0.000 A 
ENDBRANCH   4  17
TORSDOF 2
ENDMDL
MODEL 4
REMARK VINA RESULT:      -7.1      8.648     10.612
REMARK  2 active torsions:
REMARK  status: ('A' for Active; 'I' for Inactive)
REMARK    1  A    between atoms: N_9  and  C_3 
REMARK    2  A    between atoms: C_11  and  C_4 
ROOT
ATOM      1  N   UNL d   1     -39.614  15.055  17.777  0.00  0.00    -0.196 N 
ATOM      2  C   UNL d   1     -40.210  15.229  18.313  0.00  0.00     0.167 A 
ATOM      3  C   UNL d   1     -39.736  15.167  16.968  0.00  0.00     0.153 A 
ATOM      4  C   UNL d   1     -39.931  15.064  19.066  0.00  0.00     0.057 A 
ATOM      5  N   UNL d   1     -38.965  14.783  18.197  0.00  0.00    -0.161 NA
ATOM      6  N   UNL d   1     -40.936  15.517  18.048  0.00  0.00    -0.227 NA
ATOM      7  C   UNL d   1     -40.465  15.456  16.701  0.00  0.00     0.057 A 
ATOM      8  C   UNL d   1     -39.167  14.790  18.996  0.00  0.00     0.124 A 
ATOM      9  C   UNL d   1     -41.060  15.630  17.237  0.00  0.00     0.086 A 
ATOM     10  C   UNL d   1     -41.792  15.921  16.960  0.00  0.00     0.021 C 
ENDROOT
BRANCH   3  11
ATOM     11  N   UNL d   1     -39.140  14.993  16.432  0.00  0.00    -0.285 N 
ATOM     12  C   UNL d   1     -39.036  14.217  16.162  0.00  0.00     0.108 A 
ATOM     13  C   UNL d   1     -38.438  14.042  15.623  0.00  0.00     0.142 A 
ATOM     14  O   UNL d   1     -37.939  14.643  15.352  0.00  0.00    -0.300 OA
ATOM     15  C   UNL d   1     -38.041  15.415  15.619  0.00  0.00     0.142 A 
ATOM     16  C   UNL d   1     -38.640  15.590  16.158  0.00  0.00     0.108 A 
ENDBRANCH   3  11
BRANCH   4  17
ATOM     17  C   UNL d   1     -40.277  15.130  19.810  0.00  0.00     0.004 A 
ATOM     18  C   UNL d   1     -40.649  14.473  20.164  0.00  0.00     0.000 A 
ATOM     19  C   UNL d   1     -40.992  14.546  20.906  0.00  0.00     0.000 A 
ATOM     20  C   UNL d   1     -40.972  15.271  21.310  0.00  0.00     0.000 A 
ATOM     21  C   UNL d   1     -40.604  15.921  20.960  0.00  0.00     0.000 A 
ATOM     22  C   UNL d   1     -40.256  15.854  20.211  0.00  0.00     0.000 A 
ENDBRANCH   4  17
TORSDOF 2
ENDMDL
MODEL 5
REMARK VINA RESULT:      -6.7      8.112      9.635
REMARK  2 active torsions:
REMARK  status: ('A' for Active; 'I' for Inactive)
REMARK    1  A    between atoms: N_9  and  C_3 
REMARK    2  A    between atoms: C_11  and  C_4 
ROOT
ATOM      1  N   UNL d   1     -39.662  14.847  19.909  0.00  0.00    -0.196 N 
ATOM      2  C   UNL d   1     -39.760  14.843  20.723  0.00  0.00     0.167 A 
ATOM      3  C   UNL d   1     -40.226  15.207  19.424  0.00  0.00     0.153 A 
ATOM      4  C   UNL d   1     -39.121  14.451  21.055  0.00  0.00     0.057 A 
ATOM      5  N   UNL d   1     -38.963  14.458  19.734  0.00  0.00    -0.161 NA
ATOM      6  N   UNL d   1     -40.423  15.199  21.064  0.00  0.00    -0.227 NA
ATOM      7  C   UNL d   1     -40.891  15.564  19.765  0.00  0.00     0.057 A 
ATOM      8  C   UNL d   1     -38.631  14.214  20.449  0.00  0.00     0.124 A 
ATOM      9  C   UNL d   1     -40.988  15.560  20.579  0.00  0.00     0.086 A 
ATOM     10  C   UNL d   1     -41.661  15.922  20.915  0.00  0.00     0.021 C 
ENDROOT
BRANCH   3  11
ATOM     11  N   UNL d   1     -40.128  15.211  18.610  0.00  0.00    -0.285 N 
ATOM     12  C   UNL d   1     -40.436  14.594  18.150  0.00  0.00     0.108 A 
ATOM     13  C   UNL d   1     -40.338  14.598  17.332  0.00  0.00     0.142 A 
ATOM     14  O   UNL d   1     -39.931  15.219  16.969  0.00  0.00    -0.300 OA
ATOM     15  C   UNL d   1     -39.623  15.832  17.424  0.00  0.00     0.142 A 
ATOM     16  C   UNL d   1     -39.722  15.828  18.242  0.00  0.00     0.108 A 
ENDBRANCH   3  11
BRANCH   4  17
ATOM     17  C   UNL d   1     -38.922  14.279  21.835  0.00  0.00     0.004 A 
ATOM     18  C   UNL d   1     -38.483  14.822  22.290  0.00  0.00     0.000 A 
ATOM     19  C   UNL d   1     -38.288  14.643  23.067  0.00  0.00     0.000 A 
ATOM     20  C   UNL d   1     -38.526  13.923  23.406  0.00  0.00     0.000 A 
ATOM     21  C   UNL d   1     -38.961  13.386  22.955  0.00  0.00     0.000 A 
ATOM     22  C   UNL d   1     -39.161  13.561  22.171  0.00  0.00     0.000 A 
ENDBRANCH   4  17
TORSDOF 2
ENDMDL
MODEL 6
REMARK VINA RESULT:      -6.7      1.092      2.034
REMARK  2 active torsions:
REMARK  status: ('A' for Active; 'I' for Inactive)
REMARK    1  A    between atoms: N_9  and  C_3 
REMARK    2  A    between atoms: C_11  and  C_4 
ROOT
ATOM      1  N   UNL d   1     -48.680  13.592  23.160  0.00  0.00    -0.196 N 
ATOM      2  C   UNL d   1     -47.927  13.268  23.160  0.00  0.00     0.167 A 
ATOM      3  C   UNL d   1     -48.792  14.383  22.952  0.00  0.00     0.153 A 
ATOM      4  C   UNL d   1     -47.987  12.482  23.386  0.00  0.00     0.057 A 
ATOM      5  N   UNL d   1     -49.209  13.008  23.386  0.00  0.00    -0.161 NA
ATOM      6  N   UNL d   1     -47.275  13.730  22.952  0.00  0.00    -0.227 NA
ATOM      7  C   UNL d   1     -48.139  14.848  22.743  0.00  0.00     0.057 A 
ATOM      8  C   UNL d   1     -48.774  12.322  23.526  0.00  0.00     0.124 A 
ATOM      9  C   UNL d   1     -47.386  14.523  22.743  0.00  0.00     0.086 A 
ATOM     10  C   UNL d   1     -46.733  14.998  22.532  0.00  0.00     0.021 C 
ENDROOT
BRANCH   3  11
ATOM     11  N   UNL d   1     -49.545  14.707  22.952  0.00  0.00    -0.285 N 
ATOM     12  C   UNL d   1     -49.811  15.145  23.603  0.00  0.00     0.108 A 
ATOM     13  C   UNL d   1     -50.568  15.470  23.603  0.00  0.00     0.142 A 
ATOM     14  O   UNL d   1     -51.064  15.361  22.952  0.00  0.00    -0.300 OA
ATOM     15  C   UNL d   1     -50.802  14.927  22.303  0.00  0.00     0.142 A 
ATOM     16  C   UNL d   1     -50.045  14.601  22.303  0.00  0.00     0.108 A 
ENDBRANCH   3  11
BRANCH   4  17
ATOM     17  C   UNL d   1     -47.424  11.890  23.484  0.00  0.00     0.004 A 
ATOM     18  C   UNL d   1     -46.611  12.072  23.469  0.00  0.00     0.000 A 
ATOM     19  C   UNL d   1     -46.055  11.475  23.567  0.00  0.00     0.000 A 
ATOM     20  C   UNL d   1     -46.296  10.689  23.683  0.00  0.00     0.000 A 
ATOM     21  C   UNL d   1     -47.102  10.510  23.698  0.00  0.00     0.000 A 
ATOM     22  C   UNL d   1     -47.667  11.107  23.599  0.00  0.00     0.000 A 
ENDBRANCH   4  17
TORSDOF 2
ENDMDL
MODEL 7
REMARK VINA RESULT:      -6.4      9.386     10.175
REMARK  2 active torsions:
REMARK  status: ('A' for Active; 'I' for Inactive)
REMARK    1  A    between atoms: N_9  and  C_3 
REMARK    2  A    between atoms: C_11  and  C_4 
ROOT
ATOM      1  N   UNL d   1     -39.532  14.662  18.958  0.00  0.00    -0.196 N 
ATOM      2  C   UNL d   1     -39.141  14.208  19.518  0.00  0.00     0.167 A 
ATOM      3  C   UNL d   1     -39.496  14.459  18.159  0.00  0.00     0.153 A 
ATOM      4  C   UNL d   1     -39.276  14.540  20.255  0.00  0.00     0.057 A 
ATOM      5  N   UNL d   1     -39.910  15.277  19.347  0.00  0.00    -0.161 NA
ATOM      6  N   UNL d   1     -38.709  13.544  19.287  0.00  0.00    -0.227 NA
ATOM      7  C   UNL d   1     -39.062  13.794  17.926  0.00  0.00     0.057 A 
ATOM      8  C   UNL d   1     -39.748  15.197  20.152  0.00  0.00     0.124 A 
ATOM      9  C   UNL d   1     -38.671  13.339  18.486  0.00  0.00     0.086 A 
ATOM     10  C   UNL d   1     -38.236  12.670  18.242  0.00  0.00     0.021 C 
ENDROOT
BRANCH   3  11
ATOM     11  N   UNL d   1     -39.886  14.913  17.599  0.00  0.00    -0.285 N 
ATOM     12  C   UNL d   1     -40.702  14.823  17.484  0.00  0.00     0.108 A 
ATOM     13  C   UNL d   1     -41.095  15.280  16.922  0.00  0.00     0.142 A 
ATOM     14  O   UNL d   1     -40.674  15.829  16.470  0.00  0.00    -0.300 OA
ATOM     15  C   UNL d   1     -39.863  15.921  16.583  0.00  0.00     0.142 A 
ATOM     16  C   UNL d   1     -39.471  15.464  17.145  0.00  0.00     0.108 A 
ENDBRANCH   3  11
BRANCH   4  17
ATOM     17  C   UNL d   1     -39.028  14.328  21.012  0.00  0.00     0.004 A 
ATOM     18  C   UNL d   1     -39.501  13.836  21.489  0.00  0.00     0.000 A 
ATOM     19  C   UNL d   1     -39.247  13.629  22.242  0.00  0.00     0.000 A 
ATOM     20  C   UNL d   1     -38.520  13.906  22.534  0.00  0.00     0.000 A 
ATOM     21  C   UNL d   1     -38.053  14.394  22.060  0.00  0.00     0.000 A 
ATOM     22  C   UNL d   1     -38.304  14.607  21.299  0.00  0.00     0.000 A 
ENDBRANCH   4  17
TORSDOF 2
ENDMDL
MODEL 8
REMARK VINA RESULT:      -5.5      8.693     10.612
REMARK  2 active torsions:
REMARK  status: ('A' for Active; 'I' for Inactive)
REMARK    1  A    between atoms: N_9  and  C_3 
REMARK    2  A    between atoms: C_11  and  C_4 
ROOT
ATOM      1  N   UNL d   1     -39.581  14.965  18.152  0.00  0.00    -0.196 N 
ATOM      2  C   UNL d   1     -39.581  14.951  17.332  0.00  0.00     0.167 A 
ATOM      3  C   UNL d   1     -40.234  15.257  18.563  0.00  0.00     0.153 A 
ATOM      4  C   UNL d   1     -38.868  14.635  17.082  0.00  0.00     0.057 A 
ATOM      5  N   UNL d   1     -38.867  14.658  18.411  0.00  0.00    -0.161 NA
ATOM      6  N   UNL d   1     -40.235  15.229  16.911  0.00  0.00    -0.227 NA
ATOM      7  C   UNL d   1     -40.890  15.537  18.143  0.00  0.00     0.057 A 
ATOM      8  C   UNL d   1     -38.428  14.455  17.743  0.00  0.00     0.124 A 
ATOM      9  C   UNL d   1     -40.891  15.523  17.323  0.00  0.00     0.086 A 
ATOM     10  C   UNL d   1     -41.557  15.806  16.907  0.00  0.00     0.021 C 
ENDROOT
BRANCH   3  11
ATOM     11  N   UNL d   1     -40.233  15.271  19.383  0.00  0.00    -0.285 N 
ATOM     12  C   UNL d   1     -39.863  15.891  19.789  0.00  0.00     0.108 A 
ATOM     13  C   UNL d   1     -39.863  15.905  20.613  0.00  0.00     0.142 A 
ATOM     14  O   UNL d   1     -40.232  15.299  21.036  0.00  0.00    -0.300 OA
ATOM     15  C   UNL d   1     -40.600  14.681  20.635  0.00  0.00     0.142 A 
ATOM     16  C   UNL d   1     -40.601  14.667  19.811  0.00  0.00     0.108 A 
ENDBRANCH   3  11
BRANCH   4  17
ATOM     17  C   UNL d   1     -38.560  14.488  16.332  0.00  0.00     0.004 A 
ATOM     18  C   UNL d   1     -38.512  13.709  16.039  0.00  0.00     0.000 A 
ATOM     19  C   UNL d   1     -38.205  13.571  15.290  0.00  0.00     0.000 A 
ATOM     20  C   UNL d   1     -37.939  14.202  14.820  0.00  0.00     0.000 A 
ATOM     21  C   UNL d   1     -37.987  14.973  15.111  0.00  0.00     0.000 A 
ATOM     22  C   UNL d   1     -38.297  15.119  15.865  0.00  0.00     0.000 A 
ENDBRANCH   4  17
TORSDOF 2
ENDMDL
