MODEL 1
REMARK VINA RESULT:      97.1      0.000      0.000
REMARK  6 active torsions:
REMARK  status: ('A' for Active; 'I' for Inactive)
REMARK    1  A    between atoms: C_10  and  C_1 
REMARK    2  A    between atoms: C_7  and  O_9 
REMARK       I    between atoms: N_12  and  C_7 
REMARK    3  A    between atoms: O_9  and  C_14 
REMARK    4  A    between atoms: C_24  and  N_12 
REMARK    5  A    between atoms: C_25  and  N_12 
REMARK    6  A    between atoms: O_23  and  C_20 
ROOT
ATOM      1  C   UNL d   1      61.295  45.878  50.258  0.00  0.00     0.062 A 
ATOM      2  C   UNL d   1      61.636  46.585  49.974  0.00  0.00     0.199 A 
ATOM      3  C   UNL d   1      60.678  45.917  50.826  0.00  0.00     0.103 A 
ATOM      4  C   UNL d   1      61.375  47.315  50.242  0.00  0.00     0.062 A 
ATOM      5  C   UNL d   1      60.761  47.354  50.807  0.00  0.00     0.105 A 
ATOM      6  O   UNL d   1      60.411  46.660  51.100  0.00  0.00    -0.307 OA
ATOM      7  C   UNL d   1      60.493  48.093  51.081  0.00  0.00     0.050 A 
ATOM      8  C   UNL d   1      61.709  48.024  49.964  0.00  0.00     0.007 A 
ATOM      9  O   UNL d   1      62.243  46.543  49.416  0.00  0.00    -0.286 OA
ATOM     10  C   UNL d   1      60.833  48.788  50.797  0.00  0.00     0.107 A 
ATOM     11  C   UNL d   1      61.441  48.753  50.238  0.00  0.00     0.025 A 
ATOM     12  C   UNL d   1      60.339  45.222  51.110  0.00  0.00     0.027 C 
ENDROOT
BRANCH   1  13
ATOM     13  C   UNL d   1      61.560  45.148  49.987  0.00  0.00     0.005 A 
ATOM     14  C   UNL d   1      62.015  44.663  50.483  0.00  0.00     0.002 A 
ATOM     15  C   UNL d   1      62.280  43.933  50.211  0.00  0.00     0.024 A 
ATOM     16  C   UNL d   1      62.094  43.685  49.448  0.00  0.00     0.094 A 
ATOM     17  C   UNL d   1      61.637  44.172  48.949  0.00  0.00     0.024 A 
ATOM     18  C   UNL d   1      61.374  44.899  49.223  0.00  0.00     0.002 A 
BRANCH  16  19
ATOM     19  O   UNL d   1      62.357  42.957  49.173  0.00  0.00    -0.328 OA
ATOM     20  C   UNL d   1      61.828  42.426  48.831  0.00  0.00     0.181 C 
ENDBRANCH  16  19
ENDBRANCH   1  13
BRANCH  10  21
ATOM     21  O   UNL d   1      60.566  49.518  51.071  0.00  0.00    -0.259 OA
BRANCH  21  22
ATOM     22  C   UNL d   1      59.876  49.560  51.521  0.00  0.00     0.377 C 
ATOM     23  N   UNL d   1      59.147  49.654  51.147  0.00  0.00    -0.252 N 
ATOM     24  O   UNL d   1      59.916  49.509  52.344  0.00  0.00    -0.237 OA
BRANCH  23  25
ATOM     25  C   UNL d   1      59.104  49.705  50.320  0.00  0.00     0.085 C 
ATOM     26  C   UNL d   1      58.376  49.704  49.931  0.00  0.00     0.021 C 
ENDBRANCH  23  25
BRANCH  23  27
ATOM     27  C   UNL d   1      58.454  49.696  51.597  0.00  0.00     0.085 C 
ATOM     28  C   UNL d   1      57.710  49.677  51.220  0.00  0.00     0.021 C 
ENDBRANCH  23  27
ENDBRANCH  21  22
ENDBRANCH  10  21
TORSDOF 6
ENDMDL
