MODEL 1
REMARK VINA RESULT:      -4.4      0.000      0.000
REMARK  10 active torsions:
REMARK  status: ('A' for Active; 'I' for Inactive)
REMARK    1  A    between atoms: S_6  and  C_1 
REMARK    2  A    between atoms: C_12  and  N_2 
REMARK    3  A    between atoms: C_11  and  C_4 
REMARK    4  A    between atoms: C_10  and  S_6 
REMARK       I    between atoms: C_7  and  N_9 
REMARK    5  A    between atoms: C_13  and  C_7 
REMARK    6  A    between atoms: C_8  and  C_10 
REMARK    7  A    between atoms: O_18  and  C_8 
REMARK    8  A    between atoms: N_9  and  C_11 
REMARK    9  A    between atoms: C_26  and  O_18 
REMARK   10  A    between atoms: O_22  and  C_19 
ROOT
ATOM      1  C   UNL d   1      59.053  -1.645  29.194  0.00  0.00     0.201 A 
ATOM      2  N   UNL d   1      59.137  -0.869  29.461  0.00  0.00    -0.268 N 
ATOM      3  N   UNL d   1      58.354  -1.958  29.512  0.00  0.00    -0.121 NA
ATOM      4  C   UNL d   1      58.481  -0.707  29.947  0.00  0.00     0.190 A 
ATOM      5  N   UNL d   1      58.002  -1.386  29.973  0.00  0.00    -0.126 NA
ENDROOT
BRANCH   4   6
ATOM      6  C   UNL d   1      58.330   0.005  30.338  0.00  0.00     0.141 C 
BRANCH   6   7
ATOM      7  N   UNL d   1      57.671  -0.172  30.809  0.00  0.00    -0.203 NA
ATOM      8  C   UNL d   1      57.601   0.169  31.560  0.00  0.00     0.279 C 
ATOM      9  O   UNL d   1      58.178   0.681  31.840  0.00  0.00    -0.265 OA
BRANCH   8  10
ATOM     10  C   UNL d   1      56.942  -0.013  32.023  0.00  0.00     0.058 A 
ATOM     11  C   UNL d   1      56.513   0.581  32.388  0.00  0.00     0.007 A 
ATOM     12  C   UNL d   1      55.855   0.398  32.851  0.00  0.00     0.024 A 
ATOM     13  C   UNL d   1      55.632  -0.393  32.943  0.00  0.00     0.094 A 
ATOM     14  C   UNL d   1      56.062  -0.986  32.578  0.00  0.00     0.024 A 
ATOM     15  C   UNL d   1      56.720  -0.804  32.115  0.00  0.00     0.007 A 
BRANCH  13  16
ATOM     16  O   UNL d   1      54.974  -0.575  33.406  0.00  0.00    -0.328 OA
ATOM     17  C   UNL d   1      54.766  -0.084  34.026  0.00  0.00     0.181 C 
ENDBRANCH  13  16
ENDBRANCH   8  10
ENDBRANCH   6   7
ENDBRANCH   4   6
BRANCH   2  18
ATOM     18  C   UNL d   1      59.747  -0.361  29.281  0.00  0.00     0.067 A 
ATOM     19  C   UNL d   1      59.677   0.170  28.657  0.00  0.00     0.018 A 
ATOM     20  C   UNL d   1      60.290   0.682  28.476  0.00  0.00     0.002 A 
ATOM     21  C   UNL d   1      60.982   0.670  28.917  0.00  0.00     0.000 A 
ATOM     22  C   UNL d   1      61.057   0.140  29.545  0.00  0.00     0.002 A 
ATOM     23  C   UNL d   1      60.438  -0.377  29.727  0.00  0.00     0.018 A 
ENDBRANCH   2  18
BRANCH   1  24
ATOM     24  S   UNL d   1      59.576  -2.047  28.694  0.00  0.00    -0.043 SA
BRANCH  24  25
ATOM     25  C   UNL d   1      59.505  -2.862  28.582  0.00  0.00     0.096 C 
ATOM     26  C   UNL d   1      58.768  -3.197  28.461  0.00  0.00     0.013 C 
BRANCH  25  27
ATOM     27  C   UNL d   1      60.176  -3.347  28.591  0.00  0.00     0.306 C 
ATOM     28  O   UNL d   1      60.918  -3.022  28.725  0.00  0.00    -0.258 OA
BRANCH  27  29
ATOM     29  O   UNL d   1      60.088  -4.150  28.466  0.00  0.00    -0.271 OA
BRANCH  29  30
ATOM     30  C   UNL d   1      60.629  -4.685  28.805  0.00  0.00     0.126 C 
ATOM     31  C   UNL d   1      60.746  -5.413  28.486  0.00  0.00     0.029 C 
ENDBRANCH  29  30
ENDBRANCH  27  29
ENDBRANCH  25  27
ENDBRANCH  24  25
ENDBRANCH   1  24
TORSDOF 10
ENDMDL
