MODEL 1
REMARK VINA RESULT:      83.4      0.000      0.000
REMARK  7 active torsions:
REMARK  status: ('A' for Active; 'I' for Inactive)
REMARK    1  A    between atoms: S_2  and  N_1 
REMARK    2  A    between atoms: C_3  and  N_1 
REMARK       I    between atoms: C_4  and  N_1 
REMARK    3  A    between atoms: C_10  and  S_2 
REMARK    4  A    between atoms: C_15  and  C_4 
REMARK    5  A    between atoms: C_6  and  O_8 
REMARK    6  A    between atoms: C_18  and  C_6 
REMARK    7  A    between atoms: O_8  and  C_7 
ROOT
ATOM      1  C   UNL d   1      45.736 -18.265  40.947  0.00  0.00     0.078 A 
ATOM      2  C   UNL d   1      46.016 -18.712  40.320  0.00  0.00     0.019 A 
ATOM      3  C   UNL d   1      45.620 -17.754  39.384  0.00  0.00     0.103 A 
ATOM      4  C   UNL d   1      45.961 -18.466  39.554  0.00  0.00     0.024 A 
ATOM      5  C   UNL d   1      45.391 -17.547  40.783  0.00  0.00     0.020 A 
ATOM      6  C   UNL d   1      45.335 -17.297  40.009  0.00  0.00     0.026 A 
ATOM      7  C   UNL d   1      46.364 -19.439  40.500  0.00  0.00     0.002 A 
ATOM      8  C   UNL d   1      46.244 -18.920  38.922  0.00  0.00     0.002 A 
ATOM      9  C   UNL d   1      46.644 -19.886  39.873  0.00  0.00     0.000 A 
ATOM     10  C   UNL d   1      46.589 -19.640  39.106  0.00  0.00     0.000 A 
ENDROOT
BRANCH   1  11
ATOM     11  N   UNL d   1      45.798 -18.533  41.751  0.00  0.00    -0.198 N 
ATOM     12  C   UNL d   1      45.852 -19.362  41.901  0.00  0.00     0.274 C 
ATOM     13  O   UNL d   1      45.842 -19.891  41.277  0.00  0.00    -0.266 OA
BRANCH  11  14
ATOM     14  S   UNL d   1      45.809 -18.006  42.392  0.00  0.00     0.274 S 
ATOM     15  O   UNL d   1      45.073 -18.341  42.693  0.00  0.00    -0.200 OA
ATOM     16  O   UNL d   1      46.512 -17.690  42.099  0.00  0.00    -0.200 OA
BRANCH  14  17
ATOM     17  C   UNL d   1      45.842 -17.452  43.045  0.00  0.00     0.104 A 
ATOM     18  C   UNL d   1      45.181 -17.192  43.375  0.00  0.00     0.013 A 
ATOM     19  C   UNL d   1      45.182 -16.643  44.022  0.00  0.00     0.001 A 
ATOM     20  C   UNL d   1      45.898 -16.378  44.309  0.00  0.00     0.000 A 
ATOM     21  C   UNL d   1      46.646 -16.655  43.955  0.00  0.00     0.001 A 
ATOM     22  C   UNL d   1      45.856 -15.836  44.949  0.00  0.00     0.000 C 
ATOM     23  C   UNL d   1      46.604 -17.212  43.300  0.00  0.00     0.013 A 
ENDBRANCH  14  17
ENDBRANCH  11  14
BRANCH  12  24
ATOM     24  C   UNL d   1      45.911 -19.612  42.675  0.00  0.00     0.060 A 
ATOM     25  C   UNL d   1      45.203 -19.819  43.084  0.00  0.00     0.025 A 
ATOM     26  C   UNL d   1      45.229 -20.070  43.851  0.00  0.00     0.099 A 
ATOM     27  N   UNL d   1      45.939 -20.128  44.246  0.00  0.00    -0.242 NA
ATOM     28  C   UNL d   1      46.644 -19.926  43.853  0.00  0.00     0.099 A 
ATOM     29  C   UNL d   1      46.633 -19.677  43.096  0.00  0.00     0.025 A 
ENDBRANCH  12  24
ENDBRANCH   1  11
BRANCH   3  30
ATOM     30  O   UNL d   1      45.557 -17.486  38.581  0.00  0.00    -0.273 OA
BRANCH  30  31
ATOM     31  C   UNL d   1      44.868 -17.161  38.235  0.00  0.00     0.300 C 
ATOM     32  O   UNL d   1      44.129 -17.397  38.424  0.00  0.00    -0.259 OA
BRANCH  31  33
ATOM     33  C   UNL d   1      44.963 -16.570  37.673  0.00  0.00     0.067 A 
ATOM     34  C   UNL d   1      45.702 -16.213  37.523  0.00  0.00     0.026 A 
ATOM     35  C   UNL d   1      45.761 -15.601  36.930  0.00  0.00     0.099 A 
ATOM     36  N   UNL d   1      45.123 -15.371  36.525  0.00  0.00    -0.242 NA
ATOM     37  C   UNL d   1      44.394 -15.692  36.642  0.00  0.00     0.099 A 
ATOM     38  C   UNL d   1      44.331 -16.292  37.222  0.00  0.00     0.026 A 
ENDBRANCH  31  33
ENDBRANCH  30  31
ENDBRANCH   3  30
TORSDOF 7
ENDMDL
