MODEL 1
REMARK VINA RESULT:      -7.5      0.000      0.000
REMARK  3 active torsions:
REMARK  status: ('A' for Active; 'I' for Inactive)
REMARK    1  A    between atoms: C_5  and  N_1 
REMARK    2  A    between atoms: C_4  and  C_5 
REMARK       I    between atoms: N_8  and  C_4 
REMARK    3  A    between atoms: C_13  and  N_8 
ROOT
ATOM      1  C   UNL d   1     -48.603  13.108  23.052  0.00  0.00     0.297 C 
ATOM      2  N   UNL d   1     -47.957  13.274  23.526  0.00  0.00    -0.207 NA
ATOM      3  O   UNL d   1     -48.514  12.685  22.347  0.00  0.00    -0.264 OA
ENDROOT
BRANCH   1   4
ATOM      4  C   UNL d   1     -49.353  13.364  23.280  0.00  0.00     0.148 C 
BRANCH   4   5
ATOM      5  N   UNL d   1     -49.925  13.523  22.704  0.00  0.00    -0.235 N 
ATOM      6  C   UNL d   1     -50.014  14.295  22.413  0.00  0.00     0.274 A 
ATOM      7  O   UNL d   1     -49.529  14.904  22.700  0.00  0.00    -0.266 OA
ATOM      8  C   UNL d   1     -50.580  14.453  21.844  0.00  0.00     0.097 A 
ATOM      9  S   UNL d   1     -51.064  13.856  21.553  0.00  0.00    -0.076 SA
ATOM     10  C   UNL d   1     -50.980  13.090  21.839  0.00  0.00     0.097 A 
ATOM     11  C   UNL d   1     -50.413  12.915  22.414  0.00  0.00     0.274 A 
ATOM     12  O   UNL d   1     -50.325  12.148  22.703  0.00  0.00    -0.266 OA
ENDBRANCH   4   5
ENDBRANCH   1   4
BRANCH   2  13
ATOM     13  C   UNL d   1     -47.207  13.018  23.298  0.00  0.00     0.087 A 
ATOM     14  C   UNL d   1     -46.725  13.509  22.843  0.00  0.00     0.045 A 
ATOM     15  C   UNL d   1     -45.979  13.263  22.612  0.00  0.00     0.121 A 
ATOM     16  O   UNL d   1     -45.382  13.628  22.163  0.00  0.00    -0.299 OA
ATOM     17  C   UNL d   1     -45.704  12.517  22.835  0.00  0.00     0.119 A 
ATOM     18  C   UNL d   1     -44.743  13.100  22.115  0.00  0.00     0.304 A 
ATOM     19  O   UNL d   1     -44.950  12.422  22.529  0.00  0.00    -0.300 OA
ATOM     20  C   UNL d   1     -46.194  12.027  23.293  0.00  0.00     0.028 A 
ATOM     21  C   UNL d   1     -46.941  12.278  23.523  0.00  0.00     0.021 A 
ENDBRANCH   2  13
TORSDOF 3
ENDMDL
MODEL 2
REMARK VINA RESULT:      -6.2      1.708      4.401
REMARK  3 active torsions:
REMARK  status: ('A' for Active; 'I' for Inactive)
REMARK    1  A    between atoms: C_5  and  N_1 
REMARK    2  A    between atoms: C_4  and  C_5 
REMARK       I    between atoms: N_8  and  C_4 
REMARK    3  A    between atoms: C_13  and  N_8 
ROOT
ATOM      1  C   UNL d   1     -47.568  12.978  22.951  0.00  0.00     0.297 C 
ATOM      2  N   UNL d   1     -48.274  13.120  23.340  0.00  0.00    -0.207 NA
ATOM      3  O   UNL d   1     -47.553  12.831  22.138  0.00  0.00    -0.264 OA
ENDROOT
BRANCH   1   4
ATOM      4  C   UNL d   1     -46.861  12.984  23.376  0.00  0.00     0.148 C 
BRANCH   4   5
ATOM      5  N   UNL d   1     -46.146  12.847  22.984  0.00  0.00    -0.235 N 
ATOM      6  C   UNL d   1     -45.808  12.088  22.995  0.00  0.00     0.274 A 
ATOM      7  O   UNL d   1     -46.189  11.471  23.398  0.00  0.00    -0.266 OA
ATOM      8  C   UNL d   1     -45.100  11.952  22.607  0.00  0.00     0.097 A 
ATOM      9  S   UNL d   1     -44.716  12.557  22.205  0.00  0.00    -0.076 SA
ATOM     10  C   UNL d   1     -45.047  13.310  22.192  0.00  0.00     0.097 A 
ATOM     11  C   UNL d   1     -45.761  13.463  22.579  0.00  0.00     0.274 A 
ATOM     12  O   UNL d   1     -46.095  14.216  22.568  0.00  0.00    -0.266 OA
ENDBRANCH   4   5
ENDBRANCH   1   4
BRANCH   2  13
ATOM     13  C   UNL d   1     -48.981  13.114  22.915  0.00  0.00     0.087 A 
ATOM     14  C   UNL d   1     -49.265  13.813  22.581  0.00  0.00     0.045 A 
ATOM     15  C   UNL d   1     -49.966  13.818  22.158  0.00  0.00     0.121 A 
ATOM     16  O   UNL d   1     -50.382  14.422  21.767  0.00  0.00    -0.299 OA
ATOM     17  C   UNL d   1     -50.395  13.118  22.063  0.00  0.00     0.119 A 
ATOM     18  C   UNL d   1     -51.064  14.086  21.434  0.00  0.00     0.304 A 
ATOM     19  O   UNL d   1     -51.063  13.287  21.621  0.00  0.00    -0.300 OA
ATOM     20  C   UNL d   1     -50.103  12.418  22.401  0.00  0.00     0.028 A 
ATOM     21  C   UNL d   1     -49.400  12.417  22.825  0.00  0.00     0.021 A 
ENDBRANCH   2  13
TORSDOF 3
ENDMDL
MODEL 3
REMARK VINA RESULT:      -5.8      8.559      9.857
REMARK  3 active torsions:
REMARK  status: ('A' for Active; 'I' for Inactive)
REMARK    1  A    between atoms: C_5  and  N_1 
REMARK    2  A    between atoms: C_4  and  C_5 
REMARK       I    between atoms: N_8  and  C_4 
REMARK    3  A    between atoms: C_13  and  N_8 
ROOT
ATOM      1  C   UNL d   1     -40.032  14.501  19.454  0.00  0.00     0.297 C 
ATOM      2  N   UNL d   1     -40.322  14.089  18.809  0.00  0.00    -0.207 NA
ATOM      3  O   UNL d   1     -39.396  15.023  19.373  0.00  0.00    -0.264 OA
ENDROOT
BRANCH   1   4
ATOM      4  C   UNL d   1     -40.378  14.394  20.195  0.00  0.00     0.148 C 
BRANCH   4   5
ATOM      5  N   UNL d   1     -40.069  14.789  20.853  0.00  0.00    -0.235 N 
ATOM      6  C   UNL d   1     -39.470  14.431  21.304  0.00  0.00     0.274 A 
ATOM      7  O   UNL d   1     -39.185  13.682  21.093  0.00  0.00    -0.266 OA
ATOM      8  C   UNL d   1     -39.165  14.821  21.955  0.00  0.00     0.097 A 
ATOM      9  S   UNL d   1     -39.441  15.564  22.171  0.00  0.00    -0.076 SA
ATOM     10  C   UNL d   1     -40.034  15.921  21.727  0.00  0.00     0.097 A 
ATOM     11  C   UNL d   1     -40.353  15.540  21.066  0.00  0.00     0.274 A 
ATOM     12  O   UNL d   1     -40.947  15.896  20.619  0.00  0.00    -0.266 OA
ENDBRANCH   4   5
ENDBRANCH   1   4
BRANCH   2  13
ATOM     13  C   UNL d   1     -39.976  14.196  18.068  0.00  0.00     0.087 A 
ATOM     14  C   UNL d   1     -39.354  13.708  17.830  0.00  0.00     0.045 A 
ATOM     15  C   UNL d   1     -39.004  13.806  17.097  0.00  0.00     0.121 A 
ATOM     16  O   UNL d   1     -38.383  13.409  16.714  0.00  0.00    -0.299 OA
ATOM     17  C   UNL d   1     -39.274  14.398  16.588  0.00  0.00     0.119 A 
ATOM     18  C   UNL d   1     -38.276  13.762  15.970  0.00  0.00     0.304 A 
ATOM     19  O   UNL d   1     -38.827  14.367  15.902  0.00  0.00    -0.300 OA
ATOM     20  C   UNL d   1     -39.900  14.885  16.832  0.00  0.00     0.028 A 
ATOM     21  C   UNL d   1     -40.248  14.784  17.569  0.00  0.00     0.021 A 
ENDBRANCH   2  13
TORSDOF 3
ENDMDL
MODEL 4
REMARK VINA RESULT:      -5.8      8.856      9.445
REMARK  3 active torsions:
REMARK  status: ('A' for Active; 'I' for Inactive)
REMARK    1  A    between atoms: C_5  and  N_1 
REMARK    2  A    between atoms: C_4  and  C_5 
REMARK       I    between atoms: N_8  and  C_4 
REMARK    3  A    between atoms: C_13  and  N_8 
ROOT
ATOM      1  C   UNL d   1     -40.175  14.693  19.445  0.00  0.00     0.297 C 
ATOM      2  N   UNL d   1     -40.545  14.601  20.168  0.00  0.00    -0.207 NA
ATOM      3  O   UNL d   1     -39.434  15.057  19.391  0.00  0.00    -0.264 OA
ENDROOT
BRANCH   1   4
ATOM      4  C   UNL d   1     -40.543  14.418  18.760  0.00  0.00     0.148 C 
BRANCH   4   5
ATOM      5  N   UNL d   1     -40.194  14.553  18.023  0.00  0.00    -0.235 N 
ATOM      6  C   UNL d   1     -40.390  15.236  17.592  0.00  0.00     0.274 A 
ATOM      7  O   UNL d   1     -40.935  15.778  17.902  0.00  0.00    -0.266 OA
ATOM      8  C   UNL d   1     -40.044  15.370  16.863  0.00  0.00     0.097 A 
ATOM      9  S   UNL d   1     -39.503  14.838  16.548  0.00  0.00    -0.076 SA
ATOM     10  C   UNL d   1     -39.306  14.161  16.972  0.00  0.00     0.097 A 
ATOM     11  C   UNL d   1     -39.646  14.012  17.709  0.00  0.00     0.274 A 
ATOM     12  O   UNL d   1     -39.451  13.334  18.136  0.00  0.00    -0.266 OA
ENDBRANCH   4   5
ENDBRANCH   1   4
BRANCH   2  13
ATOM     13  C   UNL d   1     -40.177  14.876  20.853  0.00  0.00     0.087 A 
ATOM     14  C   UNL d   1     -39.711  14.364  21.303  0.00  0.00     0.045 A 
ATOM     15  C   UNL d   1     -39.341  14.627  21.984  0.00  0.00     0.121 A 
ATOM     16  O   UNL d   1     -38.850  14.250  22.537  0.00  0.00    -0.299 OA
ATOM     17  C   UNL d   1     -39.433  15.412  22.226  0.00  0.00     0.119 A 
ATOM     18  C   UNL d   1     -38.643  14.808  23.116  0.00  0.00     0.304 A 
ATOM     19  O   UNL d   1     -39.006  15.517  22.917  0.00  0.00    -0.300 OA
ATOM     20  C   UNL d   1     -39.903  15.922  21.769  0.00  0.00     0.028 A 
ATOM     21  C   UNL d   1     -40.272  15.654  21.086  0.00  0.00     0.021 A 
ENDBRANCH   2  13
TORSDOF 3
ENDMDL
MODEL 5
REMARK VINA RESULT:      -5.7      8.742      9.677
REMARK  3 active torsions:
REMARK  status: ('A' for Active; 'I' for Inactive)
REMARK    1  A    between atoms: C_5  and  N_1 
REMARK    2  A    between atoms: C_4  and  C_5 
REMARK       I    between atoms: N_8  and  C_4 
REMARK    3  A    between atoms: C_13  and  N_8 
ROOT
ATOM      1  C   UNL d   1     -39.986  14.616  20.252  0.00  0.00     0.297 C 
ATOM      2  N   UNL d   1     -40.523  14.291  19.728  0.00  0.00    -0.207 NA
ATOM      3  O   UNL d   1     -39.394  15.130  19.990  0.00  0.00    -0.264 OA
ENDROOT
BRANCH   1   4
ATOM      4  C   UNL d   1     -40.034  14.428  21.054  0.00  0.00     0.148 C 
BRANCH   4   5
ATOM      5  N   UNL d   1     -39.459  14.709  21.577  0.00  0.00    -0.235 N 
ATOM      6  C   UNL d   1     -38.795  14.241  21.750  0.00  0.00     0.274 A 
ATOM      7  O   UNL d   1     -38.711  13.495  21.399  0.00  0.00    -0.266 OA
ATOM      8  C   UNL d   1     -38.225  14.519  22.268  0.00  0.00     0.097 A 
ATOM      9  S   UNL d   1     -38.299  15.257  22.620  0.00  0.00    -0.076 SA
ATOM     10  C   UNL d   1     -38.955  15.724  22.452  0.00  0.00     0.097 A 
ATOM     11  C   UNL d   1     -39.539  15.457  21.931  0.00  0.00     0.274 A 
ATOM     12  O   UNL d   1     -40.198  15.922  21.760  0.00  0.00    -0.266 OA
ENDBRANCH   4   5
ENDBRANCH   1   4
BRANCH   2  13
ATOM     13  C   UNL d   1     -40.475  14.479  18.926  0.00  0.00     0.087 A 
ATOM     14  C   UNL d   1     -40.926  15.098  18.621  0.00  0.00     0.045 A 
ATOM     15  C   UNL d   1     -40.886  15.293  17.827  0.00  0.00     0.121 A 
ATOM     16  O   UNL d   1     -41.265  15.874  17.371  0.00  0.00    -0.299 OA
ATOM     17  C   UNL d   1     -40.388  14.866  17.324  0.00  0.00     0.119 A 
ATOM     18  C   UNL d   1     -40.996  15.799  16.589  0.00  0.00     0.304 A 
ATOM     19  O   UNL d   1     -40.460  15.178  16.570  0.00  0.00    -0.300 OA
ATOM     20  C   UNL d   1     -39.937  14.243  17.637  0.00  0.00     0.028 A 
ATOM     21  C   UNL d   1     -39.981  14.052  18.434  0.00  0.00     0.021 A 
ENDBRANCH   2  13
TORSDOF 3
ENDMDL
