MODEL 1
REMARK VINA RESULT:      45.8      0.000      0.000
REMARK  3 active torsions:
REMARK  status: ('A' for Active; 'I' for Inactive)
REMARK    1  A    between atoms: C_10  and  C_4 
REMARK    2  A    between atoms: C_11  and  C_7 
REMARK    3  A    between atoms: C_12  and  C_10 
ROOT
ATOM      1  N   UNL d   1     -50.452  25.128  33.402  0.00  0.00    -0.186 N 
ATOM      2  N   UNL d   1     -51.276  24.987  33.444  0.00  0.00    -0.162 NA
ATOM      3  C   UNL d   1     -49.933  24.479  33.335  0.00  0.00     0.217 A 
ATOM      4  C   UNL d   1     -50.005  25.810  33.413  0.00  0.00     0.187 A 
ATOM      5  N   UNL d   1     -49.212  25.603  33.355  0.00  0.00    -0.127 NA
ATOM      6  N   UNL d   1     -49.172  24.790  33.307  0.00  0.00    -0.120 NA
ATOM      7  C   UNL d   1     -51.568  24.220  33.418  0.00  0.00     0.108 A 
ATOM      8  S   UNL d   1     -50.245  23.720  33.311  0.00  0.00    -0.045 SA
ATOM      9  C   UNL d   1     -51.049  23.571  33.351  0.00  0.00     0.059 A 
ENDROOT
BRANCH   4  10
ATOM     10  C   UNL d   1     -50.275  26.577  33.472  0.00  0.00     0.041 C 
BRANCH  10  11
ATOM     11  C   UNL d   1     -49.789  27.152  33.773  0.00  0.00     0.003 A 
ATOM     12  C   UNL d   1     -49.721  27.881  33.400  0.00  0.00     0.000 A 
ATOM     13  C   UNL d   1     -49.229  28.472  33.698  0.00  0.00     0.000 A 
ATOM     14  C   UNL d   1     -48.804  28.326  34.378  0.00  0.00     0.000 A 
ATOM     15  C   UNL d   1     -48.870  27.600  34.754  0.00  0.00     0.000 A 
ATOM     16  C   UNL d   1     -49.354  27.015  34.462  0.00  0.00     0.000 A 
ENDBRANCH  10  11
ENDBRANCH   4  10
BRANCH   7  17
ATOM     17  C   UNL d   1     -52.387  24.091  33.460  0.00  0.00     0.020 A 
ATOM     18  C   UNL d   1     -52.679  23.336  33.641  0.00  0.00     0.002 A 
ATOM     19  C   UNL d   1     -53.498  23.194  33.685  0.00  0.00     0.000 A 
ATOM     20  C   UNL d   1     -54.029  23.826  33.545  0.00  0.00     0.000 A 
ATOM     21  C   UNL d   1     -53.746  24.571  33.367  0.00  0.00     0.000 A 
ATOM     22  C   UNL d   1     -52.921  24.712  33.323  0.00  0.00     0.002 A 
ENDBRANCH   7  17
TORSDOF 3
ENDMDL
