MODEL 1
REMARK VINA RESULT:      -5.4      0.000      0.000
REMARK  3 active torsions:
REMARK  status: ('A' for Active; 'I' for Inactive)
REMARK    1  A    between atoms: C_3  and  C_1 
REMARK    2  A    between atoms: C_5  and  C_3 
REMARK    3  A    between atoms: C_10  and  C_5 
ROOT
ATOM      1  C   UNL d   1      57.452   0.368  31.679  0.00  0.00     0.109 C 
ATOM      2  C   UNL d   1      57.938   0.526  32.327  0.00  0.00     0.105 C 
ATOM      3  N   UNL d   1      58.426   0.682  32.969  0.00  0.00    -0.191 NA
ENDROOT
BRANCH   1   4
ATOM      4  C   UNL d   1      57.790   0.149  30.958  0.00  0.00     0.192 A 
ATOM      5  N   UNL d   1      57.921   0.653  30.306  0.00  0.00    -0.220 NA
ATOM      6  C   UNL d   1      58.267   0.205  29.709  0.00  0.00     0.106 A 
ATOM      7  C   UNL d   1      58.517   0.408  28.943  0.00  0.00     0.021 A 
ATOM      8  C   UNL d   1      58.352  -0.569  29.980  0.00  0.00     0.119 A 
ATOM      9  C   UNL d   1      58.852  -0.170  28.455  0.00  0.00     0.002 A 
ATOM     10  C   UNL d   1      58.939  -0.946  28.723  0.00  0.00     0.002 A 
ATOM     11  C   UNL d   1      58.692  -1.151  29.482  0.00  0.00     0.026 A 
ATOM     12  O   UNL d   1      58.057  -0.602  30.751  0.00  0.00    -0.287 OA
ENDBRANCH   1   4
BRANCH   1  13
ATOM     13  C   UNL d   1      56.638   0.429  31.750  0.00  0.00     0.014 C 
BRANCH  13  14
ATOM     14  C   UNL d   1      56.249   0.033  32.359  0.00  0.00     0.004 A 
ATOM     15  C   UNL d   1      55.948   0.458  32.996  0.00  0.00     0.042 A 
ATOM     16  C   UNL d   1      55.559   0.058  33.604  0.00  0.00     0.196 A 
ATOM     17  O   UNL d   1      55.254   0.479  34.248  0.00  0.00    -0.287 OA
ATOM     18  C   UNL d   1      55.470  -0.760  33.579  0.00  0.00     0.042 A 
ATOM     19  C   UNL d   1      55.778  -1.183  32.930  0.00  0.00     0.003 A 
ATOM     20  C   UNL d   1      56.167  -0.787  32.320  0.00  0.00     0.000 A 
ENDBRANCH  13  14
ENDBRANCH   1  13
TORSDOF 3
ENDMDL
MODEL 2
REMARK VINA RESULT:      -5.1      1.168      1.562
REMARK  3 active torsions:
REMARK  status: ('A' for Active; 'I' for Inactive)
REMARK    1  A    between atoms: C_3  and  C_1 
REMARK    2  A    between atoms: C_5  and  C_3 
REMARK    3  A    between atoms: C_10  and  C_5 
ROOT
ATOM      1  C   UNL d   1      56.584  -0.029  32.007  0.00  0.00     0.109 C 
ATOM      2  C   UNL d   1      56.449  -0.803  32.258  0.00  0.00     0.105 C 
ATOM      3  N   UNL d   1      56.319  -1.577  32.504  0.00  0.00    -0.191 NA
ENDROOT
BRANCH   1   4
ATOM      4  C   UNL d   1      57.191   0.127  31.469  0.00  0.00     0.192 A 
ATOM      5  N   UNL d   1      57.094   0.285  30.656  0.00  0.00    -0.220 NA
ATOM      6  C   UNL d   1      57.840   0.408  30.333  0.00  0.00     0.106 A 
ATOM      7  C   UNL d   1      58.083   0.585  29.559  0.00  0.00     0.021 A 
ATOM      8  C   UNL d   1      58.399   0.329  30.934  0.00  0.00     0.119 A 
ATOM      9  C   UNL d   1      58.889   0.680  29.394  0.00  0.00     0.002 A 
ATOM     10  C   UNL d   1      59.451   0.601  29.993  0.00  0.00     0.002 A 
ATOM     11  C   UNL d   1      59.214   0.426  30.762  0.00  0.00     0.026 A 
ATOM     12  O   UNL d   1      57.997   0.155  31.634  0.00  0.00    -0.287 OA
ENDBRANCH   1   4
BRANCH   1  13
ATOM     13  C   UNL d   1      56.119   0.582  32.291  0.00  0.00     0.014 C 
BRANCH  13  14
ATOM     14  C   UNL d   1      55.928   0.615  33.093  0.00  0.00     0.004 A 
ATOM     15  C   UNL d   1      55.139   0.631  33.325  0.00  0.00     0.042 A 
ATOM     16  C   UNL d   1      54.953   0.664  34.128  0.00  0.00     0.196 A 
ATOM     17  O   UNL d   1      54.161   0.681  34.369  0.00  0.00    -0.287 OA
ATOM     18  C   UNL d   1      55.548   0.681  34.697  0.00  0.00     0.042 A 
ATOM     19  C   UNL d   1      56.345   0.664  34.453  0.00  0.00     0.003 A 
ATOM     20  C   UNL d   1      56.535   0.632  33.651  0.00  0.00     0.000 A 
ENDBRANCH  13  14
ENDBRANCH   1  13
TORSDOF 3
ENDMDL
MODEL 3
REMARK VINA RESULT:      -4.9      1.059      4.156
REMARK  3 active torsions:
REMARK  status: ('A' for Active; 'I' for Inactive)
REMARK    1  A    between atoms: C_3  and  C_1 
REMARK    2  A    between atoms: C_5  and  C_3 
REMARK    3  A    between atoms: C_10  and  C_5 
ROOT
ATOM      1  C   UNL d   1      57.850   0.350  31.061  0.00  0.00     0.109 C 
ATOM      2  C   UNL d   1      58.608   0.517  31.340  0.00  0.00     0.105 C 
ATOM      3  N   UNL d   1      59.361   0.682  31.623  0.00  0.00    -0.191 NA
ENDROOT
BRANCH   1   4
ATOM      4  C   UNL d   1      57.256   0.135  31.594  0.00  0.00     0.192 A 
ATOM      5  N   UNL d   1      56.785   0.660  32.039  0.00  0.00    -0.220 NA
ATOM      6  C   UNL d   1      56.269   0.210  32.494  0.00  0.00     0.106 A 
ATOM      7  C   UNL d   1      55.679   0.429  33.037  0.00  0.00     0.021 A 
ATOM      8  C   UNL d   1      56.411  -0.587  32.337  0.00  0.00     0.119 A 
ATOM      9  C   UNL d   1      55.237  -0.158  33.419  0.00  0.00     0.002 A 
ATOM     10  C   UNL d   1      55.377  -0.956  33.265  0.00  0.00     0.002 A 
ATOM     11  C   UNL d   1      55.960  -1.177  32.727  0.00  0.00     0.026 A 
ATOM     12  O   UNL d   1      57.021  -0.632  31.782  0.00  0.00    -0.287 OA
ENDBRANCH   1   4
BRANCH   1  13
ATOM     13  C   UNL d   1      57.685   0.397  30.260  0.00  0.00     0.014 C 
BRANCH  13  14
ATOM     14  C   UNL d   1      58.215   0.079  29.713  0.00  0.00     0.004 A 
ATOM     15  C   UNL d   1      58.329  -0.735  29.681  0.00  0.00     0.042 A 
ATOM     16  C   UNL d   1      58.859  -1.050  29.133  0.00  0.00     0.196 A 
ATOM     17  O   UNL d   1      58.979  -1.868  29.095  0.00  0.00    -0.287 OA
ATOM     18  C   UNL d   1      59.274  -0.558  28.620  0.00  0.00     0.042 A 
ATOM     19  C   UNL d   1      59.153   0.266  28.659  0.00  0.00     0.003 A 
ATOM     20  C   UNL d   1      58.623   0.584  29.206  0.00  0.00     0.000 A 
ENDBRANCH  13  14
ENDBRANCH   1  13
TORSDOF 3
ENDMDL
MODEL 4
REMARK VINA RESULT:      -4.2      1.411      4.454
REMARK  3 active torsions:
REMARK  status: ('A' for Active; 'I' for Inactive)
REMARK    1  A    between atoms: C_3  and  C_1 
REMARK    2  A    between atoms: C_5  and  C_3 
REMARK    3  A    between atoms: C_10  and  C_5 
ROOT
ATOM      1  C   UNL d   1      56.842   0.057  31.761  0.00  0.00     0.109 C 
ATOM      2  C   UNL d   1      56.991  -0.720  31.528  0.00  0.00     0.105 C 
ATOM      3  N   UNL d   1      57.136  -1.496  31.301  0.00  0.00    -0.191 NA
ENDROOT
BRANCH   1   4
ATOM      4  C   UNL d   1      56.454   0.203  32.476  0.00  0.00     0.192 A 
ATOM      5  N   UNL d   1      55.631   0.291  32.575  0.00  0.00    -0.220 NA
ATOM      6  C   UNL d   1      55.488   0.428  33.373  0.00  0.00     0.106 A 
ATOM      7  C   UNL d   1      54.782   0.556  33.793  0.00  0.00     0.021 A 
ATOM      8  C   UNL d   1      56.211   0.427  33.771  0.00  0.00     0.119 A 
ATOM      9  C   UNL d   1      54.809   0.682  34.610  0.00  0.00     0.002 A 
ATOM     10  C   UNL d   1      55.530   0.682  35.012  0.00  0.00     0.002 A 
ATOM     11  C   UNL d   1      56.232   0.556  34.599  0.00  0.00     0.026 A 
ATOM     12  O   UNL d   1      56.806   0.288  33.215  0.00  0.00    -0.287 OA
ENDBRANCH   1   4
BRANCH   1  13
ATOM     13  C   UNL d   1      57.078   0.682  31.287  0.00  0.00     0.014 C 
BRANCH  13  14
ATOM     14  C   UNL d   1      57.765   0.617  30.835  0.00  0.00     0.004 A 
ATOM     15  C   UNL d   1      57.710   0.488  30.024  0.00  0.00     0.042 A 
ATOM     16  C   UNL d   1      58.399   0.424  29.575  0.00  0.00     0.196 A 
ATOM     17  O   UNL d   1      58.351   0.294  28.758  0.00  0.00    -0.287 OA
ATOM     18  C   UNL d   1      59.139   0.486  29.930  0.00  0.00     0.042 A 
ATOM     19  C   UNL d   1      59.186   0.617  30.752  0.00  0.00     0.003 A 
ATOM     20  C   UNL d   1      58.499   0.682  31.204  0.00  0.00     0.000 A 
ENDBRANCH  13  14
ENDBRANCH   1  13
TORSDOF 3
ENDMDL
MODEL 5
REMARK VINA RESULT:      -3.9      1.419      2.216
REMARK  3 active torsions:
REMARK  status: ('A' for Active; 'I' for Inactive)
REMARK    1  A    between atoms: C_3  and  C_1 
REMARK    2  A    between atoms: C_5  and  C_3 
REMARK    3  A    between atoms: C_10  and  C_5 
ROOT
ATOM      1  C   UNL d   1      58.145  -0.165  30.170  0.00  0.00     0.109 C 
ATOM      2  C   UNL d   1      57.613   0.260  29.706  0.00  0.00     0.105 C 
ATOM      3  N   UNL d   1      57.084   0.681  29.237  0.00  0.00    -0.191 NA
ENDROOT
BRANCH   1   4
ATOM      4  C   UNL d   1      58.618  -0.747  29.823  0.00  0.00     0.192 A 
ATOM      5  N   UNL d   1      59.397  -0.641  29.545  0.00  0.00    -0.220 NA
ATOM      6  C   UNL d   1      59.656  -1.361  29.244  0.00  0.00     0.106 A 
ATOM      7  C   UNL d   1      60.376  -1.586  28.897  0.00  0.00     0.021 A 
ATOM      8  C   UNL d   1      59.049  -1.913  29.332  0.00  0.00     0.119 A 
ATOM      9  C   UNL d   1      60.481  -2.367  28.641  0.00  0.00     0.002 A 
ATOM     10  C   UNL d   1      59.876  -2.921  28.727  0.00  0.00     0.002 A 
ATOM     11  C   UNL d   1      59.160  -2.702  29.070  0.00  0.00     0.026 A 
ATOM     12  O   UNL d   1      58.409  -1.532  29.689  0.00  0.00    -0.287 OA
ENDBRANCH   1   4
BRANCH   1  13
ATOM     13  C   UNL d   1      58.205  -0.012  30.973  0.00  0.00     0.014 C 
BRANCH  13  14
ATOM     14  C   UNL d   1      57.529  -0.030  31.446  0.00  0.00     0.004 A 
ATOM     15  C   UNL d   1      57.188  -0.752  31.644  0.00  0.00     0.042 A 
ATOM     16  C   UNL d   1      56.512  -0.765  32.117  0.00  0.00     0.196 A 
ATOM     17  O   UNL d   1      56.164  -1.488  32.320  0.00  0.00    -0.287 OA
ATOM     18  C   UNL d   1      56.177  -0.065  32.391  0.00  0.00     0.042 A 
ATOM     19  C   UNL d   1      56.528   0.662  32.185  0.00  0.00     0.003 A 
ATOM     20  C   UNL d   1      57.204   0.680  31.712  0.00  0.00     0.000 A 
ENDBRANCH  13  14
ENDBRANCH   1  13
TORSDOF 3
ENDMDL
