MODEL 1
REMARK VINA RESULT:      -3.1      0.000      0.000
REMARK  4 active torsions:
REMARK  status: ('A' for Active; 'I' for Inactive)
REMARK    1  A    between atoms: C_7  and  N_1 
REMARK    2  A    between atoms: C_6  and  C_8 
REMARK    3  A    between atoms: O_16  and  C_6 
REMARK    4  A    between atoms: C_17  and  O_16 
ROOT
ATOM      1  C   UNL d   1      32.691  21.735 -21.343  0.00  0.00     0.070 A 
ATOM      2  C   UNL d   1      32.991  20.331 -22.154  0.00  0.00     0.064 A 
ATOM      3  C   UNL d   1      32.435  21.016 -21.021  0.00  0.00     0.018 A 
ATOM      4  C   UNL d   1      33.091  21.746 -22.062  0.00  0.00     0.018 A 
ATOM      5  C   UNL d   1      32.584  20.307 -21.426  0.00  0.00     0.007 A 
ATOM      6  C   UNL d   1      33.240  21.050 -22.465  0.00  0.00     0.007 A 
ENDROOT
BRANCH   1   7
ATOM      7  N   UNL d   1      32.547  22.444 -20.947  0.00  0.00    -0.242 N 
ATOM      8  C   UNL d   1      32.800  22.629 -20.171  0.00  0.00     0.267 A 
ATOM      9  C   UNL d   1      32.541  23.390 -19.987  0.00  0.00     0.066 A 
ATOM     10  O   UNL d   1      33.236  22.158 -19.648  0.00  0.00    -0.267 OA
ATOM     11  C   UNL d   1      32.127  23.682 -20.644  0.00  0.00     0.066 A 
ATOM     12  C   UNL d   1      32.131  23.105 -21.228  0.00  0.00     0.267 A 
ATOM     13  O   UNL d   1      31.763  23.213 -21.968  0.00  0.00    -0.267 OA
ENDBRANCH   1   7
BRANCH   2  14
ATOM     14  C   UNL d   1      33.140  19.630 -22.558  0.00  0.00     0.300 C 
ATOM     15  O   UNL d   1      33.241  18.914 -22.124  0.00  0.00    -0.259 OA
BRANCH  14  16
ATOM     16  O   UNL d   1      33.191  19.624 -23.384  0.00  0.00    -0.271 OA
BRANCH  16  17
ATOM     17  C   UNL d   1      33.203  18.898 -23.797  0.00  0.00     0.126 C 
ATOM     18  C   UNL d   1      32.770  18.832 -24.488  0.00  0.00     0.029 C 
ENDBRANCH  16  17
ENDBRANCH  14  16
ENDBRANCH   2  14
TORSDOF 4
ENDMDL
MODEL 2
REMARK VINA RESULT:      -2.6      1.098      4.065
REMARK  4 active torsions:
REMARK  status: ('A' for Active; 'I' for Inactive)
REMARK    1  A    between atoms: C_7  and  N_1 
REMARK    2  A    between atoms: C_6  and  C_8 
REMARK    3  A    between atoms: O_16  and  C_6 
REMARK    4  A    between atoms: C_17  and  O_16 
ROOT
ATOM      1  C   UNL d   1      32.743  21.102 -21.756  0.00  0.00     0.070 A 
ATOM      2  C   UNL d   1      32.456  22.416 -20.802  0.00  0.00     0.064 A 
ATOM      3  C   UNL d   1      33.241  21.762 -21.811  0.00  0.00     0.018 A 
ATOM      4  C   UNL d   1      32.112  21.104 -21.229  0.00  0.00     0.018 A 
ATOM      5  C   UNL d   1      33.100  22.426 -21.333  0.00  0.00     0.007 A 
ATOM      6  C   UNL d   1      31.968  21.756 -20.755  0.00  0.00     0.007 A 
ENDROOT
BRANCH   1   7
ATOM      7  N   UNL d   1      32.877  20.438 -22.228  0.00  0.00    -0.242 N 
ATOM      8  C   UNL d   1      33.075  19.675 -21.950  0.00  0.00     0.267 A 
ATOM      9  C   UNL d   1      33.160  19.175 -22.601  0.00  0.00     0.066 A 
ATOM     10  O   UNL d   1      33.177  19.424 -21.167  0.00  0.00    -0.267 OA
ATOM     11  C   UNL d   1      33.015  19.623 -23.284  0.00  0.00     0.066 A 
ATOM     12  C   UNL d   1      32.843  20.392 -23.056  0.00  0.00     0.267 A 
ATOM     13  O   UNL d   1      32.669  20.994 -23.605  0.00  0.00    -0.267 OA
ENDBRANCH   1   7
BRANCH   2  14
ATOM     14  C   UNL d   1      32.314  23.072 -20.326  0.00  0.00     0.300 C 
ATOM     15  O   UNL d   1      31.800  23.681 -20.602  0.00  0.00    -0.259 OA
BRANCH  14  16
ATOM     16  O   UNL d   1      32.670  23.136 -19.583  0.00  0.00    -0.271 OA
BRANCH  16  17
ATOM     17  C   UNL d   1      32.392  23.702 -19.033  0.00  0.00     0.126 C 
ATOM     18  C   UNL d   1      32.663  23.665 -18.262  0.00  0.00     0.029 C 
ENDBRANCH  16  17
ENDBRANCH  14  16
ENDBRANCH   2  14
TORSDOF 4
ENDMDL
MODEL 3
REMARK VINA RESULT:      -2.5      2.644      5.507
REMARK  4 active torsions:
REMARK  status: ('A' for Active; 'I' for Inactive)
REMARK    1  A    between atoms: C_7  and  N_1 
REMARK    2  A    between atoms: C_6  and  C_8 
REMARK    3  A    between atoms: O_16  and  C_6 
REMARK    4  A    between atoms: C_17  and  O_16 
ROOT
ATOM      1  C   UNL d   1      32.087  17.466 -23.843  0.00  0.00     0.070 A 
ATOM      2  C   UNL d   1      32.703  18.914 -23.351  0.00  0.00     0.064 A 
ATOM      3  C   UNL d   1      32.368  18.003 -24.409  0.00  0.00     0.018 A 
ATOM      4  C   UNL d   1      32.117  17.656 -23.044  0.00  0.00     0.018 A 
ATOM      5  C   UNL d   1      32.679  18.733 -24.166  0.00  0.00     0.007 A 
ATOM      6  C   UNL d   1      32.422  18.374 -22.798  0.00  0.00     0.007 A 
ENDROOT
BRANCH   1   7
ATOM      7  N   UNL d   1      31.777  16.738 -24.078  0.00  0.00    -0.242 N 
ATOM      8  C   UNL d   1      30.964  16.553 -24.140  0.00  0.00     0.267 A 
ATOM      9  C   UNL d   1      30.894  15.770 -24.391  0.00  0.00     0.066 A 
ATOM     10  O   UNL d   1      30.313  17.042 -23.987  0.00  0.00    -0.267 OA
ATOM     11  C   UNL d   1      31.659  15.465 -24.486  0.00  0.00     0.066 A 
ATOM     12  C   UNL d   1      32.196  16.056 -24.294  0.00  0.00     0.267 A 
ATOM     13  O   UNL d   1      33.021  15.940 -24.328  0.00  0.00    -0.267 OA
ENDBRANCH   1   7
BRANCH   2  14
ATOM     14  C   UNL d   1      33.011  19.637 -23.106  0.00  0.00     0.300 C 
ATOM     15  O   UNL d   1      33.236  20.209 -23.683  0.00  0.00    -0.259 OA
BRANCH  14  16
ATOM     16  O   UNL d   1      33.099  19.804 -22.301  0.00  0.00    -0.271 OA
BRANCH  16  17
ATOM     17  C   UNL d   1      33.162  20.597 -22.042  0.00  0.00     0.126 C 
ATOM     18  C   UNL d   1      33.241  20.743 -21.241  0.00  0.00     0.029 C 
ENDBRANCH  16  17
ENDBRANCH  14  16
ENDBRANCH   2  14
TORSDOF 4
ENDMDL
MODEL 4
REMARK VINA RESULT:      -2.0      4.885      6.523
REMARK  4 active torsions:
REMARK  status: ('A' for Active; 'I' for Inactive)
REMARK    1  A    between atoms: C_7  and  N_1 
REMARK    2  A    between atoms: C_6  and  C_8 
REMARK    3  A    between atoms: O_16  and  C_6 
REMARK    4  A    between atoms: C_17  and  O_16 
ROOT
ATOM      1  C   UNL d   1      31.148  16.736 -24.511  0.00  0.00     0.070 A 
ATOM      2  C   UNL d   1      29.604  16.203 -24.283  0.00  0.00     0.064 A 
ATOM      3  C   UNL d   1      30.547  17.000 -25.017  0.00  0.00     0.018 A 
ATOM      4  C   UNL d   1      30.974  16.213 -23.901  0.00  0.00     0.018 A 
ATOM      5  C   UNL d   1      29.769  16.734 -24.906  0.00  0.00     0.007 A 
ATOM      6  C   UNL d   1      30.208  15.948 -23.786  0.00  0.00     0.007 A 
ENDROOT
BRANCH   1   7
ATOM      7  N   UNL d   1      31.925  16.995 -24.615  0.00  0.00    -0.242 N 
ATOM      8  C   UNL d   1      32.565  16.523 -24.874  0.00  0.00     0.267 A 
ATOM      9  C   UNL d   1      33.241  16.996 -24.903  0.00  0.00     0.066 A 
ATOM     10  O   UNL d   1      32.563  15.720 -25.076  0.00  0.00    -0.267 OA
ATOM     11  C   UNL d   1      33.026  17.760 -24.663  0.00  0.00     0.066 A 
ATOM     12  C   UNL d   1      32.224  17.759 -24.489  0.00  0.00     0.267 A 
ATOM     13  O   UNL d   1      31.820  18.440 -24.229  0.00  0.00    -0.267 OA
ENDBRANCH   1   7
BRANCH   2  14
ATOM     14  C   UNL d   1      28.834  15.938 -24.169  0.00  0.00     0.300 C 
ATOM     15  O   UNL d   1      28.471  15.453 -24.756  0.00  0.00    -0.259 OA
BRANCH  14  16
ATOM     16  O   UNL d   1      28.416  16.144 -23.486  0.00  0.00    -0.271 OA
BRANCH  16  17
ATOM     17  C   UNL d   1      27.630  15.878 -23.380  0.00  0.00     0.126 C 
ATOM     18  C   UNL d   1      27.152  16.269 -22.844  0.00  0.00     0.029 C 
ENDBRANCH  16  17
ENDBRANCH  14  16
ENDBRANCH   2  14
TORSDOF 4
ENDMDL
MODEL 5
REMARK VINA RESULT:      -1.6      1.748      4.529
REMARK  4 active torsions:
REMARK  status: ('A' for Active; 'I' for Inactive)
REMARK    1  A    between atoms: C_7  and  N_1 
REMARK    2  A    between atoms: C_6  and  C_8 
REMARK    3  A    between atoms: O_16  and  C_6 
REMARK    4  A    between atoms: C_17  and  O_16 
ROOT
ATOM      1  C   UNL d   1      32.829  18.916 -23.339  0.00  0.00     0.070 A 
ATOM      2  C   UNL d   1      33.000  20.177 -22.290  0.00  0.00     0.064 A 
ATOM      3  C   UNL d   1      33.124  19.639 -23.616  0.00  0.00     0.018 A 
ATOM      4  C   UNL d   1      32.624  18.829 -22.548  0.00  0.00     0.018 A 
ATOM      5  C   UNL d   1      33.212  20.276 -23.092  0.00  0.00     0.007 A 
ATOM      6  C   UNL d   1      32.708  19.454 -22.026  0.00  0.00     0.007 A 
ENDROOT
BRANCH   1   7
ATOM      7  N   UNL d   1      32.739  18.277 -23.855  0.00  0.00    -0.242 N 
ATOM      8  C   UNL d   1      32.920  17.480 -23.678  0.00  0.00     0.267 A 
ATOM      9  C   UNL d   1      32.750  17.022 -24.343  0.00  0.00     0.066 A 
ATOM     10  O   UNL d   1      33.218  17.165 -22.973  0.00  0.00    -0.267 OA
ATOM     11  C   UNL d   1      32.464  17.529 -24.934  0.00  0.00     0.066 A 
ATOM     12  C   UNL d   1      32.458  18.293 -24.635  0.00  0.00     0.267 A 
ATOM     13  O   UNL d   1      32.201  18.948 -25.083  0.00  0.00    -0.267 OA
ENDBRANCH   1   7
BRANCH   2  14
ATOM     14  C   UNL d   1      33.086  20.806 -21.768  0.00  0.00     0.300 C 
ATOM     15  O   UNL d   1      33.240  20.652 -20.953  0.00  0.00    -0.259 OA
BRANCH  14  16
ATOM     16  O   UNL d   1      33.021  21.586 -22.036  0.00  0.00    -0.271 OA
BRANCH  16  17
ATOM     17  C   UNL d   1      32.797  22.193 -21.507  0.00  0.00     0.126 C 
ATOM     18  C   UNL d   1      32.987  22.967 -21.695  0.00  0.00     0.029 C 
ENDBRANCH  16  17
ENDBRANCH  14  16
ENDBRANCH   2  14
TORSDOF 4
ENDMDL
MODEL 6
REMARK VINA RESULT:      -1.2      1.113      1.939
REMARK  4 active torsions:
REMARK  status: ('A' for Active; 'I' for Inactive)
REMARK    1  A    between atoms: C_7  and  N_1 
REMARK    2  A    between atoms: C_6  and  C_8 
REMARK    3  A    between atoms: O_16  and  C_6 
REMARK    4  A    between atoms: C_17  and  O_16 
ROOT
ATOM      1  C   UNL d   1      33.228  20.891 -22.060  0.00  0.00     0.070 A 
ATOM      2  C   UNL d   1      33.220  19.485 -22.922  0.00  0.00     0.064 A 
ATOM      3  C   UNL d   1      33.240  20.921 -22.888  0.00  0.00     0.018 A 
ATOM      4  C   UNL d   1      33.212  20.166 -21.673  0.00  0.00     0.018 A 
ATOM      5  C   UNL d   1      33.236  20.216 -23.326  0.00  0.00     0.007 A 
ATOM      6  C   UNL d   1      33.208  19.467 -22.100  0.00  0.00     0.007 A 
ENDROOT
BRANCH   1   7
ATOM      7  N   UNL d   1      33.232  21.588 -21.618  0.00  0.00    -0.242 N 
ATOM      8  C   UNL d   1      33.231  22.364 -21.931  0.00  0.00     0.267 A 
ATOM      9  C   UNL d   1      33.235  22.898 -21.303  0.00  0.00     0.066 A 
ATOM     10  O   UNL d   1      33.227  22.596 -22.726  0.00  0.00    -0.267 OA
ATOM     11  C   UNL d   1      33.239  22.460 -20.598  0.00  0.00     0.066 A 
ATOM     12  C   UNL d   1      33.236  21.662 -20.792  0.00  0.00     0.267 A 
ATOM     13  O   UNL d   1      33.239  21.061 -20.214  0.00  0.00    -0.267 OA
ENDBRANCH   1   7
BRANCH   2  14
ATOM     14  C   UNL d   1      33.216  18.784 -23.353  0.00  0.00     0.300 C 
ATOM     15  O   UNL d   1      33.240  18.815 -24.195  0.00  0.00    -0.259 OA
BRANCH  14  16
ATOM     16  O   UNL d   1      33.189  18.054 -22.965  0.00  0.00    -0.271 OA
BRANCH  16  17
ATOM     17  C   UNL d   1      33.159  17.346 -23.409  0.00  0.00     0.126 C 
ATOM     18  C   UNL d   1      33.187  16.632 -23.010  0.00  0.00     0.029 C 
ENDBRANCH  16  17
ENDBRANCH  14  16
ENDBRANCH   2  14
TORSDOF 4
ENDMDL
MODEL 7
REMARK VINA RESULT:      -0.9      3.164      4.915
REMARK  4 active torsions:
REMARK  status: ('A' for Active; 'I' for Inactive)
REMARK    1  A    between atoms: C_7  and  N_1 
REMARK    2  A    between atoms: C_6  and  C_8 
REMARK    3  A    between atoms: O_16  and  C_6 
REMARK    4  A    between atoms: C_17  and  O_16 
ROOT
ATOM      1  C   UNL d   1      32.032  18.173 -24.078  0.00  0.00     0.070 A 
ATOM      2  C   UNL d   1      31.097  16.913 -24.586  0.00  0.00     0.064 A 
ATOM      3  C   UNL d   1      31.488  18.291 -24.692  0.00  0.00     0.018 A 
ATOM      4  C   UNL d   1      32.104  17.433 -23.727  0.00  0.00     0.018 A 
ATOM      5  C   UNL d   1      31.015  17.660 -24.951  0.00  0.00     0.007 A 
ATOM      6  C   UNL d   1      31.640  16.807 -23.977  0.00  0.00     0.007 A 
ENDROOT
BRANCH   1   7
ATOM      7  N   UNL d   1      32.506  18.795 -23.816  0.00  0.00    -0.242 N 
ATOM      8  C   UNL d   1      32.790  19.424 -24.289  0.00  0.00     0.267 A 
ATOM      9  C   UNL d   1      33.241  19.925 -23.813  0.00  0.00     0.066 A 
ATOM     10  O   UNL d   1      32.664  19.556 -25.097  0.00  0.00    -0.267 OA
ATOM     11  C   UNL d   1      33.240  19.612 -23.044  0.00  0.00     0.066 A 
ATOM     12  C   UNL d   1      32.792  18.924 -23.048  0.00  0.00     0.267 A 
ATOM     13  O   UNL d   1      32.673  18.464 -22.363  0.00  0.00    -0.267 OA
ENDBRANCH   1   7
BRANCH   2  14
ATOM     14  C   UNL d   1      30.629  16.285 -24.839  0.00  0.00     0.300 C 
ATOM     15  O   UNL d   1      30.975  15.522 -24.931  0.00  0.00    -0.259 OA
BRANCH  14  16
ATOM     16  O   UNL d   1      29.827  16.399 -25.003  0.00  0.00    -0.271 OA
BRANCH  16  17
ATOM     17  C   UNL d   1      29.259  15.863 -24.706  0.00  0.00     0.126 C 
ATOM     18  C   UNL d   1      28.476  16.100 -24.670  0.00  0.00     0.029 C 
ENDBRANCH  16  17
ENDBRANCH  14  16
ENDBRANCH   2  14
TORSDOF 4
ENDMDL
