MODEL 1
REMARK VINA RESULT:      45.6      0.000      0.000
REMARK  7 active torsions:
REMARK  status: ('A' for Active; 'I' for Inactive)
REMARK    1  A    between atoms: S_10  and  C_3 
REMARK    2  A    between atoms: C_12  and  C_7 
REMARK    3  A    between atoms: C_19  and  S_10 
REMARK    4  A    between atoms: C_11  and  C_19 
REMARK       I    between atoms: N_14  and  C_11 
REMARK    5  A    between atoms: C_13  and  C_15 
REMARK    6  A    between atoms: C_15  and  N_14 
REMARK    7  A    between atoms: O_21  and  C_17 
ROOT
ATOM      1  N   UNL d   1      46.335 -19.020  41.231  0.00  0.00    -0.186 N 
ATOM      2  N   UNL d   1      46.289 -18.745  41.998  0.00  0.00    -0.162 NA
ATOM      3  C   UNL d   1      46.231 -18.641  40.503  0.00  0.00     0.217 A 
ATOM      4  C   UNL d   1      46.513 -19.808  41.075  0.00  0.00     0.187 A 
ATOM      5  N   UNL d   1      46.346 -19.198  39.916  0.00  0.00    -0.120 NA
ATOM      6  N   UNL d   1      46.521 -19.922  40.269  0.00  0.00    -0.127 NA
ATOM      7  C   UNL d   1      46.423 -19.267  42.625  0.00  0.00     0.103 A 
ATOM      8  C   UNL d   1      46.647 -20.330  41.707  0.00  0.00     0.042 A 
ATOM      9  C   UNL d   1      46.602 -20.060  42.474  0.00  0.00     0.024 A 
ENDROOT
BRANCH   3  10
ATOM     10  S   UNL d   1      46.046 -17.849  40.371  0.00  0.00    -0.041 SA
BRANCH  10  11
ATOM     11  C   UNL d   1      45.723 -17.612  39.664  0.00  0.00     0.101 C 
BRANCH  11  12
ATOM     12  C   UNL d   1      44.965 -17.318  39.638  0.00  0.00     0.286 C 
ATOM     13  N   UNL d   1      44.715 -16.871  38.992  0.00  0.00    -0.206 NA
ATOM     14  O   UNL d   1      44.430 -17.458  40.252  0.00  0.00    -0.265 OA
BRANCH  13  15
ATOM     15  C   UNL d   1      45.242 -16.725  38.374  0.00  0.00     0.104 C 
BRANCH  15  16
ATOM     16  C   UNL d   1      44.987 -16.311  37.707  0.00  0.00     0.042 A 
ATOM     17  C   UNL d   1      45.494 -15.767  37.338  0.00  0.00     0.096 A 
ATOM     18  C   UNL d   1      45.243 -15.349  36.670  0.00  0.00     0.024 A 
ATOM     19  C   UNL d   1      44.476 -15.482  36.373  0.00  0.00     0.002 A 
ATOM     20  C   UNL d   1      43.977 -16.023  36.744  0.00  0.00     0.000 A 
ATOM     21  C   UNL d   1      44.229 -16.436  37.407  0.00  0.00     0.004 A 
BRANCH  17  22
ATOM     22  O   UNL d   1      46.253 -15.636  37.632  0.00  0.00    -0.328 OA
ATOM     23  C   UNL d   1      46.647 -14.942  37.461  0.00  0.00     0.181 C 
ENDBRANCH  17  22
ENDBRANCH  15  16
ENDBRANCH  13  15
ENDBRANCH  11  12
ENDBRANCH  10  11
ENDBRANCH   3  10
BRANCH   7  24
ATOM     24  C   UNL d   1      46.375 -18.983  43.399  0.00  0.00     0.039 A 
ATOM     25  C   UNL d   1      46.340 -18.190  43.550  0.00  0.00     0.101 A 
ATOM     26  N   UNL d   1      46.293 -17.917  44.312  0.00  0.00    -0.242 NA
ATOM     27  C   UNL d   1      46.281 -18.447  44.945  0.00  0.00     0.099 A 
ATOM     28  C   UNL d   1      46.316 -19.254  44.792  0.00  0.00     0.021 A 
ATOM     29  C   UNL d   1      46.364 -19.530  44.016  0.00  0.00     0.005 A 
ENDBRANCH   7  24
TORSDOF 7
ENDMDL
MODEL 2
REMARK VINA RESULT:      47.0      1.440      6.192
REMARK  7 active torsions:
REMARK  status: ('A' for Active; 'I' for Inactive)
REMARK    1  A    between atoms: S_10  and  C_3 
REMARK    2  A    between atoms: C_12  and  C_7 
REMARK    3  A    between atoms: C_19  and  S_10 
REMARK    4  A    between atoms: C_11  and  C_19 
REMARK       I    between atoms: N_14  and  C_11 
REMARK    5  A    between atoms: C_13  and  C_15 
REMARK    6  A    between atoms: C_15  and  N_14 
REMARK    7  A    between atoms: O_21  and  C_17 
ROOT
ATOM      1  N   UNL d   1      45.262 -16.241  38.074  0.00  0.00    -0.186 N 
ATOM      2  N   UNL d   1      44.485 -16.235  37.826  0.00  0.00    -0.162 NA
ATOM      3  C   UNL d   1      45.647 -16.669  38.669  0.00  0.00     0.217 A 
ATOM      4  C   UNL d   1      45.824 -15.760  37.714  0.00  0.00     0.187 A 
ATOM      5  N   UNL d   1      46.433 -16.445  38.664  0.00  0.00    -0.120 NA
ATOM      6  N   UNL d   1      46.545 -15.882  38.073  0.00  0.00    -0.127 NA
ATOM      7  C   UNL d   1      44.261 -15.738  37.205  0.00  0.00     0.103 A 
ATOM      8  C   UNL d   1      45.597 -15.262  37.090  0.00  0.00     0.042 A 
ATOM      9  C   UNL d   1      44.822 -15.252  36.839  0.00  0.00     0.024 A 
ENDROOT
BRANCH   3  10
ATOM     10  S   UNL d   1      45.317 -17.223  39.182  0.00  0.00    -0.041 SA
BRANCH  10  11
ATOM     11  C   UNL d   1      45.767 -17.563  39.767  0.00  0.00     0.101 C 
BRANCH  11  12
ATOM     12  C   UNL d   1      45.886 -18.369  39.777  0.00  0.00     0.286 C 
ATOM     13  N   UNL d   1      46.084 -18.750  40.479  0.00  0.00    -0.206 NA
ATOM     14  O   UNL d   1      45.811 -18.821  39.088  0.00  0.00    -0.265 OA
BRANCH  13  15
ATOM     15  C   UNL d   1      46.161 -18.308  41.172  0.00  0.00     0.104 C 
BRANCH  15  16
ATOM     16  C   UNL d   1      46.323 -18.689  41.886  0.00  0.00     0.042 A 
ATOM     17  C   UNL d   1      46.390 -18.247  42.585  0.00  0.00     0.096 A 
ATOM     18  C   UNL d   1      46.552 -18.624  43.304  0.00  0.00     0.024 A 
ATOM     19  C   UNL d   1      46.646 -19.452  43.315  0.00  0.00     0.002 A 
ATOM     20  C   UNL d   1      46.578 -19.885  42.616  0.00  0.00     0.000 A 
ATOM     21  C   UNL d   1      46.417 -19.507  41.906  0.00  0.00     0.004 A 
BRANCH  17  22
ATOM     22  O   UNL d   1      46.297 -17.428  42.574  0.00  0.00    -0.328 OA
ATOM     23  C   UNL d   1      46.151 -17.020  43.266  0.00  0.00     0.181 C 
ENDBRANCH  17  22
ENDBRANCH  15  16
ENDBRANCH  13  15
ENDBRANCH  11  12
ENDBRANCH  10  11
ENDBRANCH   3  10
BRANCH   7  24
ATOM     24  C   UNL d   1      43.473 -15.735  36.957  0.00  0.00     0.039 A 
ATOM     25  C   UNL d   1      43.155 -16.372  36.574  0.00  0.00     0.101 A 
ATOM     26  N   UNL d   1      42.381 -16.365  36.333  0.00  0.00    -0.242 NA
ATOM     27  C   UNL d   1      41.907 -15.704  36.477  0.00  0.00     0.099 A 
ATOM     28  C   UNL d   1      42.229 -15.057  36.866  0.00  0.00     0.021 A 
ATOM     29  C   UNL d   1      43.017 -15.067  37.110  0.00  0.00     0.005 A 
ENDBRANCH   7  24
TORSDOF 7
ENDMDL
