MODEL 1
REMARK VINA RESULT:      -6.6      0.000      0.000
REMARK  3 active torsions:
REMARK  status: ('A' for Active; 'I' for Inactive)
REMARK    1  A    between atoms: N_5  and  C_2 
REMARK    2  A    between atoms: C_8  and  C_3 
REMARK       I    between atoms: C_7  and  N_5 
REMARK    3  A    between atoms: C_10  and  C_7 
ROOT
ATOM      1  N   UNL d   1     -42.157-122.555 -51.320  0.00  0.00    -0.200 NA
ATOM      2  C   UNL d   1     -41.744-122.070 -51.831  0.00  0.00     0.216 A 
ATOM      3  C   UNL d   1     -41.802-122.510 -50.571  0.00  0.00     0.172 A 
ATOM      4  N   UNL d   1     -41.165-121.989 -50.630  0.00  0.00    -0.187 NA
ATOM      5  S   UNL d   1     -41.123-121.712 -51.411  0.00  0.00     0.054 SA
ENDROOT
BRANCH   2   6
ATOM      6  N   UNL d   1     -41.912-121.953 -52.630  0.00  0.00    -0.181 NA
ATOM      7  C   UNL d   1     -41.608-122.468 -53.192  0.00  0.00     0.281 C 
ATOM      8  O   UNL d   1     -41.134-123.101 -52.958  0.00  0.00    -0.265 OA
BRANCH   7   9
ATOM      9  C   UNL d   1     -41.775-122.353 -53.983  0.00  0.00     0.058 A 
ATOM     10  C   UNL d   1     -41.287-122.677 -54.568  0.00  0.00     0.005 A 
ATOM     11  C   UNL d   1     -41.455-122.561 -55.367  0.00  0.00     0.000 A 
ATOM     12  C   UNL d   1     -42.112-122.119 -55.581  0.00  0.00     0.000 A 
ATOM     13  C   UNL d   1     -42.603-121.793 -55.012  0.00  0.00     0.000 A 
ATOM     14  C   UNL d   1     -42.432-121.911 -54.206  0.00  0.00     0.005 A 
ENDBRANCH   7   9
ENDBRANCH   2   6
BRANCH   3  15
ATOM     15  C   UNL d   1     -42.037-122.906 -49.896  0.00  0.00     0.036 A 
ATOM     16  C   UNL d   1     -42.799-122.797 -49.600  0.00  0.00     0.003 A 
ATOM     17  C   UNL d   1     -43.039-123.198 -48.915  0.00  0.00     0.000 A 
ATOM     18  C   UNL d   1     -42.513-123.708 -48.531  0.00  0.00     0.000 A 
ATOM     19  C   UNL d   1     -41.746-123.817 -48.829  0.00  0.00     0.000 A 
ATOM     20  C   UNL d   1     -41.512-123.412 -49.515  0.00  0.00     0.003 A 
ENDBRANCH   3  15
TORSDOF 3
ENDMDL
