MODEL 1
REMARK VINA RESULT:     109.2      0.000      0.000
REMARK  8 active torsions:
REMARK  status: ('A' for Active; 'I' for Inactive)
REMARK    1  A    between atoms: C_13  and  N_1 
REMARK    2  A    between atoms: C_2  and  N_6 
REMARK    3  A    between atoms: C_9  and  C_5 
REMARK       I    between atoms: N_6  and  C_9 
REMARK    4  A    between atoms: S_16  and  C_7 
REMARK    5  A    between atoms: C_14  and  C_27 
REMARK       I    between atoms: N_20  and  C_14 
REMARK    6  A    between atoms: C_15  and  C_28 
REMARK    7  A    between atoms: C_27  and  S_16 
REMARK    8  A    between atoms: C_28  and  N_20 
ROOT
ATOM      1  C   UNL d   1      61.501  45.541  49.571  0.00  0.00     0.219 A 
ATOM      2  S   UNL d   1      61.837  45.029  50.038  0.00  0.00    -0.019 SA
ATOM      3  C   UNL d   1      62.092  44.452  49.610  0.00  0.00     0.165 A 
ATOM      4  N   UNL d   1      61.548  45.278  48.849  0.00  0.00    -0.120 NA
ATOM      5  N   UNL d   1      61.921  44.593  48.873  0.00  0.00    -0.133 NA
ENDROOT
BRANCH   1   6
ATOM      6  N   UNL d   1      61.173  46.203  49.786  0.00  0.00    -0.181 NA
ATOM      7  C   UNL d   1      61.610  46.804  49.990  0.00  0.00     0.283 C 
ATOM      8  O   UNL d   1      62.377  46.744  49.980  0.00  0.00    -0.265 OA
BRANCH   7   9
ATOM      9  C   UNL d   1      61.277  47.461  50.203  0.00  0.00     0.080 A 
ATOM     10  C   UNL d   1      60.539  47.564  50.382  0.00  0.00     0.088 A 
ATOM     11  N   UNL d   1      60.438  48.304  50.564  0.00  0.00    -0.273 N 
ATOM     12  C   UNL d   1      61.111  48.657  50.498  0.00  0.00     0.265 A 
ATOM     13  C   UNL d   1      61.638  48.138  50.274  0.00  0.00     0.067 A 
ATOM     14  O   UNL d   1      61.247  49.408  50.632  0.00  0.00    -0.267 OA
BRANCH  11  15
ATOM     15  C   UNL d   1      59.719  48.653  50.793  0.00  0.00     0.067 A 
ATOM     16  C   UNL d   1      59.164  48.854  50.217  0.00  0.00     0.020 A 
ATOM     17  C   UNL d   1      58.451  49.201  50.455  0.00  0.00     0.031 A 
ATOM     18  C   UNL d   1      58.297  49.343  51.245  0.00  0.00     0.140 A 
ATOM     19  C   UNL d   1      58.859  49.139  51.819  0.00  0.00     0.031 A 
ATOM     20  F   UNL d   1      57.577  49.693  51.483  0.00  0.00    -0.204 F 
ATOM     21  C   UNL d   1      59.563  48.797  51.595  0.00  0.00     0.020 A 
ENDBRANCH  11  15
ENDBRANCH   7   9
ENDBRANCH   1   6
BRANCH   3  22
ATOM     22  S   UNL d   1      62.877  43.189  50.425  0.00  0.00    -0.054 SA
BRANCH  22  23
ATOM     23  C   UNL d   1      63.157  42.535  50.004  0.00  0.00     0.100 C 
BRANCH  23  24
ATOM     24  C   UNL d   1      63.141  41.783  50.352  0.00  0.00     0.286 C 
ATOM     25  N   UNL d   1      63.113  41.117  49.869  0.00  0.00    -0.204 NA
ATOM     26  O   UNL d   1      63.152  41.703  51.176  0.00  0.00    -0.265 OA
BRANCH  25  27
ATOM     27  C   UNL d   1      63.097  40.367  50.214  0.00  0.00     0.127 C 
BRANCH  27  28
ATOM     28  C   UNL d   1      62.731  39.743  49.808  0.00  0.00     0.119 A 
ATOM     29  O   UNL d   1      62.125  39.257  50.096  0.00  0.00    -0.304 OA
ATOM     30  C   UNL d   1      61.934  38.711  49.500  0.00  0.00     0.123 A 
ATOM     31  C   UNL d   1      62.416  38.855  48.842  0.00  0.00     0.029 A 
ATOM     32  C   UNL d   1      62.912  39.497  49.034  0.00  0.00     0.028 A 
ENDBRANCH  27  28
ENDBRANCH  25  27
ENDBRANCH  23  24
ENDBRANCH  22  23
ENDBRANCH   3  22
TORSDOF 8
ENDMDL
