MODEL 1
REMARK VINA RESULT:       4.7      0.000      0.000
REMARK  1 active torsions:
REMARK  status: ('A' for Active; 'I' for Inactive)
REMARK    1  A    between atoms: C_11  and  C_4 
ROOT
ATOM      1  O   UNL d   1     -54.940-102.880 -38.307  0.00  0.00    -0.304 OA
ATOM      2  C   UNL d   1     -54.769-101.735 -37.633  0.00  0.00     0.025 A 
ATOM      3  C   UNL d   1     -54.711-101.572 -38.445  0.00  0.00     0.030 A 
ATOM      4  C   UNL d   1     -54.816-102.277 -38.860  0.00  0.00     0.142 A 
ATOM      5  C   UNL d   1     -54.911-102.544 -37.557  0.00  0.00     0.100 A 
ATOM      6  C   UNL d   1     -54.712-101.256 -36.976  0.00  0.00     0.009 A 
ATOM      7  C   UNL d   1     -54.995-102.876 -36.808  0.00  0.00     0.025 A 
ATOM      8  C   UNL d   1     -54.795-101.580 -36.216  0.00  0.00     0.035 A 
ATOM      9  C   UNL d   1     -54.938-102.393 -36.134  0.00  0.00     0.009 A 
ATOM     10 BR   UNL d   1     -54.739-101.104 -35.548  0.00  0.00    -0.049 Br
ENDROOT
BRANCH   4  11
ATOM     11  C   UNL d   1     -54.801-102.366 -39.679  0.00  0.00     0.259 C 
ATOM     12  O   UNL d   1     -55.333-102.866 -40.046  0.00  0.00    -0.281 OA
ENDBRANCH   4  11
TORSDOF 1
ENDMDL
