MODEL 1
REMARK VINA RESULT:     120.7      0.000      0.000
REMARK  5 active torsions:
REMARK  status: ('A' for Active; 'I' for Inactive)
REMARK    1  A    between atoms: N_6  and  C_1 
REMARK    2  A    between atoms: C_11  and  C_5 
REMARK       I    between atoms: C_7  and  N_8 
REMARK    3  A    between atoms: C_10  and  C_7 
REMARK    4  A    between atoms: O_27  and  C_14 
REMARK    5  A    between atoms: O_28  and  C_21 
ROOT
ATOM      1  C   UNL d   1     -55.975-100.467 -42.889  0.00  0.00     0.197 A 
ATOM      2  C   UNL d   1     -55.679-101.232 -43.045  0.00  0.00     0.191 A 
ATOM      3  O   UNL d   1     -55.929-100.334 -42.071  0.00  0.00    -0.270 OA
ATOM      4  N   UNL d   1     -55.459-101.549 -42.323  0.00  0.00    -0.208 NA
ATOM      5  C   UNL d   1     -55.605-101.024 -41.751  0.00  0.00     0.185 A 
ATOM      6  C   UNL d   1     -55.618-101.607 -43.807  0.00  0.00     0.124 C 
ATOM      7  N   UNL d   1     -55.551-101.989 -44.545  0.00  0.00    -0.190 NA
ENDROOT
BRANCH   1   8
ATOM      8  N   UNL d   1     -56.212-100.106 -43.603  0.00  0.00    -0.280 N 
ATOM      9  C   UNL d   1     -55.613 -99.841 -44.136  0.00  0.00     0.101 A 
ATOM     10  C   UNL d   1     -55.850 -99.480 -44.850  0.00  0.00     0.102 A 
ATOM     11  N   UNL d   1     -56.671 -99.384 -45.029  0.00  0.00    -0.267 N 
ATOM     12  C   UNL d   1     -56.908 -99.023 -45.743  0.00  0.00     0.288 C 
ATOM     13  C   UNL d   1     -57.243 -99.650 -44.493  0.00  0.00     0.102 A 
ATOM     14  O   UNL d   1     -56.336 -98.757 -46.278  0.00  0.00    -0.264 OA
ATOM     15  C   UNL d   1     -56.995-100.012 -43.779  0.00  0.00     0.101 A 
BRANCH  12  16
ATOM     16  C   UNL d   1     -57.723 -98.928 -45.921  0.00  0.00     0.156 A 
ATOM     17  O   UNL d   1     -58.398 -98.884 -45.444  0.00  0.00    -0.300 OA
ATOM     18  C   UNL d   1     -59.037 -98.790 -45.930  0.00  0.00     0.123 A 
ATOM     19  C   UNL d   1     -58.798 -98.771 -46.714  0.00  0.00     0.029 A 
ATOM     20  C   UNL d   1     -57.977 -98.857 -46.713  0.00  0.00     0.032 A 
ENDBRANCH  12  16
ENDBRANCH   1   8
BRANCH   5  21
ATOM     21  C   UNL d   1     -55.389-101.338 -41.051  0.00  0.00     0.043 A 
ATOM     22  C   UNL d   1     -55.467-100.921 -40.364  0.00  0.00     0.030 A 
ATOM     23  C   UNL d   1     -55.247-101.239 -39.643  0.00  0.00     0.116 A 
ATOM     24  C   UNL d   1     -54.941-101.996 -39.613  0.00  0.00     0.116 A 
ATOM     25  C   UNL d   1     -54.865-102.412 -40.305  0.00  0.00     0.026 A 
ATOM     26  C   UNL d   1     -55.084-102.095 -41.026  0.00  0.00     0.006 A 
BRANCH  23  27
ATOM     27  O   UNL d   1     -55.342-100.773 -38.942  0.00  0.00    -0.326 OA
ATOM     28  C   UNL d   1     -54.725-100.332 -38.636  0.00  0.00     0.181 C 
ENDBRANCH  23  27
BRANCH  24  29
ATOM     29  O   UNL d   1     -54.714-102.333 -38.895  0.00  0.00    -0.326 OA
ATOM     30  C   UNL d   1     -55.196-102.875 -38.520  0.00  0.00     0.181 C 
ENDBRANCH  24  29
ENDBRANCH   5  21
TORSDOF 5
ENDMDL
