MODEL 1
REMARK VINA RESULT:      12.0      0.000      0.000
REMARK  1 active torsions:
REMARK  status: ('A' for Active; 'I' for Inactive)
REMARK    1  A    between atoms: C_6  and  C_1 
ROOT
ATOM      1  C   UNL d   1     -52.653  24.677  33.322  0.00  0.00     0.085 A 
ATOM      2  C   UNL d   1     -52.843  25.485  33.318  0.00  0.00     0.137 A 
ATOM      3  S   UNL d   1     -52.173  25.900  33.312  0.00  0.00    -0.066 SA
ATOM      4  C   UNL d   1     -51.833  24.618  33.318  0.00  0.00     0.013 A 
ATOM      5  C   UNL d   1     -51.535  25.380  33.311  0.00  0.00     0.031 A 
ATOM      6  N   UNL d   1     -53.618  25.813  33.320  0.00  0.00    -0.141 N 
ATOM      7  C   UNL d   1     -51.316  23.975  33.319  0.00  0.00     0.001 A 
ATOM      8  C   UNL d   1     -50.717  25.500  33.306  0.00  0.00     0.006 A 
ATOM      9  C   UNL d   1     -50.499  24.095  33.313  0.00  0.00     0.000 A 
ATOM     10  C   UNL d   1     -50.201  24.856  33.307  0.00  0.00     0.001 A 
ENDROOT
BRANCH   1  11
ATOM     11  C   UNL d   1     -53.206  24.015  33.329  0.00  0.00     0.299 C 
ATOM     12  O   UNL d   1     -52.916  23.232  33.358  0.00  0.00    -0.264 OA
ATOM     13  N   UNL d   1     -54.025  24.151  33.308  0.00  0.00    -0.102 N 
ENDBRANCH   1  11
TORSDOF 1
ENDMDL
