MODEL 1
REMARK VINA RESULT:      45.8      0.000      0.000
REMARK  3 active torsions:
REMARK  status: ('A' for Active; 'I' for Inactive)
REMARK    1  A    between atoms: N_10  and  C_3 
REMARK    2  A    between atoms: C_11  and  C_5 
REMARK    3  A    between atoms: C_12  and  N_10 
ROOT
ATOM      1  N   UNL d   1      46.075 -17.155  42.599  0.00  0.00    -0.184 N 
ATOM      2  C   UNL d   1      46.226 -17.924  42.300  0.00  0.00     0.168 A 
ATOM      3  C   UNL d   1      46.098 -17.022  43.416  0.00  0.00     0.217 A 
ATOM      4  N   UNL d   1      45.883 -16.678  41.277  0.00  0.00    -0.162 NA
ATOM      5  C   UNL d   1      46.203 -18.055  41.504  0.00  0.00     0.055 A 
ATOM      6  N   UNL d   1      46.395 -18.533  42.828  0.00  0.00    -0.227 NA
ATOM      7  C   UNL d   1      46.266 -17.632  43.923  0.00  0.00     0.066 A 
ATOM      8  C   UNL d   1      46.032 -17.435  40.982  0.00  0.00     0.104 A 
ATOM      9  C   UNL d   1      46.418 -18.405  43.632  0.00  0.00     0.087 A 
ATOM     10  C   UNL d   1      46.327 -17.672  44.731  0.00  0.00     0.006 A 
ATOM     11  C   UNL d   1      46.011 -17.577  40.177  0.00  0.00     0.023 C 
ATOM     12  C   UNL d   1      46.569 -18.899  44.268  0.00  0.00     0.019 A 
ATOM     13  C   UNL d   1      46.511 -18.436  44.955  0.00  0.00     0.002 A 
ENDROOT
BRANCH   3  14
ATOM     14  N   UNL d   1      45.946 -16.247  43.721  0.00  0.00    -0.383 NA
BRANCH  14  15
ATOM     15  C   UNL d   1      45.798 -15.472  44.023  0.00  0.00     0.134 A 
ATOM     16  C   UNL d   1      45.153 -15.341  44.562  0.00  0.00     0.034 A 
ATOM     17  C   UNL d   1      45.008 -14.566  44.861  0.00  0.00     0.032 A 
ATOM     18  C   UNL d   1      45.497 -13.924  44.629  0.00  0.00     0.140 A 
ATOM     19  C   UNL d   1      46.140 -14.060  44.091  0.00  0.00     0.032 A 
ATOM     20  F   UNL d   1      45.352 -13.144  44.930  0.00  0.00    -0.204 F 
ATOM     21  C   UNL d   1      46.294 -14.827  43.787  0.00  0.00     0.034 A 
ENDBRANCH  14  15
ENDBRANCH   3  14
BRANCH   5  22
ATOM     22  C   UNL d   1      46.351 -18.808  41.211  0.00  0.00     0.004 A 
ATOM     23  C   UNL d   1      46.471 -18.922  40.407  0.00  0.00     0.000 A 
ATOM     24  C   UNL d   1      46.619 -19.670  40.111  0.00  0.00     0.000 A 
ATOM     25  C   UNL d   1      46.647 -20.315  40.625  0.00  0.00     0.000 A 
ATOM     26  C   UNL d   1      46.529 -20.211  41.420  0.00  0.00     0.000 A 
ATOM     27  C   UNL d   1      46.379 -19.449  41.717  0.00  0.00     0.000 A 
ENDBRANCH   5  22
TORSDOF 3
ENDMDL
