MODEL 1
REMARK VINA RESULT:      78.6      0.000      0.000
REMARK  4 active torsions:
REMARK  status: ('A' for Active; 'I' for Inactive)
REMARK    1  A    between atoms: N_9  and  C_3 
REMARK    2  A    between atoms: C_12  and  C_5 
REMARK    3  A    between atoms: C_15  and  N_11 
REMARK    4  A    between atoms: C_19  and  C_15 
ROOT
ATOM      1  N   UNL d   1     -50.736  26.029  33.570  0.00  0.00    -0.196 N 
ATOM      2  C   UNL d   1     -51.017  25.254  33.529  0.00  0.00     0.167 A 
ATOM      3  C   UNL d   1     -49.926  26.172  33.592  0.00  0.00     0.152 A 
ATOM      4  N   UNL d   1     -51.382  26.529  33.581  0.00  0.00    -0.163 NA
ATOM      5  C   UNL d   1     -51.837  25.278  33.514  0.00  0.00     0.055 A 
ATOM      6  C   UNL d   1     -52.065  26.065  33.546  0.00  0.00     0.104 A 
ATOM      7  N   UNL d   1     -50.489  24.624  33.510  0.00  0.00    -0.227 NA
ATOM      8  C   UNL d   1     -49.390  25.539  33.573  0.00  0.00     0.057 A 
ATOM      9  C   UNL d   1     -49.672  24.765  33.532  0.00  0.00     0.086 A 
ATOM     10  C   UNL d   1     -52.842  26.343  33.544  0.00  0.00     0.023 C 
ATOM     11  C   UNL d   1     -49.143  24.122  33.512  0.00  0.00     0.021 C 
ENDROOT
BRANCH   3  12
ATOM     12  N   UNL d   1     -49.644  26.946  33.634  0.00  0.00    -0.286 N 
ATOM     13  C   UNL d   1     -48.863  27.091  33.818  0.00  0.00     0.101 A 
ATOM     14  C   UNL d   1     -48.584  27.871  33.858  0.00  0.00     0.100 A 
ATOM     15  N   UNL d   1     -49.080  28.485  33.717  0.00  0.00    -0.300 N 
ATOM     16  C   UNL d   1     -49.875  28.339  33.530  0.00  0.00     0.100 A 
ATOM     17  C   UNL d   1     -50.152  27.577  33.489  0.00  0.00     0.101 A 
BRANCH  15  18
ATOM     18  C   UNL d   1     -48.777  29.259  33.763  0.00  0.00     0.080 C 
BRANCH  18  19
ATOM     19  C   UNL d   1     -48.405  29.510  34.456  0.00  0.00     0.018 A 
ATOM     20  C   UNL d   1     -48.099  28.956  34.988  0.00  0.00     0.002 A 
ATOM     21  C   UNL d   1     -47.727  29.221  35.680  0.00  0.00     0.000 A 
ATOM     22  C   UNL d   1     -47.669  30.018  35.827  0.00  0.00     0.000 A 
ATOM     23  C   UNL d   1     -47.971  30.557  35.303  0.00  0.00     0.000 A 
ATOM     24  C   UNL d   1     -48.343  30.305  34.610  0.00  0.00     0.002 A 
ENDBRANCH  18  19
ENDBRANCH  15  18
ENDBRANCH   3  12
BRANCH   5  25
ATOM     25  C   UNL d   1     -52.412  24.686  33.475  0.00  0.00     0.004 A 
ATOM     26  C   UNL d   1     -52.191  23.900  33.364  0.00  0.00     0.000 A 
ATOM     27  C   UNL d   1     -52.763  23.310  33.326  0.00  0.00     0.000 A 
ATOM     28  C   UNL d   1     -53.567  23.506  33.399  0.00  0.00     0.000 A 
ATOM     29  C   UNL d   1     -53.789  24.293  33.511  0.00  0.00     0.000 A 
ATOM     30  C   UNL d   1     -53.214  24.885  33.549  0.00  0.00     0.000 A 
ENDBRANCH   5  25
TORSDOF 4
ENDMDL
