MODEL 1
REMARK VINA RESULT:      54.0      0.000      0.000
REMARK  6 active torsions:
REMARK  status: ('A' for Active; 'I' for Inactive)
REMARK    1  A    between atoms: S_12  and  C_1 
REMARK    2  A    between atoms: C_2  and  S_11 
REMARK    3  A    between atoms: S_11  and  C_15 
REMARK    4  A    between atoms: C_16  and  S_12 
REMARK    5  A    between atoms: C_13  and  C_16 
REMARK    6  A    between atoms: C_15  and  C_13 
ROOT
ATOM      1  C   UNL d   1     -49.570  27.271  33.969  0.00  0.00     0.209 C 
ATOM      2  O   UNL d   1     -50.225  27.735  33.738  0.00  0.00    -0.285 OA
ENDROOT
BRANCH   1   3
ATOM      3  C   UNL d   1     -48.857  27.642  34.177  0.00  0.00     0.080 C 
BRANCH   3   4
ATOM      4  S   UNL d   1     -48.806  28.467  34.221  0.00  0.00    -0.058 SA
BRANCH   4   5
ATOM      5  C   UNL d   1     -48.356  28.827  34.808  0.00  0.00     0.141 A 
ATOM      6  N   UNL d   1     -48.501  28.804  35.627  0.00  0.00    -0.232 NA
ATOM      7  C   UNL d   1     -47.909  29.241  36.005  0.00  0.00     0.088 A 
ATOM      8  C   UNL d   1     -47.774  29.406  36.802  0.00  0.00     0.020 A 
ATOM      9  C   UNL d   1     -47.390  29.540  35.425  0.00  0.00     0.049 A 
ATOM     10  C   UNL d   1     -47.128  29.865  37.030  0.00  0.00     0.002 A 
ATOM     11  C   UNL d   1     -46.609  30.164  36.450  0.00  0.00     0.001 A 
ATOM     12  C   UNL d   1     -46.745  29.997  35.650  0.00  0.00     0.008 A 
ATOM     13  S   UNL d   1     -47.664  29.285  34.686  0.00  0.00    -0.060 SA
ENDBRANCH   4   5
ENDBRANCH   3   4
ENDBRANCH   1   3
BRANCH   1  14
ATOM     14  C   UNL d   1     -49.637  26.450  33.989  0.00  0.00     0.080 C 
BRANCH  14  15
ATOM     15  S   UNL d   1     -49.844  26.030  33.307  0.00  0.00    -0.058 SA
BRANCH  15  16
ATOM     16  C   UNL d   1     -50.481  25.509  33.315  0.00  0.00     0.141 A 
ATOM     17  N   UNL d   1     -51.288  25.717  33.312  0.00  0.00    -0.232 NA
ATOM     18  C   UNL d   1     -51.734  25.013  33.323  0.00  0.00     0.088 A 
ATOM     19  C   UNL d   1     -52.542  24.879  33.325  0.00  0.00     0.020 A 
ATOM     20  C   UNL d   1     -51.212  24.376  33.334  0.00  0.00     0.049 A 
ATOM     21  C   UNL d   1     -52.840  24.110  33.338  0.00  0.00     0.002 A 
ATOM     22  C   UNL d   1     -52.308  23.466  33.349  0.00  0.00     0.001 A 
ATOM     23  C   UNL d   1     -51.495  23.600  33.347  0.00  0.00     0.008 A 
ATOM     24  S   UNL d   1     -50.432  24.681  33.329  0.00  0.00    -0.060 SA
ENDBRANCH  15  16
ENDBRANCH  14  15
ENDBRANCH   1  14
TORSDOF 6
ENDMDL
MODEL 2
REMARK VINA RESULT:      56.3      2.148      2.847
REMARK  6 active torsions:
REMARK  status: ('A' for Active; 'I' for Inactive)
REMARK    1  A    between atoms: S_12  and  C_1 
REMARK    2  A    between atoms: C_2  and  S_11 
REMARK    3  A    between atoms: S_11  and  C_15 
REMARK    4  A    between atoms: C_16  and  S_12 
REMARK    5  A    between atoms: C_13  and  C_16 
REMARK    6  A    between atoms: C_15  and  C_13 
ROOT
ATOM      1  C   UNL d   1     -48.271  28.740  35.146  0.00  0.00     0.209 C 
ATOM      2  O   UNL d   1     -47.600  28.506  35.585  0.00  0.00    -0.285 OA
ENDROOT
BRANCH   1   3
ATOM      3  C   UNL d   1     -48.331  29.524  34.878  0.00  0.00     0.080 C 
BRANCH   3   4
ATOM      4  S   UNL d   1     -47.868  30.123  35.212  0.00  0.00    -0.058 SA
BRANCH   4   5
ATOM      5  C   UNL d   1     -47.843  30.871  34.870  0.00  0.00     0.141 A 
ATOM      6  N   UNL d   1     -48.475  31.270  34.506  0.00  0.00    -0.232 NA
ATOM      7  C   UNL d   1     -48.198  32.003  34.242  0.00  0.00     0.088 A 
ATOM      8  C   UNL d   1     -48.574  32.622  33.847  0.00  0.00     0.020 A 
ATOM      9  C   UNL d   1     -47.390  32.067  34.439  0.00  0.00     0.049 A 
ATOM     10  C   UNL d   1     -48.158  33.305  33.645  0.00  0.00     0.002 A 
ATOM     11  C   UNL d   1     -47.351  33.368  33.843  0.00  0.00     0.001 A 
ATOM     12  C   UNL d   1     -46.973  32.746  34.240  0.00  0.00     0.008 A 
ATOM     13  S   UNL d   1     -47.170  31.369  34.827  0.00  0.00    -0.060 SA
ENDBRANCH   4   5
ENDBRANCH   3   4
ENDBRANCH   1   3
BRANCH   1  14
ATOM     14  C   UNL d   1     -48.865  28.194  34.983  0.00  0.00     0.080 C 
BRANCH  14  15
ATOM     15  S   UNL d   1     -48.820  27.714  34.310  0.00  0.00    -0.058 SA
BRANCH  15  16
ATOM     16  C   UNL d   1     -49.466  27.260  34.077  0.00  0.00     0.141 A 
ATOM     17  N   UNL d   1     -49.469  26.437  33.945  0.00  0.00    -0.232 NA
ATOM     18  C   UNL d   1     -50.240  26.217  33.718  0.00  0.00     0.088 A 
ATOM     19  C   UNL d   1     -50.565  25.492  33.521  0.00  0.00     0.020 A 
ATOM     20  C   UNL d   1     -50.710  26.894  33.710  0.00  0.00     0.049 A 
ATOM     21  C   UNL d   1     -51.361  25.430  33.314  0.00  0.00     0.002 A 
ATOM     22  C   UNL d   1     -51.835  26.118  33.306  0.00  0.00     0.001 A 
ATOM     23  C   UNL d   1     -51.509  26.849  33.504  0.00  0.00     0.008 A 
ATOM     24  S   UNL d   1     -50.232  27.544  33.932  0.00  0.00    -0.060 SA
ENDBRANCH  15  16
ENDBRANCH  14  15
ENDBRANCH   1  14
TORSDOF 6
ENDMDL
MODEL 3
REMARK VINA RESULT:      56.6      2.073      6.344
REMARK  6 active torsions:
REMARK  status: ('A' for Active; 'I' for Inactive)
REMARK    1  A    between atoms: S_12  and  C_1 
REMARK    2  A    between atoms: C_2  and  S_11 
REMARK    3  A    between atoms: S_11  and  C_15 
REMARK    4  A    between atoms: C_16  and  S_12 
REMARK    5  A    between atoms: C_13  and  C_16 
REMARK    6  A    between atoms: C_15  and  C_13 
ROOT
ATOM      1  C   UNL d   1     -48.114  28.769  35.072  0.00  0.00     0.209 C 
ATOM      2  O   UNL d   1     -47.341  28.455  35.041  0.00  0.00    -0.285 OA
ENDROOT
BRANCH   1   3
ATOM      3  C   UNL d   1     -48.760  28.289  34.865  0.00  0.00     0.080 C 
BRANCH   3   4
ATOM      4  S   UNL d   1     -48.759  27.858  34.159  0.00  0.00    -0.058 SA
BRANCH   4   5
ATOM      5  C   UNL d   1     -49.394  27.372  33.965  0.00  0.00     0.141 A 
ATOM      6  N   UNL d   1     -50.188  27.605  33.881  0.00  0.00    -0.232 NA
ATOM      7  C   UNL d   1     -50.633  26.937  33.684  0.00  0.00     0.088 A 
ATOM      8  C   UNL d   1     -51.438  26.838  33.535  0.00  0.00     0.020 A 
ATOM      9  C   UNL d   1     -50.119  26.281  33.643  0.00  0.00     0.049 A 
ATOM     10  C   UNL d   1     -51.741  26.095  33.346  0.00  0.00     0.002 A 
ATOM     11  C   UNL d   1     -51.227  25.439  33.306  0.00  0.00     0.001 A 
ATOM     12  C   UNL d   1     -50.418  25.539  33.455  0.00  0.00     0.008 A 
ATOM     13  S   UNL d   1     -49.354  26.548  33.816  0.00  0.00    -0.060 SA
ENDBRANCH   4   5
ENDBRANCH   3   4
ENDBRANCH   1   3
BRANCH   1  14
ATOM     14  C   UNL d   1     -48.230  29.550  35.307  0.00  0.00     0.080 C 
BRANCH  14  15
ATOM     15  S   UNL d   1     -47.592  30.076  35.345  0.00  0.00    -0.058 SA
BRANCH  15  16
ATOM     16  C   UNL d   1     -47.630  30.806  34.966  0.00  0.00     0.141 A 
ATOM     17  N   UNL d   1     -48.321  31.180  34.686  0.00  0.00    -0.232 NA
ATOM     18  C   UNL d   1     -48.096  31.906  34.344  0.00  0.00     0.088 A 
ATOM     19  C   UNL d   1     -48.534  32.498  33.984  0.00  0.00     0.020 A 
ATOM     20  C   UNL d   1     -47.279  31.983  34.411  0.00  0.00     0.049 A 
ATOM     21  C   UNL d   1     -48.164  33.172  33.687  0.00  0.00     0.002 A 
ATOM     22  C   UNL d   1     -47.334  33.247  33.757  0.00  0.00     0.001 A 
ATOM     23  C   UNL d   1     -46.894  32.652  34.119  0.00  0.00     0.008 A 
ATOM     24  S   UNL d   1     -46.986  31.300  34.797  0.00  0.00    -0.060 SA
ENDBRANCH  15  16
ENDBRANCH  14  15
ENDBRANCH   1  14
TORSDOF 6
ENDMDL
