MODEL 1
REMARK VINA RESULT:      -7.5      0.000      0.000
REMARK  5 active torsions:
REMARK  status: ('A' for Active; 'I' for Inactive)
REMARK    1  A    between atoms: C_2  and  C_1 
REMARK    2  A    between atoms: C_3  and  C_1 
REMARK    3  A    between atoms: C_4  and  C_1 
REMARK    4  A    between atoms: C_5  and  C_2 
REMARK    5  A    between atoms: C_13  and  C_5 
ROOT
ATOM      1  C   UNL d   1     -49.016  13.804  22.740  0.00  0.00     0.029 C 
ENDROOT
BRANCH   1   2
ATOM      2  C   UNL d   1     -48.237  13.685  22.505  0.00  0.00     0.044 C 
BRANCH   2   3
ATOM      3  C   UNL d   1     -47.646  13.601  23.069  0.00  0.00     0.196 C 
ATOM      4  O   UNL d   1     -47.791  13.706  23.697  0.00  0.00    -0.287 OA
BRANCH   3   5
ATOM      5  C   UNL d   1     -46.860  13.384  22.863  0.00  0.00     0.039 A 
ATOM      6  C   UNL d   1     -46.568  12.671  23.148  0.00  0.00     0.003 A 
ATOM      7  C   UNL d   1     -45.787  12.450  22.947  0.00  0.00     0.000 A 
ATOM      8  C   UNL d   1     -45.321  12.941  22.470  0.00  0.00     0.000 A 
ATOM      9  C   UNL d   1     -45.639  13.646  22.202  0.00  0.00     0.000 A 
ATOM     10  C   UNL d   1     -46.398  13.873  22.391  0.00  0.00     0.003 A 
ENDBRANCH   3   5
ENDBRANCH   2   3
ENDBRANCH   1   2
BRANCH   1  11
ATOM     11  C   UNL d   1     -49.282  14.567  22.918  0.00  0.00     0.100 A 
ATOM     12  O   UNL d   1     -49.300  15.141  22.330  0.00  0.00    -0.305 OA
ATOM     13  C   UNL d   1     -49.586  15.835  22.669  0.00  0.00     0.123 A 
ATOM     14  C   UNL d   1     -49.742  15.682  23.464  0.00  0.00     0.029 A 
ATOM     15  C   UNL d   1     -49.557  14.909  23.619  0.00  0.00     0.027 A 
ENDBRANCH   1  11
BRANCH   1  16
ATOM     16  C   UNL d   1     -49.526  13.151  22.797  0.00  0.00     0.041 A 
ATOM     17  C   UNL d   1     -49.825  12.787  22.119  0.00  0.00     0.196 A 
ATOM     18  O   UNL d   1     -49.623  13.065  21.363  0.00  0.00    -0.287 OA
ATOM     19  C   UNL d   1     -50.338  12.130  22.195  0.00  0.00     0.042 A 
ATOM     20  C   UNL d   1     -50.545  11.847  22.940  0.00  0.00     0.003 A 
ATOM     21  C   UNL d   1     -50.246  12.211  23.618  0.00  0.00     0.000 A 
ATOM     22  C   UNL d   1     -49.741  12.857  23.551  0.00  0.00     0.003 A 
ENDBRANCH   1  16
TORSDOF 5
ENDMDL
MODEL 2
REMARK VINA RESULT:      -7.3      0.969      2.422
REMARK  5 active torsions:
REMARK  status: ('A' for Active; 'I' for Inactive)
REMARK    1  A    between atoms: C_2  and  C_1 
REMARK    2  A    between atoms: C_3  and  C_1 
REMARK    3  A    between atoms: C_4  and  C_1 
REMARK    4  A    between atoms: C_5  and  C_2 
REMARK    5  A    between atoms: C_13  and  C_5 
ROOT
ATOM      1  C   UNL d   1     -49.178  13.684  22.531  0.00  0.00     0.029 C 
ENDROOT
BRANCH   1   2
ATOM      2  C   UNL d   1     -48.432  13.396  22.723  0.00  0.00     0.044 C 
BRANCH   2   3
ATOM      3  C   UNL d   1     -48.353  12.811  23.294  0.00  0.00     0.196 C 
ATOM      4  O   UNL d   1     -48.859  12.680  23.685  0.00  0.00    -0.287 OA
BRANCH   3   5
ATOM      5  C   UNL d   1     -47.640  12.376  23.391  0.00  0.00     0.039 A 
ATOM      6  C   UNL d   1     -46.928  12.765  23.266  0.00  0.00     0.003 A 
ATOM      7  C   UNL d   1     -46.216  12.337  23.361  0.00  0.00     0.000 A 
ATOM      8  C   UNL d   1     -46.232  11.537  23.577  0.00  0.00     0.000 A 
ATOM      9  C   UNL d   1     -46.957  11.176  23.695  0.00  0.00     0.000 A 
ATOM     10  C   UNL d   1     -47.657  11.582  23.606  0.00  0.00     0.003 A 
ENDBRANCH   3   5
ENDBRANCH   2   3
ENDBRANCH   1   2
BRANCH   1  11
ATOM     11  C   UNL d   1     -49.680  13.238  22.046  0.00  0.00     0.100 A 
ATOM     12  O   UNL d   1     -49.504  13.148  21.249  0.00  0.00    -0.305 OA
ATOM     13  C   UNL d   1     -50.097  12.683  20.914  0.00  0.00     0.123 A 
ATOM     14  C   UNL d   1     -50.633  12.491  21.511  0.00  0.00     0.029 A 
ATOM     15  C   UNL d   1     -50.381  12.829  22.203  0.00  0.00     0.027 A 
ENDBRANCH   1  11
BRANCH   1  16
ATOM     16  C   UNL d   1     -49.417  14.422  22.828  0.00  0.00     0.041 A 
ATOM     17  C   UNL d   1     -49.054  15.118  22.574  0.00  0.00     0.196 A 
ATOM     18  O   UNL d   1     -48.441  15.099  22.014  0.00  0.00    -0.287 OA
ATOM     19  C   UNL d   1     -49.308  15.853  22.885  0.00  0.00     0.042 A 
ATOM     20  C   UNL d   1     -49.915  15.882  23.440  0.00  0.00     0.003 A 
ATOM     21  C   UNL d   1     -50.278  15.186  23.694  0.00  0.00     0.000 A 
ATOM     22  C   UNL d   1     -50.033  14.461  23.393  0.00  0.00     0.003 A 
ENDBRANCH   1  16
TORSDOF 5
ENDMDL
MODEL 3
REMARK VINA RESULT:      -7.1      0.707      2.113
REMARK  5 active torsions:
REMARK  status: ('A' for Active; 'I' for Inactive)
REMARK    1  A    between atoms: C_2  and  C_1 
REMARK    2  A    between atoms: C_3  and  C_1 
REMARK    3  A    between atoms: C_4  and  C_1 
REMARK    4  A    between atoms: C_5  and  C_2 
REMARK    5  A    between atoms: C_13  and  C_5 
ROOT
ATOM      1  C   UNL d   1     -49.171  13.391  22.771  0.00  0.00     0.029 C 
ENDROOT
BRANCH   1   2
ATOM      2  C   UNL d   1     -48.398  13.416  22.493  0.00  0.00     0.044 C 
BRANCH   2   3
ATOM      3  C   UNL d   1     -47.772  13.401  23.024  0.00  0.00     0.196 C 
ATOM      4  O   UNL d   1     -47.896  13.308  23.658  0.00  0.00    -0.287 OA
BRANCH   3   5
ATOM      5  C   UNL d   1     -46.974  13.500  22.776  0.00  0.00     0.039 A 
ATOM      6  C   UNL d   1     -46.598  12.864  22.416  0.00  0.00     0.003 A 
ATOM      7  C   UNL d   1     -45.805  12.958  22.168  0.00  0.00     0.000 A 
ATOM      8  C   UNL d   1     -45.410  13.676  22.283  0.00  0.00     0.000 A 
ATOM      9  C   UNL d   1     -45.811  14.292  22.645  0.00  0.00     0.000 A 
ATOM     10  C   UNL d   1     -46.583  14.214  22.891  0.00  0.00     0.003 A 
ENDBRANCH   3   5
ENDBRANCH   2   3
ENDBRANCH   1   2
BRANCH   1  11
ATOM     11  C   UNL d   1     -49.516  12.665  22.969  0.00  0.00     0.100 A 
ATOM     12  O   UNL d   1     -49.751  12.148  22.375  0.00  0.00    -0.305 OA
ATOM     13  C   UNL d   1     -50.070  11.480  22.738  0.00  0.00     0.123 A 
ATOM     14  C   UNL d   1     -50.027  11.593  23.554  0.00  0.00     0.029 A 
ATOM     15  C   UNL d   1     -49.689  12.315  23.698  0.00  0.00     0.027 A 
ENDBRANCH   1  11
BRANCH   1  16
ATOM     16  C   UNL d   1     -49.598  14.100  22.848  0.00  0.00     0.041 A 
ATOM     17  C   UNL d   1     -49.874  14.502  22.182  0.00  0.00     0.196 A 
ATOM     18  O   UNL d   1     -49.733  14.209  21.418  0.00  0.00    -0.287 OA
ATOM     19  C   UNL d   1     -50.302  15.216  22.280  0.00  0.00     0.042 A 
ATOM     20  C   UNL d   1     -50.447  15.514  23.033  0.00  0.00     0.003 A 
ATOM     21  C   UNL d   1     -50.171  15.112  23.698  0.00  0.00     0.000 A 
ATOM     22  C   UNL d   1     -49.750  14.411  23.610  0.00  0.00     0.003 A 
ENDBRANCH   1  16
TORSDOF 5
ENDMDL
MODEL 4
REMARK VINA RESULT:      -6.6      1.116      2.375
REMARK  5 active torsions:
REMARK  status: ('A' for Active; 'I' for Inactive)
REMARK    1  A    between atoms: C_2  and  C_1 
REMARK    2  A    between atoms: C_3  and  C_1 
REMARK    3  A    between atoms: C_4  and  C_1 
REMARK    4  A    between atoms: C_5  and  C_2 
REMARK    5  A    between atoms: C_13  and  C_5 
ROOT
ATOM      1  C   UNL d   1     -49.335  13.386  22.725  0.00  0.00     0.029 C 
ENDROOT
BRANCH   1   2
ATOM      2  C   UNL d   1     -48.562  13.649  22.821  0.00  0.00     0.044 C 
BRANCH   2   3
ATOM      3  C   UNL d   1     -47.992  13.457  22.261  0.00  0.00     0.196 C 
ATOM      4  O   UNL d   1     -48.183  13.212  21.686  0.00  0.00    -0.287 OA
BRANCH   3   5
ATOM      5  C   UNL d   1     -47.171  13.565  22.406  0.00  0.00     0.039 A 
ATOM      6  C   UNL d   1     -46.934  14.241  22.810  0.00  0.00     0.003 A 
ATOM      7  C   UNL d   1     -46.118  14.353  22.956  0.00  0.00     0.000 A 
ATOM      8  C   UNL d   1     -45.564  13.795  22.698  0.00  0.00     0.000 A 
ATOM      9  C   UNL d   1     -45.830  13.132  22.297  0.00  0.00     0.000 A 
ATOM     10  C   UNL d   1     -46.621  13.011  22.149  0.00  0.00     0.003 A 
ENDBRANCH   3   5
ENDBRANCH   2   3
ENDBRANCH   1   2
BRANCH   1  11
ATOM     11  C   UNL d   1     -49.531  12.603  22.910  0.00  0.00     0.100 A 
ATOM     12  O   UNL d   1     -49.443  12.330  23.680  0.00  0.00    -0.305 OA
ATOM     13  C   UNL d   1     -49.679  11.541  23.693  0.00  0.00     0.123 A 
ATOM     14  C   UNL d   1     -49.909  11.335  22.928  0.00  0.00     0.029 A 
ATOM     15  C   UNL d   1     -49.820  11.980  22.448  0.00  0.00     0.027 A 
ENDBRANCH   1  11
BRANCH   1  16
ATOM     16  C   UNL d   1     -49.911  13.914  22.444  0.00  0.00     0.041 A 
ATOM     17  C   UNL d   1     -50.193  14.526  22.919  0.00  0.00     0.196 A 
ATOM     18  O   UNL d   1     -49.908  14.630  23.692  0.00  0.00    -0.287 OA
ATOM     19  C   UNL d   1     -50.774  15.049  22.618  0.00  0.00     0.042 A 
ATOM     20  C   UNL d   1     -51.063  14.954  21.854  0.00  0.00     0.003 A 
ATOM     21  C   UNL d   1     -50.782  14.342  21.378  0.00  0.00     0.000 A 
ATOM     22  C   UNL d   1     -50.211  13.824  21.667  0.00  0.00     0.003 A 
ENDBRANCH   1  16
TORSDOF 5
ENDMDL
MODEL 5
REMARK VINA RESULT:      -6.4      9.099     10.381
REMARK  5 active torsions:
REMARK  status: ('A' for Active; 'I' for Inactive)
REMARK    1  A    between atoms: C_2  and  C_1 
REMARK    2  A    between atoms: C_3  and  C_1 
REMARK    3  A    between atoms: C_4  and  C_1 
REMARK    4  A    between atoms: C_5  and  C_2 
REMARK    5  A    between atoms: C_13  and  C_5 
ROOT
ATOM      1  C   UNL d   1     -39.557  14.280  18.126  0.00  0.00     0.029 C 
ENDROOT
BRANCH   1   2
ATOM      2  C   UNL d   1     -39.725  14.341  18.929  0.00  0.00     0.044 C 
BRANCH   2   3
ATOM      3  C   UNL d   1     -39.225  14.770  19.419  0.00  0.00     0.196 C 
ATOM      4  O   UNL d   1     -38.664  15.000  19.177  0.00  0.00    -0.287 OA
BRANCH   3   5
ATOM      5  C   UNL d   1     -39.414  14.923  20.224  0.00  0.00     0.039 A 
ATOM      6  C   UNL d   1     -39.528  15.704  20.454  0.00  0.00     0.003 A 
ATOM      7  C   UNL d   1     -39.716  15.861  21.254  0.00  0.00     0.000 A 
ATOM      8  C   UNL d   1     -39.785  15.242  21.800  0.00  0.00     0.000 A 
ATOM      9  C   UNL d   1     -39.666  14.475  21.540  0.00  0.00     0.000 A 
ATOM     10  C   UNL d   1     -39.483  14.308  20.765  0.00  0.00     0.003 A 
ENDBRANCH   3   5
ENDBRANCH   2   3
ENDBRANCH   1   2
BRANCH   1  11
ATOM     11  C   UNL d   1     -39.006  13.722  17.861  0.00  0.00     0.100 A 
ATOM     12  O   UNL d   1     -39.201  12.923  17.857  0.00  0.00    -0.305 OA
ATOM     13  C   UNL d   1     -38.550  12.509  17.568  0.00  0.00     0.123 A 
ATOM     14  C   UNL d   1     -37.959  13.058  17.397  0.00  0.00     0.029 A 
ATOM     15  C   UNL d   1     -38.234  13.798  17.574  0.00  0.00     0.027 A 
ENDBRANCH   1  11
BRANCH   1  16
ATOM     16  C   UNL d   1     -39.946  14.781  17.590  0.00  0.00     0.041 A 
ATOM     17  C   UNL d   1     -40.751  14.691  17.435  0.00  0.00     0.196 A 
ATOM     18  O   UNL d   1     -41.194  14.097  17.810  0.00  0.00    -0.287 OA
ATOM     19  C   UNL d   1     -41.127  15.207  16.892  0.00  0.00     0.042 A 
ATOM     20  C   UNL d   1     -40.698  15.799  16.515  0.00  0.00     0.003 A 
ATOM     21  C   UNL d   1     -39.892  15.889  16.670  0.00  0.00     0.000 A 
ATOM     22  C   UNL d   1     -39.517  15.386  17.202  0.00  0.00     0.003 A 
ENDBRANCH   1  16
TORSDOF 5
ENDMDL
MODEL 6
REMARK VINA RESULT:      -6.0      1.230      3.939
REMARK  5 active torsions:
REMARK  status: ('A' for Active; 'I' for Inactive)
REMARK    1  A    between atoms: C_2  and  C_1 
REMARK    2  A    between atoms: C_3  and  C_1 
REMARK    3  A    between atoms: C_4  and  C_1 
REMARK    4  A    between atoms: C_5  and  C_2 
REMARK    5  A    between atoms: C_13  and  C_5 
ROOT
ATOM      1  C   UNL d   1     -47.592  13.209  22.748  0.00  0.00     0.029 C 
ENDROOT
BRANCH   1   2
ATOM      2  C   UNL d   1     -48.055  13.885  22.824  0.00  0.00     0.044 C 
BRANCH   2   3
ATOM      3  C   UNL d   1     -48.656  14.032  22.285  0.00  0.00     0.196 C 
ATOM      4  O   UNL d   1     -48.631  13.749  21.697  0.00  0.00    -0.287 OA
BRANCH   3   5
ATOM      5  C   UNL d   1     -49.304  14.537  22.466  0.00  0.00     0.039 A 
ATOM      6  C   UNL d   1     -49.141  15.279  22.779  0.00  0.00     0.003 A 
ATOM      7  C   UNL d   1     -49.782  15.785  22.961  0.00  0.00     0.000 A 
ATOM      8  C   UNL d   1     -50.562  15.540  22.828  0.00  0.00     0.000 A 
ATOM      9  C   UNL d   1     -50.692  14.795  22.516  0.00  0.00     0.000 A 
ATOM     10  C   UNL d   1     -50.078  14.293  22.334  0.00  0.00     0.003 A 
ENDBRANCH   3   5
ENDBRANCH   2   3
ENDBRANCH   1   2
BRANCH   1  11
ATOM     11  C   UNL d   1     -47.911  12.467  22.929  0.00  0.00     0.100 A 
ATOM     12  O   UNL d   1     -47.825  12.158  23.686  0.00  0.00    -0.305 OA
ATOM     13  C   UNL d   1     -48.195  11.423  23.698  0.00  0.00     0.123 A 
ATOM     14  C   UNL d   1     -48.507  11.285  22.947  0.00  0.00     0.029 A 
ATOM     15  C   UNL d   1     -48.336  11.921  22.475  0.00  0.00     0.027 A 
ENDBRANCH   1  11
BRANCH   1  16
ATOM     16  C   UNL d   1     -46.806  13.283  22.488  0.00  0.00     0.041 A 
ATOM     17  C   UNL d   1     -46.240  13.659  22.956  0.00  0.00     0.196 A 
ATOM     18  O   UNL d   1     -46.440  13.974  23.698  0.00  0.00    -0.287 OA
ATOM     19  C   UNL d   1     -45.452  13.724  22.678  0.00  0.00     0.042 A 
ATOM     20  C   UNL d   1     -45.243  13.416  21.944  0.00  0.00     0.003 A 
ATOM     21  C   UNL d   1     -45.810  13.039  21.476  0.00  0.00     0.000 A 
ATOM     22  C   UNL d   1     -46.585  12.972  21.743  0.00  0.00     0.003 A 
ENDBRANCH   1  16
TORSDOF 5
ENDMDL
MODEL 7
REMARK VINA RESULT:      -5.5      7.636      9.828
REMARK  5 active torsions:
REMARK  status: ('A' for Active; 'I' for Inactive)
REMARK    1  A    between atoms: C_2  and  C_1 
REMARK    2  A    between atoms: C_3  and  C_1 
REMARK    3  A    between atoms: C_4  and  C_1 
REMARK    4  A    between atoms: C_5  and  C_2 
REMARK    5  A    between atoms: C_13  and  C_5 
ROOT
ATOM      1  C   UNL d   1     -39.732  14.829  20.303  0.00  0.00     0.029 C 
ENDROOT
BRANCH   1   2
ATOM      2  C   UNL d   1     -39.531  14.839  19.506  0.00  0.00     0.044 C 
BRANCH   2   3
ATOM      3  C   UNL d   1     -39.780  14.230  19.014  0.00  0.00     0.196 C 
ATOM      4  O   UNL d   1     -40.183  13.775  19.251  0.00  0.00    -0.287 OA
BRANCH   3   5
ATOM      5  C   UNL d   1     -39.531  14.175  18.212  0.00  0.00     0.039 A 
ATOM      6  C   UNL d   1     -39.004  13.577  18.010  0.00  0.00     0.003 A 
ATOM      7  C   UNL d   1     -38.754  13.517  17.214  0.00  0.00     0.000 A 
ATOM      8  C   UNL d   1     -39.031  14.051  16.645  0.00  0.00     0.000 A 
ATOM      9  C   UNL d   1     -39.555  14.636  16.877  0.00  0.00     0.000 A 
ATOM     10  C   UNL d   1     -39.806  14.705  17.648  0.00  0.00     0.003 A 
ENDBRANCH   3   5
ENDBRANCH   2   3
ENDBRANCH   1   2
BRANCH   1  11
ATOM     11  C   UNL d   1     -40.490  15.064  20.541  0.00  0.00     0.100 A 
ATOM     12  O   UNL d   1     -40.693  15.860  20.533  0.00  0.00    -0.305 OA
ATOM     13  C   UNL d   1     -41.472  15.921  20.794  0.00  0.00     0.123 A 
ATOM     14  C   UNL d   1     -41.741  15.160  20.961  0.00  0.00     0.029 A 
ATOM     15  C   UNL d   1     -41.145  14.634  20.807  0.00  0.00     0.027 A 
ENDBRANCH   1  11
BRANCH   1  16
ATOM     16  C   UNL d   1     -39.168  14.583  20.861  0.00  0.00     0.041 A 
ATOM     17  C   UNL d   1     -38.511  15.051  21.033  0.00  0.00     0.196 A 
ATOM     18  O   UNL d   1     -38.397  15.781  20.653  0.00  0.00    -0.287 OA
ATOM     19  C   UNL d   1     -37.952  14.786  21.599  0.00  0.00     0.042 A 
ATOM     20  C   UNL d   1     -38.057  14.065  21.981  0.00  0.00     0.003 A 
ATOM     21  C   UNL d   1     -38.714  13.597  21.808  0.00  0.00     0.000 A 
ATOM     22  C   UNL d   1     -39.267  13.850  21.254  0.00  0.00     0.003 A 
ENDBRANCH   1  16
TORSDOF 5
ENDMDL
MODEL 8
REMARK VINA RESULT:      -5.2      1.073      3.288
REMARK  5 active torsions:
REMARK  status: ('A' for Active; 'I' for Inactive)
REMARK    1  A    between atoms: C_2  and  C_1 
REMARK    2  A    between atoms: C_3  and  C_1 
REMARK    3  A    between atoms: C_4  and  C_1 
REMARK    4  A    between atoms: C_5  and  C_2 
REMARK    5  A    between atoms: C_13  and  C_5 
ROOT
ATOM      1  C   UNL d   1     -48.014  13.758  22.426  0.00  0.00     0.029 C 
ENDROOT
BRANCH   1   2
ATOM      2  C   UNL d   1     -48.547  13.146  22.563  0.00  0.00     0.044 C 
BRANCH   2   3
ATOM      3  C   UNL d   1     -48.993  13.139  23.252  0.00  0.00     0.196 C 
ATOM      4  O   UNL d   1     -48.895  13.606  23.698  0.00  0.00    -0.287 OA
BRANCH   3   5
ATOM      5  C   UNL d   1     -49.572  12.548  23.402  0.00  0.00     0.039 A 
ATOM      6  C   UNL d   1     -50.360  12.779  23.438  0.00  0.00     0.003 A 
ATOM      7  C   UNL d   1     -50.940  12.195  23.587  0.00  0.00     0.000 A 
ATOM      8  C   UNL d   1     -50.723  11.403  23.696  0.00  0.00     0.000 A 
ATOM      9  C   UNL d   1     -49.929  11.205  23.655  0.00  0.00     0.000 A 
ATOM     10  C   UNL d   1     -49.355  11.763  23.510  0.00  0.00     0.003 A 
ENDBRANCH   3   5
ENDBRANCH   2   3
ENDBRANCH   1   2
BRANCH   1  11
ATOM     11  C   UNL d   1     -48.293  14.515  22.242  0.00  0.00     0.100 A 
ATOM     12  O   UNL d   1     -48.903  14.605  21.698  0.00  0.00    -0.305 OA
ATOM     13  C   UNL d   1     -49.059  15.411  21.630  0.00  0.00     0.123 A 
ATOM     14  C   UNL d   1     -48.541  15.811  22.134  0.00  0.00     0.029 A 
ATOM     15  C   UNL d   1     -48.073  15.266  22.508  0.00  0.00     0.027 A 
ENDBRANCH   1  11
BRANCH   1  16
ATOM     16  C   UNL d   1     -47.199  13.604  22.474  0.00  0.00     0.041 A 
ATOM     17  C   UNL d   1     -46.813  13.175  21.885  0.00  0.00     0.196 A 
ATOM     18  O   UNL d   1     -47.229  12.886  21.227  0.00  0.00    -0.287 OA
ATOM     19  C   UNL d   1     -45.991  13.030  21.951  0.00  0.00     0.042 A 
ATOM     20  C   UNL d   1     -45.569  13.312  22.599  0.00  0.00     0.003 A 
ATOM     21  C   UNL d   1     -45.955  13.741  23.189  0.00  0.00     0.000 A 
ATOM     22  C   UNL d   1     -46.762  13.887  23.130  0.00  0.00     0.003 A 
ENDBRANCH   1  16
TORSDOF 5
ENDMDL
MODEL 9
REMARK VINA RESULT:      -5.2      8.296     10.232
REMARK  5 active torsions:
REMARK  status: ('A' for Active; 'I' for Inactive)
REMARK    1  A    between atoms: C_2  and  C_1 
REMARK    2  A    between atoms: C_3  and  C_1 
REMARK    3  A    between atoms: C_4  and  C_1 
REMARK    4  A    between atoms: C_5  and  C_2 
REMARK    5  A    between atoms: C_13  and  C_5 
ROOT
ATOM      1  C   UNL d   1     -39.917  14.928  17.724  0.00  0.00     0.029 C 
ENDROOT
BRANCH   1   2
ATOM      2  C   UNL d   1     -39.894  14.956  18.545  0.00  0.00     0.044 C 
BRANCH   2   3
ATOM      3  C   UNL d   1     -40.255  14.364  18.985  0.00  0.00     0.196 C 
ATOM      4  O   UNL d   1     -40.601  13.904  18.675  0.00  0.00    -0.287 OA
BRANCH   3   5
ATOM      5  C   UNL d   1     -40.195  14.332  19.823  0.00  0.00     0.039 A 
ATOM      6  C   UNL d   1     -40.871  14.480  20.267  0.00  0.00     0.003 A 
ATOM      7  C   UNL d   1     -40.816  14.449  21.101  0.00  0.00     0.000 A 
ATOM      8  C   UNL d   1     -40.095  14.272  21.469  0.00  0.00     0.000 A 
ATOM      9  C   UNL d   1     -39.439  14.129  21.000  0.00  0.00     0.000 A 
ATOM     10  C   UNL d   1     -39.479  14.156  20.188  0.00  0.00     0.003 A 
ENDBRANCH   3   5
ENDBRANCH   2   3
ENDBRANCH   1   2
BRANCH   1  11
ATOM     11  C   UNL d   1     -40.575  15.224  17.319  0.00  0.00     0.100 A 
ATOM     12  O   UNL d   1     -40.902  14.794  16.699  0.00  0.00    -0.305 OA
ATOM     13  C   UNL d   1     -41.542  15.224  16.408  0.00  0.00     0.123 A 
ATOM     14  C   UNL d   1     -41.603  15.916  16.853  0.00  0.00     0.029 A 
ATOM     15  C   UNL d   1     -41.015  15.919  17.409  0.00  0.00     0.027 A 
ENDBRANCH   1  11
BRANCH   1  16
ATOM     16  C   UNL d   1     -39.275  14.600  17.311  0.00  0.00     0.041 A 
ATOM     17  C   UNL d   1     -38.586  15.036  17.184  0.00  0.00     0.196 A 
ATOM     18  O   UNL d   1     -38.517  15.814  17.466  0.00  0.00    -0.287 OA
ATOM     19  C   UNL d   1     -37.949  14.689  16.766  0.00  0.00     0.042 A 
ATOM     20  C   UNL d   1     -38.008  13.918  16.482  0.00  0.00     0.003 A 
ATOM     21  C   UNL d   1     -38.697  13.482  16.609  0.00  0.00     0.000 A 
ATOM     22  C   UNL d   1     -39.326  13.817  17.019  0.00  0.00     0.003 A 
ENDBRANCH   1  16
TORSDOF 5
ENDMDL
