MODEL 1
REMARK VINA RESULT:      -7.6      0.000      0.000
REMARK  1 active torsions:
REMARK  status: ('A' for Active; 'I' for Inactive)
REMARK    1  A    between atoms: C_6  and  C_2 
ROOT
ATOM      1  S   UNL d   1      53.413  31.546  53.693  0.00  0.00    -0.024 SA
ATOM      2  C   UNL d   1      53.378  32.356  53.567  0.00  0.00     0.135 A 
ATOM      3  N   UNL d   1      52.976  32.496  52.863  0.00  0.00    -0.139 NA
ATOM      4  C   UNL d   1      53.028  31.184  53.060  0.00  0.00     0.236 A 
ATOM      5  N   UNL d   1      52.760  31.761  52.551  0.00  0.00    -0.119 NA
ATOM      6  N   UNL d   1      52.933  30.370  52.963  0.00  0.00    -0.118 N 
ENDROOT
BRANCH   2   7
ATOM      7  C   UNL d   1      53.693  32.934  54.063  0.00  0.00     0.029 A 
ATOM      8  C   UNL d   1      54.468  32.886  54.325  0.00  0.00     0.023 A 
ATOM      9  C   UNL d   1      54.784  33.467  54.823  0.00  0.00     0.099 A 
ATOM     10  N   UNL d   1      54.328  34.099  55.061  0.00  0.00    -0.242 NA
ATOM     11  C   UNL d   1      53.549  34.157  54.803  0.00  0.00     0.099 A 
ATOM     12  C   UNL d   1      53.233  33.576  54.305  0.00  0.00     0.023 A 
ENDBRANCH   2   7
TORSDOF 1
ENDMDL
MODEL 2
REMARK VINA RESULT:      -7.4      1.042      2.987
REMARK  1 active torsions:
REMARK  status: ('A' for Active; 'I' for Inactive)
REMARK    1  A    between atoms: C_6  and  C_2 
ROOT
ATOM      1  S   UNL d   1      54.030  32.794  54.733  0.00  0.00    -0.024 SA
ATOM      2  C   UNL d   1      54.107  32.521  53.964  0.00  0.00     0.135 A 
ATOM      3  N   UNL d   1      54.802  32.827  53.644  0.00  0.00    -0.139 NA
ATOM      4  C   UNL d   1      54.683  33.273  54.889  0.00  0.00     0.236 A 
ATOM      5  N   UNL d   1      55.156  33.296  54.226  0.00  0.00    -0.119 NA
ATOM      6  N   UNL d   1      54.828  33.664  55.601  0.00  0.00    -0.118 N 
ENDROOT
BRANCH   2   7
ATOM      7  C   UNL d   1      53.579  32.023  53.574  0.00  0.00     0.029 A 
ATOM      8  C   UNL d   1      52.953  32.328  53.145  0.00  0.00     0.023 A 
ATOM      9  C   UNL d   1      52.422  31.827  52.753  0.00  0.00     0.099 A 
ATOM     10  N   UNL d   1      52.515  31.019  52.790  0.00  0.00    -0.242 NA
ATOM     11  C   UNL d   1      53.141  30.701  53.218  0.00  0.00     0.099 A 
ATOM     12  C   UNL d   1      53.672  31.202  53.610  0.00  0.00     0.023 A 
ENDBRANCH   2   7
TORSDOF 1
ENDMDL
MODEL 3
REMARK VINA RESULT:      -6.8      1.656      2.740
REMARK  1 active torsions:
REMARK  status: ('A' for Active; 'I' for Inactive)
REMARK    1  A    between atoms: C_6  and  C_2 
ROOT
ATOM      1  S   UNL d   1      53.632  33.602  54.547  0.00  0.00    -0.024 SA
ATOM      2  C   UNL d   1      53.355  33.407  53.800  0.00  0.00     0.135 A 
ATOM      3  N   UNL d   1      53.929  32.959  53.415  0.00  0.00    -0.139 NA
ATOM      4  C   UNL d   1      54.384  33.271  54.623  0.00  0.00     0.236 A 
ATOM      5  N   UNL d   1      54.569  32.878  53.933  0.00  0.00    -0.119 NA
ATOM      6  N   UNL d   1      54.866  33.332  55.289  0.00  0.00    -0.118 N 
ENDROOT
BRANCH   2   7
ATOM      7  C   UNL d   1      52.624  33.622  53.486  0.00  0.00     0.029 A 
ATOM      8  C   UNL d   1      52.514  34.359  53.146  0.00  0.00     0.023 A 
ATOM      9  C   UNL d   1      51.780  34.575  52.831  0.00  0.00     0.099 A 
ATOM     10  N   UNL d   1      51.152  34.056  52.854  0.00  0.00    -0.242 NA
ATOM     11  C   UNL d   1      51.252  33.313  53.193  0.00  0.00     0.099 A 
ATOM     12  C   UNL d   1      51.986  33.097  53.509  0.00  0.00     0.023 A 
ENDBRANCH   2   7
TORSDOF 1
ENDMDL
MODEL 4
REMARK VINA RESULT:      -6.7      1.832      2.235
REMARK  1 active torsions:
REMARK  status: ('A' for Active; 'I' for Inactive)
REMARK    1  A    between atoms: C_6  and  C_2 
ROOT
ATOM      1  S   UNL d   1      51.982  33.474  53.486  0.00  0.00    -0.024 SA
ATOM      2  C   UNL d   1      52.690  33.878  53.572  0.00  0.00     0.135 A 
ATOM      3  N   UNL d   1      52.600  34.637  53.265  0.00  0.00    -0.139 NA
ATOM      4  C   UNL d   1      51.450  33.988  53.122  0.00  0.00     0.236 A 
ATOM      5  N   UNL d   1      51.824  34.700  52.985  0.00  0.00    -0.119 NA
ATOM      6  N   UNL d   1      50.669  33.808  52.929  0.00  0.00    -0.118 N 
ENDROOT
BRANCH   2   7
ATOM      7  C   UNL d   1      53.378  33.577  53.911  0.00  0.00     0.029 A 
ATOM      8  C   UNL d   1      53.595  33.779  54.674  0.00  0.00     0.023 A 
ATOM      9  C   UNL d   1      54.287  33.477  55.014  0.00  0.00     0.099 A 
ATOM     10  N   UNL d   1      54.765  32.970  54.592  0.00  0.00    -0.242 NA
ATOM     11  C   UNL d   1      54.557  32.760  53.824  0.00  0.00     0.099 A 
ATOM     12  C   UNL d   1      53.866  33.062  53.485  0.00  0.00     0.023 A 
ENDBRANCH   2   7
TORSDOF 1
ENDMDL
