MODEL 1
REMARK VINA RESULT:      89.6      0.000      0.000
REMARK  4 active torsions:
REMARK  status: ('A' for Active; 'I' for Inactive)
REMARK    1  A    between atoms: C_8  and  C_1 
REMARK    2  A    between atoms: C_10  and  C_7 
REMARK    3  A    between atoms: N_9  and  C_10 
REMARK    4  A    between atoms: O_23  and  C_15 
ROOT
ATOM      1  C   UNL d   1     -57.734 -99.034 -44.415  0.00  0.00     0.064 A 
ATOM      2  C   UNL d   1     -56.256 -99.162 -43.681  0.00  0.00     0.107 A 
ATOM      3  C   UNL d   1     -57.665 -98.926 -43.600  0.00  0.00     0.199 A 
ATOM      4  C   UNL d   1     -56.926 -98.990 -43.228  0.00  0.00     0.062 A 
ATOM      5  C   UNL d   1     -57.056 -99.208 -44.873  0.00  0.00     0.103 A 
ATOM      6  O   UNL d   1     -56.313 -99.272 -44.502  0.00  0.00    -0.307 OA
ATOM      7  C   UNL d   1     -55.517 -99.226 -43.318  0.00  0.00     0.079 A 
ATOM      8  C   UNL d   1     -56.854 -98.883 -42.415  0.00  0.00     0.009 A 
ATOM      9  C   UNL d   1     -55.454 -99.119 -42.510  0.00  0.00     0.199 A 
ATOM     10  O   UNL d   1     -58.329 -98.756 -43.152  0.00  0.00    -0.286 OA
ATOM     11  C   UNL d   1     -56.124 -98.947 -42.057  0.00  0.00     0.042 A 
ATOM     12  C   UNL d   1     -57.125 -99.315 -45.688  0.00  0.00     0.027 C 
ATOM     13  O   UNL d   1     -54.711 -99.183 -42.141  0.00  0.00    -0.286 OA
ENDROOT
BRANCH   1  14
ATOM     14  C   UNL d   1     -58.472 -98.970 -44.778  0.00  0.00     0.027 A 
ATOM     15  C   UNL d   1     -58.523 -98.841 -45.593  0.00  0.00     0.094 A 
ATOM     16  C   UNL d   1     -59.264 -98.778 -45.948  0.00  0.00     0.024 A 
ATOM     17  C   UNL d   1     -59.951 -98.842 -45.495  0.00  0.00     0.002 A 
ATOM     18  C   UNL d   1     -59.897 -98.971 -44.681  0.00  0.00     0.000 A 
ATOM     19  C   UNL d   1     -59.159 -99.036 -44.317  0.00  0.00     0.002 A 
BRANCH  15  20
ATOM     20  O   UNL d   1     -57.835 -98.776 -46.045  0.00  0.00    -0.328 OA
ATOM     21  C   UNL d   1     -57.881 -98.814 -46.869  0.00  0.00     0.181 C 
ENDBRANCH  15  20
ENDBRANCH   1  14
BRANCH   7  22
ATOM     22  C   UNL d   1     -54.847 -99.398 -43.770  0.00  0.00     0.086 C 
BRANCH  22  23
ATOM     23  N   UNL d   1     -54.824-100.081 -44.231  0.00  0.00    -0.300 N 
ATOM     24  C   UNL d   1     -54.876-100.024 -45.052  0.00  0.00     0.100 A 
ATOM     25  C   UNL d   1     -54.853-100.712 -45.526  0.00  0.00     0.100 A 
ATOM     26  N   UNL d   1     -54.779-101.446 -45.170  0.00  0.00    -0.299 N 
ATOM     27  C   UNL d   1     -54.726-101.497 -44.337  0.00  0.00     0.100 A 
ATOM     28  C   UNL d   1     -54.755-102.133 -45.621  0.00  0.00     0.100 C 
ATOM     29  C   UNL d   1     -54.749-100.814 -43.875  0.00  0.00     0.100 A 
ENDBRANCH  22  23
ENDBRANCH   7  22
TORSDOF 4
ENDMDL
