MODEL 1
REMARK VINA RESULT:      28.4      0.000      0.000
REMARK  3 active torsions:
REMARK  status: ('A' for Active; 'I' for Inactive)
REMARK    1  A    between atoms: C_7  and  C_1 
REMARK    2  A    between atoms: C_9  and  C_6 
REMARK    3  A    between atoms: O_13  and  C_7 
ROOT
ATOM      1  C   UNL d   1      14.124  13.293  -2.522  0.00  0.00     0.097 A 
ATOM      2  C   UNL d   1      13.872  13.544  -3.263  0.00  0.00     0.073 A 
ATOM      3  C   UNL d   1      13.235  12.284  -3.474  0.00  0.00     0.206 A 
ATOM      4  N   UNL d   1      13.428  13.046  -3.742  0.00  0.00    -0.280 N 
ATOM      5  N   UNL d   1      13.488  12.033  -2.733  0.00  0.00    -0.218 NA
ATOM      6  C   UNL d   1      13.938  12.537  -2.245  0.00  0.00     0.090 A 
ATOM      7  S   UNL d   1      12.790  11.782  -3.954  0.00  0.00    -0.038 SA
ATOM      8  C   UNL d   1      14.069  14.316  -3.530  0.00  0.00     0.019 C 
ATOM      9  C   UNL d   1      13.174  13.298  -4.487  0.00  0.00     0.101 C 
ENDROOT
BRANCH   6  10
ATOM     10  C   UNL d   1      14.194  12.283  -1.496  0.00  0.00     0.018 A 
ATOM     11  C   UNL d   1      13.636  12.093  -0.918  0.00  0.00     0.002 A 
ATOM     12  C   UNL d   1      13.888  11.842  -0.178  0.00  0.00     0.000 A 
ATOM     13  C   UNL d   1      14.700  11.779  -0.014  0.00  0.00     0.000 A 
ATOM     14  C   UNL d   1      15.246  11.970  -0.597  0.00  0.00     0.000 A 
ATOM     15  C   UNL d   1      14.994  12.222  -1.338  0.00  0.00     0.002 A 
ENDBRANCH   6  10
BRANCH   1  16
ATOM     16  C   UNL d   1      14.580  13.807  -2.032  0.00  0.00     0.299 C 
ATOM     17  O   UNL d   1      15.387  13.656  -1.906  0.00  0.00    -0.259 OA
BRANCH  16  18
ATOM     18  O   UNL d   1      14.211  14.462  -1.682  0.00  0.00    -0.296 OA
ATOM     19  C   UNL d   1      14.653  15.106  -1.425  0.00  0.00     0.185 C 
ENDBRANCH  16  18
ENDBRANCH   1  16
TORSDOF 3
ENDMDL
