MODEL 1
REMARK VINA RESULT:      14.7      0.000      0.000
REMARK  1 active torsions:
REMARK  status: ('A' for Active; 'I' for Inactive)
REMARK    1  A    between atoms: C_6  and  C_1 
ROOT
ATOM      1  C   UNL d   1      14.448  12.604  -2.260  0.00  0.00     0.148 A 
ATOM      2  N   UNL d   1      14.102  12.340  -1.557  0.00  0.00    -0.289 N 
ATOM      3  N   UNL d   1      15.187  12.912  -2.095  0.00  0.00    -0.225 NA
ATOM      4  C   UNL d   1      14.626  12.485  -0.958  0.00  0.00     0.085 A 
ATOM      5  C   UNL d   1      15.298  12.838  -1.288  0.00  0.00     0.118 A 
ATOM      6  C   UNL d   1      13.370  11.988  -1.415  0.00  0.00     0.082 A 
ATOM      7  C   UNL d   1      14.458  12.288  -0.173  0.00  0.00     0.019 A 
ATOM      8  C   UNL d   1      13.179  11.779  -0.614  0.00  0.00     0.019 A 
ATOM      9  C   UNL d   1      13.703  11.924  -0.015  0.00  0.00     0.003 A 
ENDROOT
BRANCH   1  10
ATOM     10  C   UNL d   1      14.032  12.525  -2.969  0.00  0.00     0.035 A 
ATOM     11  C   UNL d   1      14.069  13.109  -3.584  0.00  0.00     0.004 A 
ATOM     12  C   UNL d   1      13.655  13.025  -4.283  0.00  0.00     0.011 A 
ATOM     13  C   UNL d   1      13.199  12.363  -4.382  0.00  0.00     0.058 A 
ATOM     14  C   UNL d   1      13.145  11.783  -3.803  0.00  0.00     0.011 A 
ATOM     15 CL   UNL d   1      12.769  12.288  -5.123  0.00  0.00    -0.082 Cl
ATOM     16  C   UNL d   1      13.559  11.862  -3.099  0.00  0.00     0.004 A 
ENDBRANCH   1  10
TORSDOF 1
ENDMDL
MODEL 2
REMARK VINA RESULT:      15.4      1.772      3.409
REMARK  1 active torsions:
REMARK  status: ('A' for Active; 'I' for Inactive)
REMARK    1  A    between atoms: C_6  and  C_1 
ROOT
ATOM      1  C   UNL d   1      13.366  12.298  -3.458  0.00  0.00     0.148 A 
ATOM      2  N   UNL d   1      13.262  13.073  -3.726  0.00  0.00    -0.289 N 
ATOM      3  N   UNL d   1      13.138  11.779  -4.047  0.00  0.00    -0.225 NA
ATOM      4  C   UNL d   1      12.971  13.034  -4.480  0.00  0.00     0.085 A 
ATOM      5  C   UNL d   1      12.894  12.235  -4.681  0.00  0.00     0.118 A 
ATOM      6  C   UNL d   1      13.405  13.795  -3.355  0.00  0.00     0.082 A 
ATOM      7  C   UNL d   1      12.802  13.714  -4.919  0.00  0.00     0.019 A 
ATOM      8  C   UNL d   1      13.237  14.506  -3.791  0.00  0.00     0.019 A 
ATOM      9  C   UNL d   1      12.946  14.466  -4.544  0.00  0.00     0.003 A 
ENDROOT
BRANCH   1  10
ATOM     10  C   UNL d   1      13.659  12.170  -2.697  0.00  0.00     0.035 A 
ATOM     11  C   UNL d   1      14.475  12.292  -2.499  0.00  0.00     0.004 A 
ATOM     12  C   UNL d   1      14.759  12.163  -1.744  0.00  0.00     0.011 A 
ATOM     13  C   UNL d   1      14.240  11.912  -1.176  0.00  0.00     0.058 A 
ATOM     14  C   UNL d   1      13.445  11.785  -1.341  0.00  0.00     0.011 A 
ATOM     15 CL   UNL d   1      14.553  11.780  -0.386  0.00  0.00    -0.082 Cl
ATOM     16  C   UNL d   1      13.154  11.913  -2.097  0.00  0.00     0.004 A 
ENDBRANCH   1  10
TORSDOF 1
ENDMDL
