MODEL 1
REMARK VINA RESULT:      -8.2      0.000      0.000
REMARK  4 active torsions:
REMARK  status: ('A' for Active; 'I' for Inactive)
REMARK    1  A    between atoms: C_7  and  C_1 
REMARK    2  A    between atoms: N_8  and  C_7 
REMARK    3  A    between atoms: C_11  and  N_8 
REMARK    4  A    between atoms: O_13  and  C_12 
ROOT
ATOM      1  C   UNL d   1      52.000  33.851  53.048  0.00  0.00     0.145 A 
ATOM      2  C   UNL d   1      52.507  34.426  53.340  0.00  0.00     0.305 A 
ATOM      3  C   UNL d   1      52.091  33.060  53.283  0.00  0.00     0.305 A 
ATOM      4  O   UNL d   1      52.688  32.854  53.806  0.00  0.00    -0.269 OA
ATOM      5  O   UNL d   1      53.100  34.218  53.861  0.00  0.00    -0.269 OA
ATOM      6  C   UNL d   1      53.190  33.427  54.095  0.00  0.00     0.242 A 
ATOM      7  O   UNL d   1      51.568  32.463  52.982  0.00  0.00    -0.259 OA
ATOM      8  O   UNL d   1      52.416  35.222  53.104  0.00  0.00    -0.259 OA
ATOM      9  C   UNL d   1      53.436  32.727  54.437  0.00  0.00     0.035 A 
ATOM     10  C   UNL d   1      53.602  34.116  54.287  0.00  0.00     0.035 A 
ATOM     11  C   UNL d   1      54.229  34.089  54.799  0.00  0.00     0.001 A 
ATOM     12  C   UNL d   1      54.080  32.711  54.959  0.00  0.00     0.001 A 
ATOM     13  C   UNL d   1      54.471  33.411  55.133  0.00  0.00    -0.000 A 
ENDROOT
BRANCH   1  14
ATOM     14  C   UNL d   1      51.404  34.091  52.518  0.00  0.00     0.110 C 
BRANCH  14  15
ATOM     15  N   UNL d   1      50.657  34.297  52.822  0.00  0.00    -0.242 NA
BRANCH  15  16
ATOM     16  C   UNL d   1      50.035  34.452  52.294  0.00  0.00     0.104 A 
ATOM     17  C   UNL d   1      49.373  34.876  52.552  0.00  0.00     0.112 A 
ATOM     18  C   UNL d   1      48.751  35.032  52.030  0.00  0.00     0.026 A 
ATOM     19  C   UNL d   1      48.776  34.769  51.238  0.00  0.00     0.002 A 
ATOM     20  C   UNL d   1      49.457  34.343  51.005  0.00  0.00     0.002 A 
ATOM     21  C   UNL d   1      50.074  34.186  51.520  0.00  0.00     0.021 A 
BRANCH  17  22
ATOM     22  O   UNL d   1      49.333  35.147  53.342  0.00  0.00    -0.327 OA
ATOM     23  C   UNL d   1      48.737  35.641  53.567  0.00  0.00     0.181 C 
ENDBRANCH  17  22
ENDBRANCH  15  16
ENDBRANCH  14  15
ENDBRANCH   1  14
TORSDOF 4
ENDMDL
MODEL 2
REMARK VINA RESULT:      -7.4      2.265      3.506
REMARK  4 active torsions:
REMARK  status: ('A' for Active; 'I' for Inactive)
REMARK    1  A    between atoms: C_7  and  C_1 
REMARK    2  A    between atoms: N_8  and  C_7 
REMARK    3  A    between atoms: C_11  and  N_8 
REMARK    4  A    between atoms: O_13  and  C_12 
ROOT
ATOM      1  C   UNL d   1      53.246  31.627  53.567  0.00  0.00     0.145 A 
ATOM      2  C   UNL d   1      53.482  31.352  54.303  0.00  0.00     0.305 A 
ATOM      3  C   UNL d   1      52.989  31.091  52.987  0.00  0.00     0.305 A 
ATOM      4  O   UNL d   1      52.972  30.288  53.151  0.00  0.00    -0.269 OA
ATOM      5  O   UNL d   1      53.464  30.552  54.463  0.00  0.00    -0.269 OA
ATOM      6  C   UNL d   1      53.207  30.017  53.883  0.00  0.00     0.242 A 
ATOM      7  O   UNL d   1      52.744  31.372  52.225  0.00  0.00    -0.259 OA
ATOM      8  O   UNL d   1      53.740  31.890  54.887  0.00  0.00    -0.259 OA
ATOM      9  C   UNL d   1      52.994  29.351  53.459  0.00  0.00     0.035 A 
ATOM     10  C   UNL d   1      53.473  29.914  54.656  0.00  0.00     0.035 A 
ATOM     11  C   UNL d   1      53.518  29.173  54.979  0.00  0.00     0.001 A 
ATOM     12  C   UNL d   1      53.044  28.596  53.800  0.00  0.00     0.001 A 
ATOM     13  C   UNL d   1      53.312  28.523  54.572  0.00  0.00    -0.000 A 
ENDROOT
BRANCH   1  14
ATOM     14  C   UNL d   1      53.275  32.448  53.431  0.00  0.00     0.110 C 
BRANCH  14  15
ATOM     15  N   UNL d   1      52.560  32.875  53.402  0.00  0.00    -0.242 NA
BRANCH  15  16
ATOM     16  C   UNL d   1      52.584  33.704  53.426  0.00  0.00     0.104 A 
ATOM     17  C   UNL d   1      51.887  34.139  53.323  0.00  0.00     0.112 A 
ATOM     18  C   UNL d   1      51.907  34.965  53.346  0.00  0.00     0.026 A 
ATOM     19  C   UNL d   1      52.622  35.377  53.474  0.00  0.00     0.002 A 
ATOM     20  C   UNL d   1      53.310  34.912  53.575  0.00  0.00     0.002 A 
ATOM     21  C   UNL d   1      53.294  34.093  53.552  0.00  0.00     0.021 A 
BRANCH  17  22
ATOM     22  O   UNL d   1      51.164  33.741  53.195  0.00  0.00    -0.327 OA
ATOM     23  C   UNL d   1      50.517  34.154  52.945  0.00  0.00     0.181 C 
ENDBRANCH  17  22
ENDBRANCH  15  16
ENDBRANCH  14  15
ENDBRANCH   1  14
TORSDOF 4
ENDMDL
MODEL 3
REMARK VINA RESULT:      -7.4      1.049      1.934
REMARK  4 active torsions:
REMARK  status: ('A' for Active; 'I' for Inactive)
REMARK    1  A    between atoms: C_7  and  C_1 
REMARK    2  A    between atoms: N_8  and  C_7 
REMARK    3  A    between atoms: C_11  and  N_8 
REMARK    4  A    between atoms: O_13  and  C_12 
ROOT
ATOM      1  C   UNL d   1      51.409  33.856  53.357  0.00  0.00     0.145 A 
ATOM      2  C   UNL d   1      51.410  33.036  53.334  0.00  0.00     0.305 A 
ATOM      3  C   UNL d   1      52.127  34.272  53.366  0.00  0.00     0.305 A 
ATOM      4  O   UNL d   1      52.837  33.863  53.352  0.00  0.00    -0.269 OA
ATOM      5  O   UNL d   1      52.119  32.632  53.320  0.00  0.00    -0.269 OA
ATOM      6  C   UNL d   1      52.837  33.048  53.329  0.00  0.00     0.242 A 
ATOM      7  O   UNL d   1      52.128  35.120  53.390  0.00  0.00    -0.259 OA
ATOM      8  O   UNL d   1      50.688  32.617  53.325  0.00  0.00    -0.259 OA
ATOM      9  C   UNL d   1      53.624  33.267  53.332  0.00  0.00     0.035 A 
ATOM     10  C   UNL d   1      52.660  32.243  53.307  0.00  0.00     0.035 A 
ATOM     11  C   UNL d   1      53.255  31.693  53.290  0.00  0.00     0.001 A 
ATOM     12  C   UNL d   1      54.225  32.696  53.314  0.00  0.00     0.001 A 
ATOM     13  C   UNL d   1      54.021  31.902  53.293  0.00  0.00    -0.000 A 
ENDROOT
BRANCH   1  14
ATOM     14  C   UNL d   1      50.671  34.243  53.371  0.00  0.00     0.110 C 
BRANCH  14  15
ATOM     15  N   UNL d   1      50.313  34.450  52.648  0.00  0.00    -0.242 NA
BRANCH  15  16
ATOM     16  C   UNL d   1      49.596  34.866  52.657  0.00  0.00     0.104 A 
ATOM     17  C   UNL d   1      49.134  34.905  51.971  0.00  0.00     0.112 A 
ATOM     18  C   UNL d   1      48.418  35.320  51.976  0.00  0.00     0.026 A 
ATOM     19  C   UNL d   1      48.147  35.705  52.665  0.00  0.00     0.002 A 
ATOM     20  C   UNL d   1      48.633  35.649  53.343  0.00  0.00     0.002 A 
ATOM     21  C   UNL d   1      49.343  35.239  53.341  0.00  0.00     0.021 A 
BRANCH  17  22
ATOM     22  O   UNL d   1      49.392  34.525  51.273  0.00  0.00    -0.327 OA
ATOM     23  C   UNL d   1      48.871  34.392  50.672  0.00  0.00     0.181 C 
ENDBRANCH  17  22
ENDBRANCH  15  16
ENDBRANCH  14  15
ENDBRANCH   1  14
TORSDOF 4
ENDMDL
MODEL 4
REMARK VINA RESULT:      -7.4      1.237      4.628
REMARK  4 active torsions:
REMARK  status: ('A' for Active; 'I' for Inactive)
REMARK    1  A    between atoms: C_7  and  C_1 
REMARK    2  A    between atoms: N_8  and  C_7 
REMARK    3  A    between atoms: C_11  and  N_8 
REMARK    4  A    between atoms: O_13  and  C_12 
ROOT
ATOM      1  C   UNL d   1      51.132  34.111  52.576  0.00  0.00     0.145 A 
ATOM      2  C   UNL d   1      51.010  34.173  51.767  0.00  0.00     0.305 A 
ATOM      3  C   UNL d   1      50.505  34.247  53.102  0.00  0.00     0.305 A 
ATOM      4  O   UNL d   1      49.764  34.445  52.812  0.00  0.00    -0.269 OA
ATOM      5  O   UNL d   1      50.272  34.370  51.482  0.00  0.00    -0.269 OA
ATOM      6  C   UNL d   1      49.644  34.506  52.008  0.00  0.00     0.242 A 
ATOM      7  O   UNL d   1      50.628  34.183  53.939  0.00  0.00    -0.259 OA
ATOM      8  O   UNL d   1      51.641  34.036  51.238  0.00  0.00    -0.259 OA
ATOM      9  C   UNL d   1      48.922  34.674  52.351  0.00  0.00     0.035 A 
ATOM     10  C   UNL d   1      49.696  34.526  51.186  0.00  0.00     0.035 A 
ATOM     11  C   UNL d   1      49.045  34.707  50.739  0.00  0.00     0.001 A 
ATOM     12  C   UNL d   1      48.262  34.858  51.884  0.00  0.00     0.001 A 
ATOM     13  C   UNL d   1      48.341  34.871  51.067  0.00  0.00    -0.000 A 
ENDROOT
BRANCH   1  14
ATOM     14  C   UNL d   1      51.896  33.908  52.840  0.00  0.00     0.110 C 
BRANCH  14  15
ATOM     15  N   UNL d   1      52.078  33.106  52.965  0.00  0.00    -0.242 NA
BRANCH  15  16
ATOM     16  C   UNL d   1      52.825  32.902  53.263  0.00  0.00     0.104 A 
ATOM     17  C   UNL d   1      53.061  32.109  53.274  0.00  0.00     0.112 A 
ATOM     18  C   UNL d   1      53.806  31.902  53.570  0.00  0.00     0.026 A 
ATOM     19  C   UNL d   1      54.331  32.482  53.860  0.00  0.00     0.002 A 
ATOM     20  C   UNL d   1      54.067  33.275  53.836  0.00  0.00     0.002 A 
ATOM     21  C   UNL d   1      53.330  33.483  53.544  0.00  0.00     0.021 A 
BRANCH  17  22
ATOM     22  O   UNL d   1      52.546  31.517  52.988  0.00  0.00    -0.327 OA
ATOM     23  C   UNL d   1      52.774  30.743  53.005  0.00  0.00     0.181 C 
ENDBRANCH  17  22
ENDBRANCH  15  16
ENDBRANCH  14  15
ENDBRANCH   1  14
TORSDOF 4
ENDMDL
MODEL 5
REMARK VINA RESULT:      -6.4      2.507      4.302
REMARK  4 active torsions:
REMARK  status: ('A' for Active; 'I' for Inactive)
REMARK    1  A    between atoms: C_7  and  C_1 
REMARK    2  A    between atoms: N_8  and  C_7 
REMARK    3  A    between atoms: C_11  and  N_8 
REMARK    4  A    between atoms: O_13  and  C_12 
ROOT
ATOM      1  C   UNL d   1      53.289  32.694  53.511  0.00  0.00     0.145 A 
ATOM      2  C   UNL d   1      52.591  33.124  53.478  0.00  0.00     0.305 A 
ATOM      3  C   UNL d   1      53.973  33.038  53.831  0.00  0.00     0.305 A 
ATOM      4  O   UNL d   1      53.950  33.808  54.113  0.00  0.00    -0.269 OA
ATOM      5  O   UNL d   1      52.572  33.889  53.759  0.00  0.00    -0.269 OA
ATOM      6  C   UNL d   1      53.256  34.233  54.079  0.00  0.00     0.242 A 
ATOM      7  O   UNL d   1      54.696  32.596  53.867  0.00  0.00    -0.259 OA
ATOM      8  O   UNL d   1      51.902  32.778  53.156  0.00  0.00    -0.259 OA
ATOM      9  C   UNL d   1      53.804  34.734  54.420  0.00  0.00     0.035 A 
ATOM     10  C   UNL d   1      52.489  34.516  53.971  0.00  0.00     0.035 A 
ATOM     11  C   UNL d   1      52.294  35.268  54.199  0.00  0.00     0.001 A 
ATOM     12  C   UNL d   1      53.593  35.503  54.650  0.00  0.00     0.001 A 
ATOM     13  C   UNL d   1      52.823  35.758  54.531  0.00  0.00    -0.000 A 
ENDROOT
BRANCH   1  14
ATOM     14  C   UNL d   1      53.280  31.915  53.216  0.00  0.00     0.110 C 
BRANCH  14  15
ATOM     15  N   UNL d   1      53.268  31.282  53.757  0.00  0.00    -0.242 NA
BRANCH  15  16
ATOM     16  C   UNL d   1      53.122  30.514  53.477  0.00  0.00     0.104 A 
ATOM     17  C   UNL d   1      53.120  29.878  54.006  0.00  0.00     0.112 A 
ATOM     18  C   UNL d   1      52.974  29.111  53.731  0.00  0.00     0.026 A 
ATOM     19  C   UNL d   1      52.829  28.962  52.922  0.00  0.00     0.002 A 
ATOM     20  C   UNL d   1      52.838  29.625  52.411  0.00  0.00     0.002 A 
ATOM     21  C   UNL d   1      52.981  30.385  52.680  0.00  0.00     0.021 A 
BRANCH  17  22
ATOM     22  O   UNL d   1      53.264  30.009  54.818  0.00  0.00    -0.327 OA
ATOM     23  C   UNL d   1      53.263  29.388  55.332  0.00  0.00     0.181 C 
ENDBRANCH  17  22
ENDBRANCH  15  16
ENDBRANCH  14  15
ENDBRANCH   1  14
TORSDOF 4
ENDMDL
MODEL 6
REMARK VINA RESULT:      -6.3      1.066      4.473
REMARK  4 active torsions:
REMARK  status: ('A' for Active; 'I' for Inactive)
REMARK    1  A    between atoms: C_7  and  C_1 
REMARK    2  A    between atoms: N_8  and  C_7 
REMARK    3  A    between atoms: C_11  and  N_8 
REMARK    4  A    between atoms: O_13  and  C_12 
ROOT
ATOM      1  C   UNL d   1      51.341  33.741  52.860  0.00  0.00     0.145 A 
ATOM      2  C   UNL d   1      50.606  33.887  53.194  0.00  0.00     0.305 A 
ATOM      3  C   UNL d   1      51.461  33.870  52.049  0.00  0.00     0.305 A 
ATOM      4  O   UNL d   1      50.844  34.144  51.583  0.00  0.00    -0.269 OA
ATOM      5  O   UNL d   1      49.995  34.159  52.728  0.00  0.00    -0.269 OA
ATOM      6  C   UNL d   1      50.115  34.289  51.917  0.00  0.00     0.242 A 
ATOM      7  O   UNL d   1      52.220  33.720  51.700  0.00  0.00    -0.259 OA
ATOM      8  O   UNL d   1      50.486  33.757  54.010  0.00  0.00    -0.259 OA
ATOM      9  C   UNL d   1      50.034  34.473  51.125  0.00  0.00     0.035 A 
ATOM     10  C   UNL d   1      49.456  34.382  52.405  0.00  0.00     0.035 A 
ATOM     11  C   UNL d   1      48.755  34.648  52.099  0.00  0.00     0.001 A 
ATOM     12  C   UNL d   1      49.311  34.745  50.823  0.00  0.00     0.001 A 
ATOM     13  C   UNL d   1      48.672  34.828  51.330  0.00  0.00    -0.000 A 
ENDROOT
BRANCH   1  14
ATOM     14  C   UNL d   1      51.947  33.463  53.360  0.00  0.00     0.110 C 
BRANCH  14  15
ATOM     15  N   UNL d   1      52.502  34.008  53.658  0.00  0.00    -0.242 NA
BRANCH  15  16
ATOM     16  C   UNL d   1      53.128  33.731  54.128  0.00  0.00     0.104 A 
ATOM     17  C   UNL d   1      53.568  34.265  54.581  0.00  0.00     0.112 A 
ATOM     18  C   UNL d   1      54.193  33.993  55.051  0.00  0.00     0.026 A 
ATOM     19  C   UNL d   1      54.391  33.182  55.079  0.00  0.00     0.002 A 
ATOM     20  C   UNL d   1      53.928  32.666  54.610  0.00  0.00     0.002 A 
ATOM     21  C   UNL d   1      53.309  32.933  54.144  0.00  0.00     0.021 A 
BRANCH  17  22
ATOM     22  O   UNL d   1      53.383  35.079  54.564  0.00  0.00    -0.327 OA
ATOM     23  C   UNL d   1      53.647  35.564  55.152  0.00  0.00     0.181 C 
ENDBRANCH  17  22
ENDBRANCH  15  16
ENDBRANCH  14  15
ENDBRANCH   1  14
TORSDOF 4
ENDMDL
MODEL 7
REMARK VINA RESULT:      -5.8      1.506      5.080
REMARK  4 active torsions:
REMARK  status: ('A' for Active; 'I' for Inactive)
REMARK    1  A    between atoms: C_7  and  C_1 
REMARK    2  A    between atoms: N_8  and  C_7 
REMARK    3  A    between atoms: C_11  and  N_8 
REMARK    4  A    between atoms: O_13  and  C_12 
ROOT
ATOM      1  C   UNL d   1      49.209  35.163  52.341  0.00  0.00     0.145 A 
ATOM      2  C   UNL d   1      48.756  35.558  52.900  0.00  0.00     0.305 A 
ATOM      3  C   UNL d   1      48.867  34.926  51.623  0.00  0.00     0.305 A 
ATOM      4  O   UNL d   1      48.077  35.087  51.473  0.00  0.00    -0.269 OA
ATOM      5  O   UNL d   1      47.971  35.716  52.747  0.00  0.00    -0.269 OA
ATOM      6  C   UNL d   1      47.629  35.479  52.029  0.00  0.00     0.242 A 
ATOM      7  O   UNL d   1      49.333  34.517  51.043  0.00  0.00    -0.259 OA
ATOM      8  O   UNL d   1      49.100  35.796  53.622  0.00  0.00    -0.259 OA
ATOM      9  C   UNL d   1      47.124  35.333  51.403  0.00  0.00     0.035 A 
ATOM     10  C   UNL d   1      47.326  35.876  52.686  0.00  0.00     0.035 A 
ATOM     11  C   UNL d   1      46.551  36.110  52.701  0.00  0.00     0.001 A 
ATOM     12  C   UNL d   1      46.332  35.577  51.430  0.00  0.00     0.001 A 
ATOM     13  C   UNL d   1      46.057  35.970  52.096  0.00  0.00    -0.000 A 
ENDROOT
BRANCH   1  14
ATOM     14  C   UNL d   1      50.008  35.014  52.523  0.00  0.00     0.110 C 
BRANCH  14  15
ATOM     15  N   UNL d   1      50.225  34.256  52.789  0.00  0.00    -0.242 NA
BRANCH  15  16
ATOM     16  C   UNL d   1      51.020  34.103  52.972  0.00  0.00     0.104 A 
ATOM     17  C   UNL d   1      51.248  33.346  53.214  0.00  0.00     0.112 A 
ATOM     18  C   UNL d   1      52.039  33.189  53.397  0.00  0.00     0.026 A 
ATOM     19  C   UNL d   1      52.621  33.786  53.342  0.00  0.00     0.002 A 
ATOM     20  C   UNL d   1      52.362  34.541  53.095  0.00  0.00     0.002 A 
ATOM     21  C   UNL d   1      51.578  34.699  52.913  0.00  0.00     0.021 A 
BRANCH  17  22
ATOM     22  O   UNL d   1      50.677  32.738  53.274  0.00  0.00    -0.327 OA
ATOM     23  C   UNL d   1      50.914  31.969  53.327  0.00  0.00     0.181 C 
ENDBRANCH  17  22
ENDBRANCH  15  16
ENDBRANCH  14  15
ENDBRANCH   1  14
TORSDOF 4
ENDMDL
