MODEL 1
REMARK VINA RESULT:      -5.7      0.000      0.000
REMARK  5 active torsions:
REMARK  status: ('A' for Active; 'I' for Inactive)
REMARK    1  A    between atoms: C_5  and  N_1 
REMARK    2  A    between atoms: C_8  and  C_3 
REMARK    3  A    between atoms: C_7  and  C_4 
REMARK    4  A    between atoms: N_12  and  C_5 
REMARK    5  A    between atoms: N_11  and  C_10 
ROOT
ATOM      1  N   UNL d   1     -48.056  12.540  22.684  0.00  0.00    -0.203 N 
ATOM      2  N   UNL d   1     -47.299  12.262  22.575  0.00  0.00    -0.163 NA
ATOM      3  C   UNL d   1     -46.798  12.881  22.481  0.00  0.00     0.103 A 
ATOM      4  C   UNL d   1     -48.038  13.373  22.660  0.00  0.00     0.087 A 
ATOM      5  C   UNL d   1     -47.243  13.584  22.531  0.00  0.00     0.040 A 
ENDROOT
BRANCH   4   6
ATOM      6  C   UNL d   1     -48.664  13.904  22.742  0.00  0.00     0.018 A 
ATOM      7  C   UNL d   1     -49.124  14.091  22.114  0.00  0.00     0.003 A 
ATOM      8  C   UNL d   1     -49.754  14.625  22.195  0.00  0.00     0.018 A 
ATOM      9  C   UNL d   1     -49.899  14.961  22.934  0.00  0.00     0.064 A 
ATOM     10  C   UNL d   1     -49.435  14.777  23.579  0.00  0.00     0.018 A 
ATOM     11  C   UNL d   1     -48.810  14.242  23.480  0.00  0.00     0.003 A 
BRANCH   9  12
ATOM     12  N   UNL d   1     -50.510  15.482  23.020  0.00  0.00    -0.301 N 
ATOM     13  C   UNL d   1     -50.562  15.920  23.693  0.00  0.00     0.100 C 
ATOM     14  C   UNL d   1     -51.063  15.556  22.429  0.00  0.00     0.100 C 
ENDBRANCH   9  12
ENDBRANCH   4   6
BRANCH   1  15
ATOM     15  C   UNL d   1     -48.738  12.067  22.802  0.00  0.00     0.222 C 
ATOM     16  S   UNL d   1     -49.191  11.836  22.139  0.00  0.00    -0.037 SA
BRANCH  15  17
ATOM     17  N   UNL d   1     -48.958  11.829  23.576  0.00  0.00    -0.214 NA
ATOM     18  C   UNL d   1     -49.439  11.155  23.696  0.00  0.00     0.122 C 
ENDBRANCH  15  17
ENDBRANCH   1  15
BRANCH   3  19
ATOM     19  C   UNL d   1     -45.993  12.803  22.358  0.00  0.00     0.019 A 
ATOM     20  C   UNL d   1     -45.592  12.184  22.733  0.00  0.00     0.002 A 
ATOM     21  C   UNL d   1     -44.792  12.094  22.621  0.00  0.00     0.000 A 
ATOM     22  C   UNL d   1     -44.381  12.620  22.134  0.00  0.00     0.000 A 
ATOM     23  C   UNL d   1     -44.789  13.246  21.755  0.00  0.00     0.000 A 
ATOM     24  C   UNL d   1     -43.569  12.527  22.022  0.00  0.00     0.000 C 
ATOM     25  C   UNL d   1     -45.598  13.320  21.881  0.00  0.00     0.002 A 
ENDBRANCH   3  19
TORSDOF 5
ENDMDL
MODEL 2
REMARK VINA RESULT:      -4.8      0.709      1.030
REMARK  5 active torsions:
REMARK  status: ('A' for Active; 'I' for Inactive)
REMARK    1  A    between atoms: C_5  and  N_1 
REMARK    2  A    between atoms: C_8  and  C_3 
REMARK    3  A    between atoms: C_7  and  C_4 
REMARK    4  A    between atoms: N_12  and  C_5 
REMARK    5  A    between atoms: N_11  and  C_10 
ROOT
ATOM      1  N   UNL d   1     -47.437  12.537  22.707  0.00  0.00    -0.203 N 
ATOM      2  N   UNL d   1     -46.680  12.282  22.551  0.00  0.00    -0.163 NA
ATOM      3  C   UNL d   1     -46.211  12.914  22.394  0.00  0.00     0.103 A 
ATOM      4  C   UNL d   1     -47.453  13.369  22.646  0.00  0.00     0.087 A 
ATOM      5  C   UNL d   1     -46.679  13.602  22.449  0.00  0.00     0.040 A 
ENDROOT
BRANCH   4   6
ATOM      6  C   UNL d   1     -48.092  13.880  22.754  0.00  0.00     0.018 A 
ATOM      7  C   UNL d   1     -48.273  14.154  23.483  0.00  0.00     0.003 A 
ATOM      8  C   UNL d   1     -48.914  14.668  23.595  0.00  0.00     0.018 A 
ATOM      9  C   UNL d   1     -49.363  14.894  22.940  0.00  0.00     0.064 A 
ATOM     10  C   UNL d   1     -49.184  14.620  22.193  0.00  0.00     0.018 A 
ATOM     11  C   UNL d   1     -48.540  14.107  22.101  0.00  0.00     0.003 A 
BRANCH   9  12
ATOM     12  N   UNL d   1     -49.989  15.394  23.040  0.00  0.00    -0.301 N 
ATOM     13  C   UNL d   1     -50.571  15.411  22.486  0.00  0.00     0.100 C 
ATOM     14  C   UNL d   1     -50.021  15.873  23.697  0.00  0.00     0.100 C 
ENDBRANCH   9  12
ENDBRANCH   4   6
BRANCH   1  15
ATOM     15  C   UNL d   1     -48.088  12.045  22.896  0.00  0.00     0.222 C 
ATOM     16  S   UNL d   1     -48.219  11.835  23.694  0.00  0.00    -0.037 SA
BRANCH  15  17
ATOM     17  N   UNL d   1     -48.599  11.770  22.290  0.00  0.00    -0.214 NA
ATOM     18  C   UNL d   1     -49.073  11.091  22.406  0.00  0.00     0.122 C 
ENDBRANCH  15  17
ENDBRANCH   1  15
BRANCH   3  19
ATOM     19  C   UNL d   1     -45.416  12.860  22.214  0.00  0.00     0.019 A 
ATOM     20  C   UNL d   1     -44.986  12.213  22.501  0.00  0.00     0.002 A 
ATOM     21  C   UNL d   1     -44.194  12.146  22.330  0.00  0.00     0.000 A 
ATOM     22  C   UNL d   1     -43.820  12.722  21.871  0.00  0.00     0.000 A 
ATOM     23  C   UNL d   1     -44.256  13.377  21.582  0.00  0.00     0.000 A 
ATOM     24  C   UNL d   1     -43.016  12.652  21.699  0.00  0.00     0.000 C 
ATOM     25  C   UNL d   1     -45.056  13.426  21.766  0.00  0.00     0.002 A 
ENDBRANCH   3  19
TORSDOF 5
ENDMDL
MODEL 3
REMARK VINA RESULT:      -3.5      1.712      2.562
REMARK  5 active torsions:
REMARK  status: ('A' for Active; 'I' for Inactive)
REMARK    1  A    between atoms: C_5  and  N_1 
REMARK    2  A    between atoms: C_8  and  C_3 
REMARK    3  A    between atoms: C_7  and  C_4 
REMARK    4  A    between atoms: N_12  and  C_5 
REMARK    5  A    between atoms: N_11  and  C_10 
ROOT
ATOM      1  N   UNL d   1     -46.946  13.849  22.471  0.00  0.00    -0.203 N 
ATOM      2  N   UNL d   1     -46.155  13.885  22.283  0.00  0.00    -0.163 NA
ATOM      3  C   UNL d   1     -45.855  13.142  22.243  0.00  0.00     0.103 A 
ATOM      4  C   UNL d   1     -47.161  13.048  22.555  0.00  0.00     0.087 A 
ATOM      5  C   UNL d   1     -46.470  12.606  22.410  0.00  0.00     0.040 A 
ENDROOT
BRANCH   4   6
ATOM      6  C   UNL d   1     -47.899  12.730  22.742  0.00  0.00     0.018 A 
ATOM      7  C   UNL d   1     -48.118  12.634  23.506  0.00  0.00     0.003 A 
ATOM      8  C   UNL d   1     -48.860  12.315  23.696  0.00  0.00     0.018 A 
ATOM      9  C   UNL d   1     -49.370  12.097  23.085  0.00  0.00     0.064 A 
ATOM     10  C   UNL d   1     -49.154  12.192  22.305  0.00  0.00     0.018 A 
ATOM     11  C   UNL d   1     -48.410  12.512  22.132  0.00  0.00     0.003 A 
BRANCH   9  12
ATOM     12  N   UNL d   1     -50.093  11.786  23.263  0.00  0.00    -0.301 N 
ATOM     13  C   UNL d   1     -50.756  12.161  23.006  0.00  0.00     0.100 C 
ATOM     14  C   UNL d   1     -50.141  11.100  23.697  0.00  0.00     0.100 C 
ENDBRANCH   9  12
ENDBRANCH   4   6
BRANCH   1  15
ATOM     15  C   UNL d   1     -47.456  14.507  22.564  0.00  0.00     0.222 C 
ATOM     16  S   UNL d   1     -47.507  14.877  23.312  0.00  0.00    -0.037 SA
BRANCH  15  17
ATOM     17  N   UNL d   1     -47.906  14.788  21.915  0.00  0.00    -0.214 NA
ATOM     18  C   UNL d   1     -48.073  15.603  21.830  0.00  0.00     0.122 C 
ENDBRANCH  15  17
ENDBRANCH   1  15
BRANCH   3  19
ATOM     19  C   UNL d   1     -45.075  12.973  22.066  0.00  0.00     0.019 A 
ATOM     20  C   UNL d   1     -44.767  12.238  22.291  0.00  0.00     0.002 A 
ATOM     21  C   UNL d   1     -43.993  12.055  22.121  0.00  0.00     0.000 A 
ATOM     22  C   UNL d   1     -43.516  12.601  21.727  0.00  0.00     0.000 A 
ATOM     23  C   UNL d   1     -43.829  13.345  21.500  0.00  0.00     0.000 A 
ATOM     24  C   UNL d   1     -42.731  12.414  21.557  0.00  0.00     0.000 C 
ATOM     25  C   UNL d   1     -44.614  13.511  21.681  0.00  0.00     0.002 A 
ENDBRANCH   3  19
TORSDOF 5
ENDMDL
MODEL 4
REMARK VINA RESULT:      -2.8      5.809      8.910
REMARK  5 active torsions:
REMARK  status: ('A' for Active; 'I' for Inactive)
REMARK    1  A    between atoms: C_5  and  N_1 
REMARK    2  A    between atoms: C_8  and  C_3 
REMARK    3  A    between atoms: C_7  and  C_4 
REMARK    4  A    between atoms: N_12  and  C_5 
REMARK    5  A    between atoms: N_11  and  C_10 
ROOT
ATOM      1  N   UNL d   1     -40.289  14.684  20.641  0.00  0.00    -0.203 N 
ATOM      2  N   UNL d   1     -40.859  14.354  21.119  0.00  0.00    -0.163 NA
ATOM      3  C   UNL d   1     -41.451  14.060  20.664  0.00  0.00     0.103 A 
ATOM      4  C   UNL d   1     -40.526  14.596  19.846  0.00  0.00     0.087 A 
ATOM      5  C   UNL d   1     -41.259  14.202  19.866  0.00  0.00     0.040 A 
ENDROOT
BRANCH   4   6
ATOM      6  C   UNL d   1     -40.135  14.840  19.162  0.00  0.00     0.018 A 
ATOM      7  C   UNL d   1     -40.196  15.596  18.908  0.00  0.00     0.003 A 
ATOM      8  C   UNL d   1     -39.803  15.844  18.220  0.00  0.00     0.018 A 
ATOM      9  C   UNL d   1     -39.347  15.298  17.802  0.00  0.00     0.064 A 
ATOM     10  C   UNL d   1     -39.280  14.526  18.055  0.00  0.00     0.018 A 
ATOM     11  C   UNL d   1     -39.679  14.296  18.743  0.00  0.00     0.003 A 
BRANCH   9  12
ATOM     12  N   UNL d   1     -38.962  15.532  17.132  0.00  0.00    -0.301 N 
ATOM     13  C   UNL d   1     -38.177  15.378  17.056  0.00  0.00     0.100 C 
ATOM     14  C   UNL d   1     -39.372  15.918  16.545  0.00  0.00     0.100 C 
ENDBRANCH   9  12
ENDBRANCH   4   6
BRANCH   1  15
ATOM     15  C   UNL d   1     -39.583  15.050  20.905  0.00  0.00     0.222 C 
ATOM     16  S   UNL d   1     -39.571  15.878  21.012  0.00  0.00    -0.037 SA
BRANCH  15  17
ATOM     17  N   UNL d   1     -38.900  14.587  21.059  0.00  0.00    -0.214 NA
ATOM     18  C   UNL d   1     -38.304  14.863  21.578  0.00  0.00     0.122 C 
ENDBRANCH  15  17
ENDBRANCH   1  15
BRANCH   3  19
ATOM     19  C   UNL d   1     -42.115  13.689  20.963  0.00  0.00     0.019 A 
ATOM     20  C   UNL d   1     -42.074  12.881  21.140  0.00  0.00     0.002 A 
ATOM     21  C   UNL d   1     -42.727  12.499  21.438  0.00  0.00     0.000 A 
ATOM     22  C   UNL d   1     -43.429  12.915  21.562  0.00  0.00     0.000 A 
ATOM     23  C   UNL d   1     -43.470  13.733  21.382  0.00  0.00     0.000 A 
ATOM     24  C   UNL d   1     -44.090  12.525  21.864  0.00  0.00     0.000 C 
ATOM     25  C   UNL d   1     -42.798  14.101  21.082  0.00  0.00     0.002 A 
ENDBRANCH   3  19
TORSDOF 5
ENDMDL
