MODEL 1
REMARK VINA RESULT:      43.3      0.000      0.000
REMARK  3 active torsions:
REMARK  status: ('A' for Active; 'I' for Inactive)
REMARK    1  A    between atoms: C_6  and  C_1 
REMARK    2  A    between atoms: O_18  and  C_11 
REMARK    3  A    between atoms: O_19  and  C_13 
ROOT
ATOM      1  C   UNL d   1     -54.752-101.296 -41.989  0.00  0.00     0.064 A 
ATOM      2  C   UNL d   1     -54.758-102.039 -41.617  0.00  0.00     0.199 A 
ATOM      3  C   UNL d   1     -54.750-102.090 -40.796  0.00  0.00     0.062 A 
ATOM      4  C   UNL d   1     -54.738-100.609 -41.532  0.00  0.00     0.126 A 
ATOM      5  C   UNL d   1     -54.736-101.403 -40.339  0.00  0.00     0.106 A 
ATOM      6  O   UNL d   1     -54.730-100.665 -40.703  0.00  0.00    -0.305 OA
ATOM      7  C   UNL d   1     -54.755-102.828 -40.431  0.00  0.00     0.009 A 
ATOM      8  C   UNL d   1     -54.728-101.455 -39.517  0.00  0.00     0.067 A 
ATOM      9  O   UNL d   1     -54.772-102.725 -42.074  0.00  0.00    -0.286 OA
ATOM     10  C   UNL d   1     -54.734-102.193 -39.153  0.00  0.00     0.198 A 
ATOM     11  C   UNL d   1     -54.747-102.880 -39.610  0.00  0.00     0.042 A 
ATOM     12  O   UNL d   1     -54.725-102.251 -38.320  0.00  0.00    -0.286 OA
ENDROOT
BRANCH   1  13
ATOM     13  C   UNL d   1     -54.760-101.245 -42.810  0.00  0.00     0.007 A 
ATOM     14  C   UNL d   1     -54.763-100.504 -43.178  0.00  0.00     0.026 A 
ATOM     15  C   UNL d   1     -54.771-100.452 -44.000  0.00  0.00     0.116 A 
ATOM     16  C   UNL d   1     -54.777-101.139 -44.457  0.00  0.00     0.116 A 
ATOM     17  C   UNL d   1     -54.774-101.880 -44.089  0.00  0.00     0.026 A 
ATOM     18  C   UNL d   1     -54.766-101.931 -43.267  0.00  0.00     0.002 A 
BRANCH  15  19
ATOM     19  O   UNL d   1     -54.774 -99.715 -44.365  0.00  0.00    -0.326 OA
ATOM     20  C   UNL d   1     -55.028 -99.049 -43.949  0.00  0.00     0.181 C 
ENDBRANCH  15  19
BRANCH  16  21
ATOM     21  O   UNL d   1     -54.785-101.095 -45.283  0.00  0.00    -0.326 OA
ATOM     22  C   UNL d   1     -55.067-101.738 -45.726  0.00  0.00     0.181 C 
ENDBRANCH  16  21
ENDBRANCH   1  13
TORSDOF 3
ENDMDL
