MODEL 1
REMARK VINA RESULT:      -0.6      0.000      0.000
REMARK  4 active torsions:
REMARK  status: ('A' for Active; 'I' for Inactive)
REMARK    1  A    between atoms: C_7  and  C_1 
REMARK    2  A    between atoms: C_8  and  C_4 
REMARK    3  A    between atoms: O_9  and  C_7 
REMARK    4  A    between atoms: C_16  and  O_9 
ROOT
ATOM      1  C   UNL d   1      30.748  17.386 -24.388  0.00  0.00     0.098 A 
ATOM      2  C   UNL d   1      29.980  17.685 -24.358  0.00  0.00     0.075 A 
ATOM      3  C   UNL d   1      29.461  16.353 -24.405  0.00  0.00     0.354 A 
ATOM      4  C   UNL d   1      30.852  16.579 -24.425  0.00  0.00     0.093 A 
ATOM      5  N   UNL d   1      29.315  17.176 -24.366  0.00  0.00    -0.256 N 
ATOM      6  N   UNL d   1      30.230  16.054 -24.435  0.00  0.00    -0.192 NA
ATOM      7  O   UNL d   1      28.794  15.840 -24.413  0.00  0.00    -0.244 OA
ATOM      8  C   UNL d   1      29.834  18.508 -24.319  0.00  0.00     0.019 C 
ATOM      9  C   UNL d   1      28.547  17.474 -24.337  0.00  0.00     0.104 C 
ENDROOT
BRANCH   1  10
ATOM     10  C   UNL d   1      31.371  17.911 -24.378  0.00  0.00     0.303 C 
ATOM     11  O   UNL d   1      31.626  18.235 -25.093  0.00  0.00    -0.259 OA
BRANCH  10  12
ATOM     12  O   UNL d   1      31.753  18.130 -23.693  0.00  0.00    -0.273 OA
BRANCH  12  13
ATOM     13  C   UNL d   1      32.195  18.811 -23.633  0.00  0.00     0.103 A 
ATOM     14  C   UNL d   1      32.537  19.122 -24.316  0.00  0.00     0.025 A 
ATOM     15  C   UNL d   1      33.014  19.812 -24.406  0.00  0.00     0.002 A 
ATOM     16  C   UNL d   1      33.241  20.324 -23.816  0.00  0.00     0.000 A 
ATOM     17  C   UNL d   1      33.088  20.327 -23.023  0.00  0.00     0.000 A 
ATOM     18  C   UNL d   1      32.627  19.764 -22.586  0.00  0.00     0.002 A 
ATOM     19  C   UNL d   1      32.249  19.113 -22.871  0.00  0.00     0.025 A 
ENDBRANCH  12  13
ENDBRANCH  10  12
ENDBRANCH   1  10
BRANCH   4  20
ATOM     20  C   UNL d   1      31.621  16.281 -24.454  0.00  0.00     0.023 A 
ATOM     21  C   UNL d   1      31.907  15.757 -23.868  0.00  0.00     0.032 A 
ATOM     22  I   UNL d   1      31.382  15.547 -23.250  0.00  0.00    -0.043 I 
ATOM     23  C   UNL d   1      32.675  15.458 -23.897  0.00  0.00     0.006 A 
ATOM     24  C   UNL d   1      33.157  15.681 -24.509  0.00  0.00     0.000 A 
ATOM     25  C   UNL d   1      32.901  16.194 -25.097  0.00  0.00     0.000 A 
ATOM     26  C   UNL d   1      32.132  16.492 -25.067  0.00  0.00     0.002 A 
ENDBRANCH   4  20
TORSDOF 4
ENDMDL
MODEL 2
REMARK VINA RESULT:       0.5      1.565      3.470
REMARK  4 active torsions:
REMARK  status: ('A' for Active; 'I' for Inactive)
REMARK    1  A    between atoms: C_7  and  C_1 
REMARK    2  A    between atoms: C_8  and  C_4 
REMARK    3  A    between atoms: O_9  and  C_7 
REMARK    4  A    between atoms: C_16  and  O_9 
ROOT
ATOM      1  C   UNL d   1      31.622  17.570 -24.440  0.00  0.00     0.098 A 
ATOM      2  C   UNL d   1      31.335  18.273 -24.761  0.00  0.00     0.075 A 
ATOM      3  C   UNL d   1      32.572  18.920 -24.452  0.00  0.00     0.354 A 
ATOM      4  C   UNL d   1      32.377  17.561 -24.134  0.00  0.00     0.093 A 
ATOM      5  N   UNL d   1      31.802  18.968 -24.776  0.00  0.00    -0.256 N 
ATOM      6  N   UNL d   1      32.859  18.217 -24.131  0.00  0.00    -0.192 NA
ATOM      7  O   UNL d   1      33.043  19.617 -24.465  0.00  0.00    -0.244 OA
ATOM      8  C   UNL d   1      30.565  18.321 -25.086  0.00  0.00     0.019 C 
ATOM      9  C   UNL d   1      31.514  19.671 -25.097  0.00  0.00     0.104 C 
ENDROOT
BRANCH   1  10
ATOM     10  C   UNL d   1      31.140  16.914 -24.443  0.00  0.00     0.303 C 
ATOM     11  O   UNL d   1      31.170  16.404 -25.092  0.00  0.00    -0.259 OA
BRANCH  10  12
ATOM     12  O   UNL d   1      30.629  16.739 -23.834  0.00  0.00    -0.273 OA
BRANCH  12  13
ATOM     13  C   UNL d   1      29.877  16.451 -23.957  0.00  0.00     0.103 A 
ATOM     14  C   UNL d   1      29.718  16.051 -24.660  0.00  0.00     0.025 A 
ATOM     15  C   UNL d   1      28.996  15.702 -24.922  0.00  0.00     0.002 A 
ATOM     16  C   UNL d   1      28.289  15.691 -24.520  0.00  0.00     0.000 A 
ATOM     17  C   UNL d   1      28.081  15.990 -23.798  0.00  0.00     0.000 A 
ATOM     18  C   UNL d   1      28.576  16.412 -23.253  0.00  0.00     0.002 A 
ATOM     19  C   UNL d   1      29.353  16.601 -23.343  0.00  0.00     0.025 A 
ENDBRANCH  12  13
ENDBRANCH  10  12
ENDBRANCH   1  10
BRANCH   4  20
ATOM     20  C   UNL d   1      32.664  16.857 -23.813  0.00  0.00     0.023 A 
ATOM     21  C   UNL d   1      32.869  16.800 -23.003  0.00  0.00     0.032 A 
ATOM     22  I   UNL d   1      32.770  17.485 -22.532  0.00  0.00    -0.043 I 
ATOM     23  C   UNL d   1      33.156  16.097 -22.682  0.00  0.00     0.006 A 
ATOM     24  C   UNL d   1      33.240  15.453 -23.166  0.00  0.00     0.000 A 
ATOM     25  C   UNL d   1      33.047  15.483 -23.963  0.00  0.00     0.000 A 
ATOM     26  C   UNL d   1      32.759  16.186 -24.284  0.00  0.00     0.002 A 
ENDBRANCH   4  20
TORSDOF 4
ENDMDL
