MODEL 1
REMARK VINA RESULT:      55.6      0.000      0.000
REMARK  7 active torsions:
REMARK  status: ('A' for Active; 'I' for Inactive)
REMARK    1  A    between atoms: S_3  and  N_1 
REMARK    2  A    between atoms: C_18  and  S_3 
REMARK    3  A    between atoms: C_8  and  C_4 
REMARK    4  A    between atoms: S_5  and  N_9 
REMARK    5  A    between atoms: C_12  and  C_6 
REMARK    6  A    between atoms: N_9  and  C_19 
REMARK    7  A    between atoms: C_26  and  C_18 
ROOT
ATOM      1  N   UNL d   1      13.765  13.037  -2.647  0.00  0.00    -0.152 N 
ATOM      2  N   UNL d   1      13.824  13.682  -3.162  0.00  0.00    -0.155 NA
ATOM      3  C   UNL d   1      14.174  13.232  -1.954  0.00  0.00     0.098 A 
ATOM      4  C   UNL d   1      14.265  14.268  -2.791  0.00  0.00     0.104 A 
ATOM      5  C   UNL d   1      14.479  13.988  -2.046  0.00  0.00     0.041 A 
ENDROOT
BRANCH   4   6
ATOM      6  C   UNL d   1      14.458  15.002  -3.105  0.00  0.00     0.019 A 
ATOM      7  C   UNL d   1      14.437  15.114  -3.915  0.00  0.00     0.003 A 
ATOM      8  C   UNL d   1      14.631  15.852  -4.232  0.00  0.00     0.020 A 
ATOM      9  C   UNL d   1      14.846  16.475  -3.732  0.00  0.00     0.093 A 
ATOM     10  C   UNL d   1      14.865  16.354  -2.917  0.00  0.00     0.020 A 
ATOM     11  C   UNL d   1      14.673  15.625  -2.601  0.00  0.00     0.003 A 
BRANCH   9  12
ATOM     12  N   UNL d   1      15.038  17.208  -4.056  0.00  0.00    -0.162 NA
BRANCH  12  13
ATOM     13  S   UNL d   1      15.210  17.283  -4.851  0.00  0.00     0.266 S 
ATOM     14  O   UNL d   1      15.974  17.128  -4.575  0.00  0.00    -0.203 OA
ATOM     15  O   UNL d   1      15.688  17.295  -5.525  0.00  0.00    -0.203 OA
ATOM     16  C   UNL d   1      14.461  17.438  -5.150  0.00  0.00     0.165 C 
ENDBRANCH  12  13
ENDBRANCH   9  12
ENDBRANCH   4   6
BRANCH   1  17
ATOM     17  S   UNL d   1      13.368  12.332  -2.804  0.00  0.00     0.287 S 
ATOM     18  O   UNL d   1      13.158  12.787  -2.149  0.00  0.00    -0.198 OA
ATOM     19  O   UNL d   1      12.790  11.780  -2.610  0.00  0.00    -0.198 OA
BRANCH  17  20
ATOM     20  C   UNL d   1      13.623  11.931  -3.467  0.00  0.00     0.117 C 
BRANCH  20  21
ATOM     21  C   UNL d   1      13.099  11.793  -4.090  0.00  0.00     0.014 C 
ATOM     22  C   UNL d   1      13.359  11.875  -4.871  0.00  0.00     0.001 C 
ENDBRANCH  20  21
ENDBRANCH  17  20
ENDBRANCH   1  17
BRANCH   3  23
ATOM     23  C   UNL d   1      14.254  12.750  -1.299  0.00  0.00     0.046 A 
ATOM     24  C   UNL d   1      14.998  12.400  -1.153  0.00  0.00     0.142 A 
ATOM     25  F   UNL d   1      15.628  12.545  -1.665  0.00  0.00    -0.204 F 
ATOM     26  C   UNL d   1      15.091  11.908  -0.491  0.00  0.00     0.030 A 
ATOM     27  C   UNL d   1      14.485  11.779  -0.014  0.00  0.00     0.002 A 
ATOM     28  C   UNL d   1      13.740  12.129  -0.160  0.00  0.00     0.000 A 
ATOM     29  C   UNL d   1      13.587  12.621  -0.794  0.00  0.00     0.004 A 
ENDBRANCH   3  23
TORSDOF 7
ENDMDL
MODEL 2
REMARK VINA RESULT:      56.5      1.828      3.093
REMARK  7 active torsions:
REMARK  status: ('A' for Active; 'I' for Inactive)
REMARK    1  A    between atoms: S_3  and  N_1 
REMARK    2  A    between atoms: C_18  and  S_3 
REMARK    3  A    between atoms: C_8  and  C_4 
REMARK    4  A    between atoms: S_5  and  N_9 
REMARK    5  A    between atoms: C_12  and  C_6 
REMARK    6  A    between atoms: N_9  and  C_19 
REMARK    7  A    between atoms: C_26  and  C_18 
ROOT
ATOM      1  N   UNL d   1      13.753  13.112  -2.551  0.00  0.00    -0.152 N 
ATOM      2  N   UNL d   1      14.034  13.727  -2.074  0.00  0.00    -0.155 NA
ATOM      3  C   UNL d   1      13.757  13.381  -3.334  0.00  0.00     0.098 A 
ATOM      4  C   UNL d   1      14.210  14.368  -2.557  0.00  0.00     0.104 A 
ATOM      5  C   UNL d   1      14.038  14.152  -3.334  0.00  0.00     0.041 A 
ENDROOT
BRANCH   4   6
ATOM      6  C   UNL d   1      14.503  15.094  -2.311  0.00  0.00     0.019 A 
ATOM      7  C   UNL d   1      14.875  15.156  -1.585  0.00  0.00     0.003 A 
ATOM      8  C   UNL d   1      15.171  15.887  -1.336  0.00  0.00     0.020 A 
ATOM      9  C   UNL d   1      15.092  16.553  -1.821  0.00  0.00     0.093 A 
ATOM     10  C   UNL d   1      14.716  16.482  -2.551  0.00  0.00     0.020 A 
ATOM     11  C   UNL d   1      14.423  15.761  -2.798  0.00  0.00     0.003 A 
BRANCH   9  12
ATOM     12  N   UNL d   1      15.389  17.277  -1.566  0.00  0.00    -0.162 NA
BRANCH  12  13
ATOM     13  S   UNL d   1      15.683  17.368  -0.809  0.00  0.00     0.266 S 
ATOM     14  O   UNL d   1      16.344  17.009  -1.154  0.00  0.00    -0.203 OA
ATOM     15  O   UNL d   1      16.239  17.313  -0.200  0.00  0.00    -0.203 OA
ATOM     16  C   UNL d   1      15.040  17.725  -0.443  0.00  0.00     0.165 C 
ENDBRANCH  12  13
ENDBRANCH   9  12
ENDBRANCH   4   6
BRANCH   1  17
ATOM     17  S   UNL d   1      13.515  12.369  -2.286  0.00  0.00     0.287 S 
ATOM     18  O   UNL d   1      12.997  12.835  -2.727  0.00  0.00    -0.198 OA
ATOM     19  O   UNL d   1      12.944  11.779  -2.233  0.00  0.00    -0.198 OA
BRANCH  17  20
ATOM     20  C   UNL d   1      14.073  11.959  -1.855  0.00  0.00     0.117 C 
BRANCH  20  21
ATOM     21  C   UNL d   1      13.941  11.806  -1.053  0.00  0.00     0.014 C 
ATOM     22  C   UNL d   1      14.577  11.813  -0.525  0.00  0.00     0.001 C 
ENDBRANCH  20  21
ENDBRANCH  17  20
ENDBRANCH   1  17
BRANCH   3  23
ATOM     23  C   UNL d   1      13.521  12.948  -3.985  0.00  0.00     0.046 A 
ATOM     24  C   UNL d   1      13.017  13.313  -4.543  0.00  0.00     0.142 A 
ATOM     25  F   UNL d   1      12.770  14.092  -4.426  0.00  0.00    -0.204 F 
ATOM     26  C   UNL d   1      12.771  12.883  -5.208  0.00  0.00     0.030 A 
ATOM     27  C   UNL d   1      13.012  12.145  -5.306  0.00  0.00     0.002 A 
ATOM     28  C   UNL d   1      13.517  11.780  -4.749  0.00  0.00     0.000 A 
ATOM     29  C   UNL d   1      13.792  12.151  -4.075  0.00  0.00     0.004 A 
ENDBRANCH   3  23
TORSDOF 7
ENDMDL
