MODEL 1
REMARK VINA RESULT:      -6.6      0.000      0.000
REMARK  4 active torsions:
REMARK  status: ('A' for Active; 'I' for Inactive)
REMARK    1  A    between atoms: N_7  and  C_1 
REMARK    2  A    between atoms: N_8  and  C_4 
REMARK    3  A    between atoms: N_11  and  C_5 
REMARK    4  A    between atoms: C_13  and  N_8 
ROOT
ATOM      1  C   UNL d   1     -49.636  13.432  22.282  0.00  0.00     0.201 A 
ATOM      2  N   UNL d   1     -48.633  14.122  23.065  0.00  0.00    -0.038 NA
ATOM      3  N   UNL d   1     -48.508  12.728  22.774  0.00  0.00    -0.036 NA
ATOM      4  C   UNL d   1     -48.214  13.402  23.127  0.00  0.00     0.753 A 
ATOM      5  C   UNL d   1     -49.341  14.123  22.641  0.00  0.00     0.206 A 
ATOM      6  C   UNL d   1     -49.221  12.739  22.349  0.00  0.00     0.227 A 
ATOM      7  N   UNL d   1     -49.508  12.046  21.995  0.00  0.00    -0.125 N 
ENDROOT
BRANCH   4   8
ATOM      8  N   UNL d   1     -47.506  13.401  23.552  0.00  0.00    -0.059 NA
BRANCH   8   9
ATOM      9  C   UNL d   1     -46.794  13.295  23.142  0.00  0.00     0.100 A 
ATOM     10  C   UNL d   1     -46.414  12.557  23.132  0.00  0.00     0.020 A 
ATOM     11  C   UNL d   1     -45.715  12.443  22.732  0.00  0.00     0.008 A 
ATOM     12  C   UNL d   1     -45.363  13.067  22.322  0.00  0.00     0.035 A 
ATOM     13  C   UNL d   1     -45.727  13.806  22.321  0.00  0.00     0.008 A 
ATOM     14 BR   UNL d   1     -44.647  12.960  21.909  0.00  0.00    -0.049 Br
ATOM     15  C   UNL d   1     -46.438  13.912  22.731  0.00  0.00     0.020 A 
ENDBRANCH   8   9
ENDBRANCH   4   8
BRANCH   5  16
ATOM     16  N   UNL d   1     -49.779  14.848  22.568  0.00  0.00    -0.222 NA
ATOM     17  C   UNL d   1     -49.591  15.489  23.067  0.00  0.00     0.121 C 
ENDBRANCH   5  16
BRANCH   1  18
ATOM     18  N   UNL d   1     -50.367  13.464  21.852  0.00  0.00    -0.107 N 
ATOM     19  O   UNL d   1     -51.058  13.246  22.235  0.00  0.00    -0.531 OA
ATOM     20  O   UNL d   1     -50.372  13.705  21.083  0.00  0.00    -0.531 OA
ENDBRANCH   1  18
TORSDOF 4
ENDMDL
MODEL 2
REMARK VINA RESULT:      -5.8      2.499      3.842
REMARK  4 active torsions:
REMARK  status: ('A' for Active; 'I' for Inactive)
REMARK    1  A    between atoms: N_7  and  C_1 
REMARK    2  A    between atoms: N_8  and  C_4 
REMARK    3  A    between atoms: N_11  and  C_5 
REMARK    4  A    between atoms: C_13  and  N_8 
ROOT
ATOM      1  C   UNL d   1     -46.627  12.384  23.191  0.00  0.00     0.201 A 
ATOM      2  N   UNL d   1     -47.417  13.591  23.312  0.00  0.00    -0.038 NA
ATOM      3  N   UNL d   1     -48.020  12.301  23.439  0.00  0.00    -0.036 NA
ATOM      4  C   UNL d   1     -48.091  13.114  23.439  0.00  0.00     0.753 A 
ATOM      5  C   UNL d   1     -46.692  13.214  23.190  0.00  0.00     0.206 A 
ATOM      6  C   UNL d   1     -47.289  11.931  23.315  0.00  0.00     0.227 A 
ATOM      7  N   UNL d   1     -47.231  11.103  23.318  0.00  0.00    -0.125 N 
ENDROOT
BRANCH   4   8
ATOM      8  N   UNL d   1     -48.815  13.491  23.561  0.00  0.00    -0.059 NA
BRANCH   8   9
ATOM      9  C   UNL d   1     -49.373  13.493  22.949  0.00  0.00     0.100 A 
ATOM     10  C   UNL d   1     -49.984  12.931  22.929  0.00  0.00     0.020 A 
ATOM     11  C   UNL d   1     -50.537  12.924  22.332  0.00  0.00     0.008 A 
ATOM     12  C   UNL d   1     -50.502  13.482  21.726  0.00  0.00     0.035 A 
ATOM     13  C   UNL d   1     -49.902  14.047  21.730  0.00  0.00     0.008 A 
ATOM     14 BR   UNL d   1     -51.064  13.484  21.109  0.00  0.00    -0.049 Br
ATOM     15  C   UNL d   1     -49.345  14.046  22.341  0.00  0.00     0.020 A 
ENDBRANCH   8   9
ENDBRANCH   4   8
BRANCH   5  16
ATOM     16  N   UNL d   1     -45.996  13.684  23.059  0.00  0.00    -0.222 NA
ATOM     17  C   UNL d   1     -46.076  14.439  22.714  0.00  0.00     0.121 C 
ENDBRANCH   5  16
BRANCH   1  18
ATOM     18  N   UNL d   1     -45.868  12.024  23.063  0.00  0.00    -0.107 N 
ATOM     19  O   UNL d   1     -45.640  11.854  22.295  0.00  0.00    -0.531 OA
ATOM     20  O   UNL d   1     -45.391  11.856  23.690  0.00  0.00    -0.531 OA
ENDBRANCH   1  18
TORSDOF 4
ENDMDL
MODEL 3
REMARK VINA RESULT:      -5.6      8.742      9.659
REMARK  4 active torsions:
REMARK  status: ('A' for Active; 'I' for Inactive)
REMARK    1  A    between atoms: N_7  and  C_1 
REMARK    2  A    between atoms: N_8  and  C_4 
REMARK    3  A    between atoms: N_11  and  C_5 
REMARK    4  A    between atoms: C_13  and  N_8 
ROOT
ATOM      1  C   UNL d   1     -39.458  14.508  17.309  0.00  0.00     0.201 A 
ATOM      2  N   UNL d   1     -40.622  14.835  18.105  0.00  0.00    -0.038 NA
ATOM      3  N   UNL d   1     -39.584  14.002  18.627  0.00  0.00    -0.036 NA
ATOM      4  C   UNL d   1     -40.302  14.376  18.726  0.00  0.00     0.753 A 
ATOM      5  C   UNL d   1     -40.190  14.893  17.404  0.00  0.00     0.206 A 
ATOM      6  C   UNL d   1     -39.157  14.066  17.919  0.00  0.00     0.227 A 
ATOM      7  N   UNL d   1     -38.428  13.680  17.833  0.00  0.00    -0.125 N 
ENDROOT
BRANCH   4   8
ATOM      8  N   UNL d   1     -40.734  14.319  19.428  0.00  0.00    -0.059 NA
BRANCH   8   9
ATOM      9  C   UNL d   1     -40.462  14.721  20.098  0.00  0.00     0.100 A 
ATOM     10  C   UNL d   1     -40.007  14.332  20.673  0.00  0.00     0.020 A 
ATOM     11  C   UNL d   1     -39.735  14.718  21.336  0.00  0.00     0.008 A 
ATOM     12  C   UNL d   1     -39.908  15.517  21.452  0.00  0.00     0.035 A 
ATOM     13  C   UNL d   1     -40.359  15.919  20.891  0.00  0.00     0.008 A 
ATOM     14 BR   UNL d   1     -39.634  15.922  22.127  0.00  0.00    -0.049 Br
ATOM     15  C   UNL d   1     -40.630  15.517  20.221  0.00  0.00     0.020 A 
ENDBRANCH   8   9
ENDBRANCH   4   8
BRANCH   5  16
ATOM     16  N   UNL d   1     -40.501  15.355  16.762  0.00  0.00    -0.222 NA
ATOM     17  C   UNL d   1     -41.275  15.661  16.819  0.00  0.00     0.121 C 
ENDBRANCH   5  16
BRANCH   1  18
ATOM     18  N   UNL d   1     -39.036  14.586  16.576  0.00  0.00    -0.107 N 
ATOM     19  O   UNL d   1     -38.563  15.245  16.463  0.00  0.00    -0.531 OA
ATOM     20  O   UNL d   1     -39.106  14.017  16.009  0.00  0.00    -0.531 OA
ENDBRANCH   1  18
TORSDOF 4
ENDMDL
MODEL 4
REMARK VINA RESULT:      -5.3      9.028      9.745
REMARK  4 active torsions:
REMARK  status: ('A' for Active; 'I' for Inactive)
REMARK    1  A    between atoms: N_7  and  C_1 
REMARK    2  A    between atoms: N_8  and  C_4 
REMARK    3  A    between atoms: N_11  and  C_5 
REMARK    4  A    between atoms: C_13  and  N_8 
ROOT
ATOM      1  C   UNL d   1     -39.931  14.399  18.470  0.00  0.00     0.201 A 
ATOM      2  N   UNL d   1     -38.680  13.882  18.984  0.00  0.00    -0.038 NA
ATOM      3  N   UNL d   1     -39.326  14.997  19.603  0.00  0.00    -0.036 NA
ATOM      4  C   UNL d   1     -38.704  14.470  19.577  0.00  0.00     0.753 A 
ATOM      5  C   UNL d   1     -39.299  13.858  18.438  0.00  0.00     0.206 A 
ATOM      6  C   UNL d   1     -39.943  14.965  19.051  0.00  0.00     0.227 A 
ATOM      7  N   UNL d   1     -40.570  15.507  19.089  0.00  0.00    -0.125 N 
ENDROOT
BRANCH   4   8
ATOM      8  N   UNL d   1     -38.085  14.495  20.123  0.00  0.00    -0.059 NA
BRANCH   8   9
ATOM      9  C   UNL d   1     -38.215  14.206  20.888  0.00  0.00     0.100 A 
ATOM     10  C   UNL d   1     -38.049  13.416  21.079  0.00  0.00     0.020 A 
ATOM     11  C   UNL d   1     -38.174  13.122  21.828  0.00  0.00     0.008 A 
ATOM     12  C   UNL d   1     -38.472  13.611  22.422  0.00  0.00     0.035 A 
ATOM     13  C   UNL d   1     -38.643  14.399  22.250  0.00  0.00     0.008 A 
ATOM     14 BR   UNL d   1     -38.604  13.320  23.192  0.00  0.00    -0.049 Br
ATOM     15  C   UNL d   1     -38.512  14.687  21.485  0.00  0.00     0.020 A 
ENDBRANCH   8   9
ENDBRANCH   4   8
BRANCH   5  16
ATOM     16  N   UNL d   1     -39.290  13.266  17.828  0.00  0.00    -0.222 NA
ATOM     17  C   UNL d   1     -38.587  12.842  17.684  0.00  0.00     0.121 C 
ENDBRANCH   5  16
BRANCH   1  18
ATOM     18  N   UNL d   1     -40.554  14.349  17.894  0.00  0.00    -0.107 N 
ATOM     19  O   UNL d   1     -41.184  13.847  18.041  0.00  0.00    -0.531 OA
ATOM     20  O   UNL d   1     -40.516  14.791  17.221  0.00  0.00    -0.531 OA
ENDBRANCH   1  18
TORSDOF 4
ENDMDL
MODEL 5
REMARK VINA RESULT:      -5.1      8.177      9.545
REMARK  4 active torsions:
REMARK  status: ('A' for Active; 'I' for Inactive)
REMARK    1  A    between atoms: N_7  and  C_1 
REMARK    2  A    between atoms: N_8  and  C_4 
REMARK    3  A    between atoms: N_11  and  C_5 
REMARK    4  A    between atoms: C_13  and  N_8 
ROOT
ATOM      1  C   UNL d   1     -39.611  14.891  20.870  0.00  0.00     0.201 A 
ATOM      2  N   UNL d   1     -40.601  14.883  19.814  0.00  0.00    -0.038 NA
ATOM      3  N   UNL d   1     -39.431  14.064  19.733  0.00  0.00    -0.036 NA
ATOM      4  C   UNL d   1     -40.133  14.322  19.407  0.00  0.00     0.753 A 
ATOM      5  C   UNL d   1     -40.328  15.158  20.543  0.00  0.00     0.206 A 
ATOM      6  C   UNL d   1     -39.165  14.347  20.466  0.00  0.00     0.227 A 
ATOM      7  N   UNL d   1     -38.449  14.076  20.785  0.00  0.00    -0.125 N 
ENDROOT
BRANCH   4   8
ATOM      8  N   UNL d   1     -40.406  14.046  18.678  0.00  0.00    -0.059 NA
BRANCH   8   9
ATOM      9  C   UNL d   1     -39.965  14.214  17.997  0.00  0.00     0.100 A 
ATOM     10  C   UNL d   1     -39.418  13.666  17.698  0.00  0.00     0.020 A 
ATOM     11  C   UNL d   1     -38.980  13.821  17.030  0.00  0.00     0.008 A 
ATOM     12  C   UNL d   1     -39.072  14.537  16.630  0.00  0.00     0.035 A 
ATOM     13  C   UNL d   1     -39.611  15.093  16.912  0.00  0.00     0.008 A 
ATOM     14 BR   UNL d   1     -38.628  14.706  15.944  0.00  0.00    -0.049 Br
ATOM     15  C   UNL d   1     -40.051  14.925  17.593  0.00  0.00     0.020 A 
ENDBRANCH   8   9
ENDBRANCH   4   8
BRANCH   5  16
ATOM     16  N   UNL d   1     -40.791  15.729  20.970  0.00  0.00    -0.222 NA
ATOM     17  C   UNL d   1     -41.560  15.910  20.702  0.00  0.00     0.121 C 
ENDBRANCH   5  16
BRANCH   1  18
ATOM     18  N   UNL d   1     -39.356  15.193  21.622  0.00  0.00    -0.107 N 
ATOM     19  O   UNL d   1     -38.982  15.922  21.646  0.00  0.00    -0.531 OA
ATOM     20  O   UNL d   1     -39.484  14.764  22.292  0.00  0.00    -0.531 OA
ENDBRANCH   1  18
TORSDOF 4
ENDMDL
