MODEL 1
REMARK VINA RESULT:      -7.1      0.000      0.000
REMARK  4 active torsions:
REMARK  status: ('A' for Active; 'I' for Inactive)
REMARK    1  A    between atoms: S_18  and  C_6 
REMARK    2  A    between atoms: C_8  and  N_12 
REMARK       I    between atoms: N_12  and  C_16 
REMARK    3  A    between atoms: C_16  and  C_21 
REMARK    4  A    between atoms: C_21  and  S_18 
ROOT
ATOM      1  N   UNL d   1     -42.443-122.996 -49.097  0.00  0.00    -0.242 N 
ATOM      2  C   UNL d   1     -41.657-123.220 -49.184  0.00  0.00     0.153 A 
ATOM      3  C   UNL d   1     -42.878-122.760 -49.757  0.00  0.00     0.357 A 
ATOM      4  N   UNL d   1     -41.303-123.209 -49.929  0.00  0.00    -0.203 NA
ATOM      5  N   UNL d   1     -42.524-122.750 -50.502  0.00  0.00    -0.167 NA
ATOM      6  C   UNL d   1     -41.735-122.975 -50.587  0.00  0.00     0.200 A 
ATOM      7  C   UNL d   1     -42.797-123.007 -48.352  0.00  0.00     0.086 A 
ATOM      8  C   UNL d   1     -41.222-123.456 -48.523  0.00  0.00     0.038 A 
ATOM      9  C   UNL d   1     -42.365-123.242 -47.694  0.00  0.00     0.019 A 
ATOM     10  C   UNL d   1     -41.576-123.467 -47.779  0.00  0.00     0.004 A 
ATOM     11  O   UNL d   1     -43.679-122.531 -49.677  0.00  0.00    -0.244 OA
ATOM     12  C   UNL d   1     -41.137-123.704 -47.117  0.00  0.00     0.000 C 
ENDROOT
BRANCH   6  13
ATOM     13  S   UNL d   1     -41.381-122.964 -51.332  0.00  0.00    -0.043 SA
BRANCH  13  14
ATOM     14  C   UNL d   1     -41.528-122.337 -51.849  0.00  0.00     0.101 C 
BRANCH  14  15
ATOM     15  C   UNL d   1     -41.478-122.460 -52.658  0.00  0.00     0.287 C 
ATOM     16  N   UNL d   1     -41.785-121.895 -53.176  0.00  0.00    -0.186 NA
ATOM     17  O   UNL d   1     -41.125-123.139 -52.956  0.00  0.00    -0.265 OA
BRANCH  16  18
ATOM     18  C   UNL d   1     -41.737-122.014 -53.991  0.00  0.00     0.194 A 
ATOM     19  N   UNL d   1     -41.123-122.266 -54.483  0.00  0.00    -0.107 NA
ATOM     20  O   UNL d   1     -41.399-122.279 -55.254  0.00  0.00    -0.210 OA
ATOM     21  C   UNL d   1     -42.178-122.038 -55.251  0.00  0.00     0.128 A 
ATOM     22  C   UNL d   1     -42.391-121.872 -54.467  0.00  0.00     0.068 A 
ATOM     23  C   UNL d   1     -42.662-121.975 -55.928  0.00  0.00     0.029 C 
ENDBRANCH  16  18
ENDBRANCH  14  15
ENDBRANCH  13  14
ENDBRANCH   6  13
TORSDOF 4
ENDMDL
