MODEL 1
REMARK VINA RESULT:      39.0      0.000      0.000
REMARK  2 active torsions:
REMARK  status: ('A' for Active; 'I' for Inactive)
REMARK    1  A    between atoms: N_4  and  C_1 
REMARK    2  A    between atoms: C_11  and  C_3 
ROOT
ATOM      1  C   UNL d   1      14.009  12.791  -2.785  0.00  0.00     0.148 A 
ATOM      2  N   UNL d   1      14.141  12.212  -2.240  0.00  0.00    -0.228 NA
ATOM      3  C   UNL d   1      14.500  13.754  -1.839  0.00  0.00     0.004 A 
ATOM      4  C   UNL d   1      14.192  13.574  -2.582  0.00  0.00     0.037 A 
ATOM      5  C   UNL d   1      14.625  13.140  -1.298  0.00  0.00     0.018 A 
ATOM      6  C   UNL d   1      14.443  12.357  -1.501  0.00  0.00     0.083 A 
ATOM      7  C   UNL d   1      14.932  13.321  -0.559  0.00  0.00     0.002 A 
ATOM      8  C   UNL d   1      14.573  11.779  -0.959  0.00  0.00     0.019 A 
ATOM      9  C   UNL d   1      15.058  12.705  -0.014  0.00  0.00     0.000 A 
ATOM     10  C   UNL d   1      14.876  11.922  -0.217  0.00  0.00     0.002 A 
ENDROOT
BRANCH   1  11
ATOM     11  N   UNL d   1      13.710  12.645  -3.516  0.00  0.00    -0.286 N 
ATOM     12  C   UNL d   1      13.777  13.168  -4.160  0.00  0.00     0.101 A 
ATOM     13  C   UNL d   1      13.477  13.022  -4.895  0.00  0.00     0.100 A 
ATOM     14  N   UNL d   1      13.075  12.308  -5.022  0.00  0.00    -0.299 N 
ATOM     15  C   UNL d   1      12.998  11.781  -4.407  0.00  0.00     0.100 A 
ATOM     16  C   UNL d   1      12.769  12.152  -5.763  0.00  0.00     0.100 C 
ATOM     17  C   UNL d   1      13.309  11.930  -3.644  0.00  0.00     0.101 A 
ENDBRANCH   1  11
BRANCH   3  18
ATOM     18  C   UNL d   1      14.677  14.514  -1.642  0.00  0.00     0.000 A 
ATOM     19  C   UNL d   1      14.905  14.707  -0.873  0.00  0.00     0.000 A 
ATOM     20  C   UNL d   1      15.079  15.455  -0.679  0.00  0.00     0.000 A 
ATOM     21  C   UNL d   1      15.040  16.068  -1.238  0.00  0.00     0.000 A 
ATOM     22  C   UNL d   1      14.808  15.865  -2.014  0.00  0.00     0.000 A 
ATOM     23  C   UNL d   1      14.634  15.117  -2.208  0.00  0.00     0.000 A 
ENDBRANCH   3  18
TORSDOF 2
ENDMDL
