MODEL 1
REMARK VINA RESULT:      -0.4      0.000      0.000
REMARK  5 active torsions:
REMARK  status: ('A' for Active; 'I' for Inactive)
REMARK    1  A    between atoms: N_7  and  C_1 
REMARK    2  A    between atoms: C_14  and  N_4 
REMARK    3  A    between atoms: C_6  and  N_7 
REMARK    4  A    between atoms: C_13  and  N_8 
REMARK    5  A    between atoms: C_17  and  C_13 
ROOT
ATOM      1  C   UNL d   1      32.411  20.978 -22.744  0.00  0.00     0.159 A 
ATOM      2  C   UNL d   1      32.324  21.214 -21.961  0.00  0.00     0.298 A 
ATOM      3  N   UNL d   1      32.894  22.206 -22.623  0.00  0.00    -0.238 N 
ATOM      4  N   UNL d   1      32.624  21.975 -21.887  0.00  0.00    -0.209 N 
ATOM      5  C   UNL d   1      32.765  21.595 -23.154  0.00  0.00     0.104 A 
ATOM      6  O   UNL d   1      31.992  20.764 -21.355  0.00  0.00    -0.263 OA
ATOM      7  C   UNL d   1      33.241  22.932 -22.805  0.00  0.00     0.120 C 
ATOM      8  C   UNL d   1      32.955  21.596 -23.952  0.00  0.00     0.022 C 
ENDROOT
BRANCH   1   9
ATOM      9  N   UNL d   1      32.183  20.254 -23.056  0.00  0.00    -0.216 NA
BRANCH   9  10
ATOM     10  C   UNL d   1      32.553  19.561 -22.805  0.00  0.00     0.180 A 
ATOM     11  N   UNL d   1      32.636  18.869 -23.240  0.00  0.00    -0.285 N 
ATOM     12  C   UNL d   1      33.039  18.326 -22.773  0.00  0.00     0.072 A 
ATOM     13  C   UNL d   1      33.241  17.556 -22.995  0.00  0.00     0.020 C 
ATOM     14  C   UNL d   1      33.206  18.677 -22.054  0.00  0.00     0.056 A 
ATOM     15  S   UNL d   1      32.907  19.445 -22.067  0.00  0.00    -0.048 SA
BRANCH  11  16
ATOM     16  C   UNL d   1      32.367  18.740 -24.002  0.00  0.00     0.082 C 
BRANCH  16  17
ATOM     17  C   UNL d   1      31.783  18.166 -24.154  0.00  0.00     0.018 A 
ATOM     18  C   UNL d   1      31.610  17.496 -23.697  0.00  0.00     0.002 A 
ATOM     19  C   UNL d   1      30.998  16.969 -23.929  0.00  0.00     0.000 A 
ATOM     20  C   UNL d   1      30.564  17.124 -24.626  0.00  0.00     0.000 A 
ATOM     21  C   UNL d   1      30.738  17.801 -25.089  0.00  0.00     0.000 A 
ATOM     22  C   UNL d   1      31.347  18.324 -24.855  0.00  0.00     0.002 A 
ENDBRANCH  16  17
ENDBRANCH  11  16
ENDBRANCH   9  10
ENDBRANCH   1   9
BRANCH   4  23
ATOM     23  C   UNL d   1      32.647  22.422 -21.196  0.00  0.00     0.085 A 
ATOM     24  C   UNL d   1      33.072  22.154 -20.551  0.00  0.00     0.019 A 
ATOM     25  C   UNL d   1      33.094  22.602 -19.863  0.00  0.00     0.002 A 
ATOM     26  C   UNL d   1      32.693  23.319 -19.813  0.00  0.00     0.000 A 
ATOM     27  C   UNL d   1      32.264  23.589 -20.467  0.00  0.00     0.002 A 
ATOM     28  C   UNL d   1      32.241  23.140 -21.158  0.00  0.00     0.019 A 
ENDBRANCH   4  23
TORSDOF 5
ENDMDL
MODEL 2
REMARK VINA RESULT:       0.1      1.146      1.867
REMARK  5 active torsions:
REMARK  status: ('A' for Active; 'I' for Inactive)
REMARK    1  A    between atoms: N_7  and  C_1 
REMARK    2  A    between atoms: C_14  and  N_4 
REMARK    3  A    between atoms: C_6  and  N_7 
REMARK    4  A    between atoms: C_13  and  N_8 
REMARK    5  A    between atoms: C_17  and  C_13 
ROOT
ATOM      1  C   UNL d   1      33.154  20.150 -23.043  0.00  0.00     0.159 A 
ATOM      2  C   UNL d   1      33.055  20.219 -22.230  0.00  0.00     0.298 A 
ATOM      3  N   UNL d   1      33.048  21.437 -22.746  0.00  0.00    -0.238 N 
ATOM      4  N   UNL d   1      32.990  21.017 -22.047  0.00  0.00    -0.209 N 
ATOM      5  C   UNL d   1      33.149  20.906 -23.363  0.00  0.00     0.104 A 
ATOM      6  O   UNL d   1      33.027  19.596 -21.692  0.00  0.00    -0.263 OA
ATOM      7  C   UNL d   1      33.012  22.258 -22.822  0.00  0.00     0.120 C 
ATOM      8  C   UNL d   1      33.231  21.094 -24.157  0.00  0.00     0.022 C 
ENDROOT
BRANCH   1   9
ATOM      9  N   UNL d   1      33.241  19.448 -23.459  0.00  0.00    -0.216 NA
BRANCH   9  10
ATOM     10  C   UNL d   1      32.584  19.091 -23.808  0.00  0.00     0.180 A 
ATOM     11  N   UNL d   1      32.561  18.345 -24.152  0.00  0.00    -0.285 N 
ATOM     12  C   UNL d   1      31.797  18.219 -24.428  0.00  0.00     0.072 A 
ATOM     13  C   UNL d   1      31.530  17.538 -24.812  0.00  0.00     0.020 C 
ATOM     14  C   UNL d   1      31.349  18.881 -24.258  0.00  0.00     0.056 A 
ATOM     15  S   UNL d   1      31.831  19.427 -23.873  0.00  0.00    -0.048 SA
BRANCH  11  16
ATOM     16  C   UNL d   1      33.185  17.818 -24.210  0.00  0.00     0.082 C 
BRANCH  16  17
ATOM     17  C   UNL d   1      33.166  17.092 -23.805  0.00  0.00     0.018 A 
ATOM     18  C   UNL d   1      33.240  16.974 -22.987  0.00  0.00     0.002 A 
ATOM     19  C   UNL d   1      33.209  16.199 -22.664  0.00  0.00     0.000 A 
ATOM     20  C   UNL d   1      33.102  15.545 -23.173  0.00  0.00     0.000 A 
ATOM     21  C   UNL d   1      33.028  15.663 -24.001  0.00  0.00     0.000 A 
ATOM     22  C   UNL d   1      33.059  16.435 -24.318  0.00  0.00     0.002 A 
ENDBRANCH  16  17
ENDBRANCH  11  16
ENDBRANCH   9  10
ENDBRANCH   1   9
BRANCH   4  23
ATOM     23  C   UNL d   1      32.885  21.336 -21.294  0.00  0.00     0.085 A 
ATOM     24  C   UNL d   1      32.468  22.033 -21.202  0.00  0.00     0.019 A 
ATOM     25  C   UNL d   1      32.364  22.349 -20.451  0.00  0.00     0.002 A 
ATOM     26  C   UNL d   1      32.676  21.973 -19.788  0.00  0.00     0.000 A 
ATOM     27  C   UNL d   1      33.097  21.269 -19.884  0.00  0.00     0.002 A 
ATOM     28  C   UNL d   1      33.202  20.949 -20.637  0.00  0.00     0.019 A 
ENDBRANCH   4  23
TORSDOF 5
ENDMDL
MODEL 3
REMARK VINA RESULT:       0.4      1.187      4.800
REMARK  5 active torsions:
REMARK  status: ('A' for Active; 'I' for Inactive)
REMARK    1  A    between atoms: N_7  and  C_1 
REMARK    2  A    between atoms: C_14  and  N_4 
REMARK    3  A    between atoms: C_6  and  N_7 
REMARK    4  A    between atoms: C_13  and  N_8 
REMARK    5  A    between atoms: C_17  and  C_13 
ROOT
ATOM      1  C   UNL d   1      32.975  19.602 -23.314  0.00  0.00     0.159 A 
ATOM      2  C   UNL d   1      32.914  18.849 -22.990  0.00  0.00     0.298 A 
ATOM      3  N   UNL d   1      32.610  18.766 -24.274  0.00  0.00    -0.238 N 
ATOM      4  N   UNL d   1      32.688  18.331 -23.586  0.00  0.00    -0.209 N 
ATOM      5  C   UNL d   1      32.787  19.550 -24.111  0.00  0.00     0.104 A 
ATOM      6  O   UNL d   1      33.056  18.648 -22.203  0.00  0.00    -0.263 OA
ATOM      7  C   UNL d   1      32.391  18.468 -25.012  0.00  0.00     0.120 C 
ATOM      8  C   UNL d   1      32.776  20.171 -24.646  0.00  0.00     0.022 C 
ENDROOT
BRANCH   1   9
ATOM      9  N   UNL d   1      33.188  20.284 -22.909  0.00  0.00    -0.216 NA
BRANCH   9  10
ATOM     10  C   UNL d   1      32.813  20.477 -22.200  0.00  0.00     0.180 A 
ATOM     11  N   UNL d   1      32.835  21.205 -21.820  0.00  0.00    -0.285 N 
ATOM     12  C   UNL d   1      32.385  21.144 -21.135  0.00  0.00     0.072 A 
ATOM     13  C   UNL d   1      32.259  21.751 -20.587  0.00  0.00     0.020 C 
ATOM     14  C   UNL d   1      32.085  20.386 -21.089  0.00  0.00     0.056 A 
ATOM     15  S   UNL d   1      32.347  19.965 -21.747  0.00  0.00    -0.048 SA
BRANCH  11  16
ATOM     16  C   UNL d   1      33.234  21.873 -22.075  0.00  0.00     0.082 C 
BRANCH  16  17
ATOM     17  C   UNL d   1      32.829  22.482 -22.472  0.00  0.00     0.018 A 
ATOM     18  C   UNL d   1      32.113  22.835 -22.248  0.00  0.00     0.002 A 
ATOM     19  C   UNL d   1      31.776  23.448 -22.714  0.00  0.00     0.000 A 
ATOM     20  C   UNL d   1      32.168  23.701 -23.407  0.00  0.00     0.000 A 
ATOM     21  C   UNL d   1      32.893  23.345 -23.634  0.00  0.00     0.000 A 
ATOM     22  C   UNL d   1      33.225  22.736 -23.168  0.00  0.00     0.002 A 
ENDBRANCH  16  17
ENDBRANCH  11  16
ENDBRANCH   9  10
ENDBRANCH   1   9
BRANCH   4  23
ATOM     23  C   UNL d   1      32.562  17.521 -23.504  0.00  0.00     0.085 A 
ATOM     24  C   UNL d   1      31.806  17.217 -23.573  0.00  0.00     0.019 A 
ATOM     25  C   UNL d   1      31.683  16.410 -23.491  0.00  0.00     0.002 A 
ATOM     26  C   UNL d   1      32.311  15.900 -23.339  0.00  0.00     0.000 A 
ATOM     27  C   UNL d   1      33.075  16.209 -23.270  0.00  0.00     0.002 A 
ATOM     28  C   UNL d   1      33.201  17.020 -23.352  0.00  0.00     0.019 A 
ENDBRANCH   4  23
TORSDOF 5
ENDMDL
