MODEL 1
REMARK VINA RESULT:      55.5      0.000      0.000
REMARK  7 active torsions:
REMARK  status: ('A' for Active; 'I' for Inactive)
REMARK    1  A    between atoms: C_16  and  N_3 
REMARK    2  A    between atoms: C_15  and  N_8 
REMARK    3  A    between atoms: C_12  and  C_10 
REMARK    4  A    between atoms: C_11  and  N_14 
REMARK    5  A    between atoms: O_22  and  C_12 
REMARK    6  A    between atoms: C_13  and  C_15 
REMARK       I    between atoms: N_14  and  C_13 
REMARK    7  A    between atoms: C_28  and  O_22 
ROOT
ATOM      1  C   UNL d   1      44.709 -12.489  41.283  0.00  0.00     0.191 A 
ATOM      2  C   UNL d   1      44.041 -12.286  40.829  0.00  0.00     0.196 A 
ATOM      3  N   UNL d   1      44.500 -12.411  42.082  0.00  0.00    -0.193 N 
ATOM      4  N   UNL d   1      43.720 -12.166  42.113  0.00  0.00    -0.058 NA
ATOM      5  N   UNL d   1      43.434 -12.087  41.359  0.00  0.00    -0.122 NA
ATOM      6  N   UNL d   1      45.400 -12.712  40.909  0.00  0.00    -0.204 NA
ATOM      7  C   UNL d   1      44.082 -12.311  40.015  0.00  0.00     0.289 A 
ATOM      8  N   UNL d   1      44.776 -12.535  39.632  0.00  0.00    -0.249 N 
ATOM      9  C   UNL d   1      45.445 -12.739  40.086  0.00  0.00     0.187 A 
ATOM     10  O   UNL d   1      43.413 -12.108  39.561  0.00  0.00    -0.265 OA
ENDROOT
BRANCH   8  11
ATOM     11  C   UNL d   1      44.827 -12.564  38.804  0.00  0.00     0.147 C 
BRANCH  11  12
ATOM     12  C   UNL d   1      45.279 -13.152  38.428  0.00  0.00     0.297 C 
ATOM     13  N   UNL d   1      44.934 -13.614  37.843  0.00  0.00    -0.207 NA
ATOM     14  O   UNL d   1      46.067 -13.266  38.646  0.00  0.00    -0.264 OA
BRANCH  13  15
ATOM     15  C   UNL d   1      45.378 -14.201  37.466  0.00  0.00     0.090 A 
ATOM     16  C   UNL d   1      44.998 -14.823  37.103  0.00  0.00     0.081 A 
ATOM     17  C   UNL d   1      45.442 -15.410  36.726  0.00  0.00     0.007 A 
ATOM     18  C   UNL d   1      46.266 -15.362  36.719  0.00  0.00     0.000 A 
ATOM     19  C   UNL d   1      46.646 -14.741  37.081  0.00  0.00     0.002 A 
ATOM     20  C   UNL d   1      46.202 -14.161  37.454  0.00  0.00     0.019 A 
BRANCH  16  21
ATOM     21  C   UNL d   1      44.174 -14.870  37.110  0.00  0.00     0.302 C 
ATOM     22  O   UNL d   1      43.744 -14.482  37.701  0.00  0.00    -0.259 OA
BRANCH  21  23
ATOM     23  O   UNL d   1      43.782 -15.306  36.526  0.00  0.00    -0.271 OA
BRANCH  23  24
ATOM     24  C   UNL d   1      43.160 -15.812  36.731  0.00  0.00     0.126 C 
ATOM     25  C   UNL d   1      42.446 -15.768  36.330  0.00  0.00     0.029 C 
ENDBRANCH  23  24
ENDBRANCH  21  23
ENDBRANCH  16  21
ENDBRANCH  13  15
ENDBRANCH  11  12
ENDBRANCH   8  11
BRANCH   3  26
ATOM     26  C   UNL d   1      44.949 -12.542  42.740  0.00  0.00     0.086 A 
ATOM     27  C   UNL d   1      44.619 -12.929  43.407  0.00  0.00     0.019 A 
ATOM     28  C   UNL d   1      45.076 -13.058  44.064  0.00  0.00     0.002 A 
ATOM     29  C   UNL d   1      45.879 -12.806  44.082  0.00  0.00     0.000 A 
ATOM     30  C   UNL d   1      46.191 -12.432  43.432  0.00  0.00     0.002 A 
ATOM     31  C   UNL d   1      46.360 -12.939  44.768  0.00  0.00     0.000 C 
ATOM     32  C   UNL d   1      45.738 -12.296  42.760  0.00  0.00     0.019 A 
ENDBRANCH   3  26
TORSDOF 7
ENDMDL
