MODEL 1
REMARK VINA RESULT:      71.2      0.000      0.000
REMARK  7 active torsions:
REMARK  status: ('A' for Active; 'I' for Inactive)
REMARK    1  A    between atoms: C_5  and  N_1 
REMARK    2  A    between atoms: C_3  and  N_2 
REMARK    3  A    between atoms: N_4  and  C_11 
REMARK    4  A    between atoms: C_11  and  C_17 
REMARK    5  A    between atoms: O_16  and  C_18 
REMARK    6  A    between atoms: C_20  and  O_16 
REMARK    7  A    between atoms: C_17  and  C_20 
ROOT
ATOM      1  C   UNL d   1      61.004  48.463  50.019  0.00  0.00     0.125 C 
ENDROOT
BRANCH   1   2
ATOM      2  N   UNL d   1      61.105  47.677  50.078  0.00  0.00    -0.297 N 
ATOM      3  C   UNL d   1      60.934  47.262  50.764  0.00  0.00     0.100 A 
ATOM      4  C   UNL d   1      61.036  46.468  50.823  0.00  0.00     0.100 A 
ATOM      5  N   UNL d   1      61.328  46.036  50.162  0.00  0.00    -0.299 N 
ATOM      6  C   UNL d   1      61.503  46.438  49.470  0.00  0.00     0.100 A 
ATOM      7  C   UNL d   1      61.400  47.245  49.409  0.00  0.00     0.100 A 
BRANCH   5   8
ATOM      8  C   UNL d   1      61.433  45.220  50.223  0.00  0.00     0.092 A 
ATOM      9  C   UNL d   1      62.016  44.854  49.758  0.00  0.00     0.156 A 
ATOM     10  F   UNL d   1      62.488  45.294  49.241  0.00  0.00    -0.203 F 
ATOM     11  C   UNL d   1      62.120  44.042  49.819  0.00  0.00     0.031 A 
ATOM     12  C   UNL d   1      61.666  43.594  50.322  0.00  0.00     0.002 A 
ATOM     13  C   UNL d   1      61.075  43.960  50.793  0.00  0.00     0.002 A 
ATOM     14  C   UNL d   1      60.971  44.776  50.732  0.00  0.00     0.020 A 
ENDBRANCH   5   8
ENDBRANCH   1   2
BRANCH   1  15
ATOM     15  C   UNL d   1      60.968  48.930  50.710  0.00  0.00     0.238 C 
ATOM     16  O   UNL d   1      61.712  48.917  51.283  0.00  0.00    -0.283 OA
BRANCH  15  17
ATOM     17  C   UNL d   1      60.301  49.375  50.865  0.00  0.00     0.166 C 
BRANCH  17  18
ATOM     18  O   UNL d   1      59.870  49.702  50.228  0.00  0.00    -0.302 OA
BRANCH  18  19
ATOM     19  C   UNL d   1      59.054  49.664  50.230  0.00  0.00     0.100 A 
ATOM     20  C   UNL d   1      58.624  49.702  49.526  0.00  0.00     0.026 A 
ATOM     21  C   UNL d   1      57.795  49.664  49.523  0.00  0.00     0.026 A 
ATOM     22  C   UNL d   1      57.381  49.585  50.255  0.00  0.00     0.127 A 
ATOM     23  C   UNL d   1      57.812  49.547  50.959  0.00  0.00     0.026 A 
ATOM     24  C   UNL d   1      58.652  49.587  50.949  0.00  0.00     0.026 A 
BRANCH  22  25
ATOM     25  N   UNL d   1      56.557  49.545  50.277  0.00  0.00    -0.114 N 
ATOM     26  O   UNL d   1      56.094  49.696  50.943  0.00  0.00    -0.532 OA
ATOM     27  O   UNL d   1      56.088  49.349  49.632  0.00  0.00    -0.532 OA
ENDBRANCH  22  25
ENDBRANCH  18  19
ENDBRANCH  17  18
ENDBRANCH  15  17
ENDBRANCH   1  15
TORSDOF 7
ENDMDL
