MODEL 1
REMARK VINA RESULT:      -5.3      0.000      0.000
REMARK  1 active torsions:
REMARK  status: ('A' for Active; 'I' for Inactive)
REMARK    1  A    between atoms: C_6  and  C_1 
ROOT
ATOM      1  C   UNL d   1      57.007  -0.229  31.705  0.00  0.00     0.163 A 
ATOM      2  N   UNL d   1      57.533   0.402  31.638  0.00  0.00    -0.225 NA
ATOM      3  N   UNL d   1      57.136  -0.771  31.084  0.00  0.00    -0.225 NA
ATOM      4  C   UNL d   1      58.010   0.271  30.967  0.00  0.00     0.101 A 
ATOM      5  C   UNL d   1      57.762  -0.463  30.620  0.00  0.00     0.101 A 
ATOM      6  C   UNL d   1      58.612   0.681  30.619  0.00  0.00     0.021 A 
ATOM      7  C   UNL d   1      58.132  -0.736  29.950  0.00  0.00     0.021 A 
ATOM      8  C   UNL d   1      58.976   0.388  29.939  0.00  0.00     0.002 A 
ATOM      9  C   UNL d   1      58.745  -0.295  29.616  0.00  0.00     0.002 A 
ENDROOT
BRANCH   1  10
ATOM     10  C   UNL d   1      56.444  -0.295  32.307  0.00  0.00     0.039 A 
ATOM     11  C   UNL d   1      56.064   0.360  32.633  0.00  0.00     0.024 A 
ATOM     12  C   UNL d   1      55.509   0.272  33.229  0.00  0.00     0.099 A 
ATOM     13  N   UNL d   1      55.290  -0.449  33.542  0.00  0.00    -0.242 NA
ATOM     14  C   UNL d   1      55.674  -1.134  33.215  0.00  0.00     0.099 A 
ATOM     15  C   UNL d   1      56.250  -1.042  32.597  0.00  0.00     0.024 A 
ENDBRANCH   1  10
TORSDOF 1
ENDMDL
MODEL 2
REMARK VINA RESULT:      -5.2      0.415      1.164
REMARK  1 active torsions:
REMARK  status: ('A' for Active; 'I' for Inactive)
REMARK    1  A    between atoms: C_6  and  C_1 
ROOT
ATOM      1  C   UNL d   1      57.021  -0.298  31.469  0.00  0.00     0.163 A 
ATOM      2  N   UNL d   1      57.383  -0.928  31.080  0.00  0.00    -0.225 NA
ATOM      3  N   UNL d   1      57.239   0.420  31.106  0.00  0.00    -0.225 NA
ATOM      4  C   UNL d   1      57.842  -0.618  30.456  0.00  0.00     0.101 A 
ATOM      5  C   UNL d   1      57.751   0.226  30.473  0.00  0.00     0.101 A 
ATOM      6  C   UNL d   1      58.314  -0.947  29.891  0.00  0.00     0.021 A 
ATOM      7  C   UNL d   1      58.139   0.682  29.923  0.00  0.00     0.021 A 
ATOM      8  C   UNL d   1      58.699  -0.468  29.340  0.00  0.00     0.002 A 
ATOM      9  C   UNL d   1      58.615   0.318  29.356  0.00  0.00     0.002 A 
ENDROOT
BRANCH   1  10
ATOM     10  C   UNL d   1      56.521  -0.389  32.121  0.00  0.00     0.039 A 
ATOM     11  C   UNL d   1      56.265  -1.127  32.385  0.00  0.00     0.024 A 
ATOM     12  C   UNL d   1      55.769  -1.193  33.034  0.00  0.00     0.099 A 
ATOM     13  N   UNL d   1      55.493  -0.555  33.461  0.00  0.00    -0.242 NA
ATOM     14  C   UNL d   1      55.749   0.213  33.199  0.00  0.00     0.099 A 
ATOM     15  C   UNL d   1      56.263   0.281  32.527  0.00  0.00     0.024 A 
ENDBRANCH   1  10
TORSDOF 1
ENDMDL
MODEL 3
REMARK VINA RESULT:      -5.0      1.053      3.661
REMARK  1 active torsions:
REMARK  status: ('A' for Active; 'I' for Inactive)
REMARK    1  A    between atoms: C_6  and  C_1 
ROOT
ATOM      1  C   UNL d   1      56.515   0.117  32.479  0.00  0.00     0.163 A 
ATOM      2  N   UNL d   1      56.847   0.333  33.201  0.00  0.00    -0.225 NA
ATOM      3  N   UNL d   1      55.685   0.072  32.553  0.00  0.00    -0.225 NA
ATOM      4  C   UNL d   1      56.230   0.431  33.752  0.00  0.00     0.101 A 
ATOM      5  C   UNL d   1      55.502   0.267  33.346  0.00  0.00     0.101 A 
ATOM      6  C   UNL d   1      56.202   0.635  34.532  0.00  0.00     0.021 A 
ATOM      7  C   UNL d   1      54.798   0.319  33.749  0.00  0.00     0.021 A 
ATOM      8  C   UNL d   1      55.477   0.682  34.924  0.00  0.00     0.002 A 
ATOM      9  C   UNL d   1      54.800   0.530  34.547  0.00  0.00     0.002 A 
ENDROOT
BRANCH   1  10
ATOM     10  C   UNL d   1      56.956  -0.029  31.796  0.00  0.00     0.039 A 
ATOM     11  C   UNL d   1      57.327   0.572  31.370  0.00  0.00     0.024 A 
ATOM     12  C   UNL d   1      57.761   0.404  30.694  0.00  0.00     0.099 A 
ATOM     13  N   UNL d   1      57.860  -0.348  30.395  0.00  0.00    -0.242 NA
ATOM     14  C   UNL d   1      57.483  -0.978  30.824  0.00  0.00     0.099 A 
ATOM     15  C   UNL d   1      57.034  -0.804  31.524  0.00  0.00     0.024 A 
ENDBRANCH   1  10
TORSDOF 1
ENDMDL
MODEL 4
REMARK VINA RESULT:      -4.8      0.965      1.365
REMARK  1 active torsions:
REMARK  status: ('A' for Active; 'I' for Inactive)
REMARK    1  A    between atoms: C_6  and  C_1 
ROOT
ATOM      1  C   UNL d   1      56.413   0.098  32.605  0.00  0.00     0.163 A 
ATOM      2  N   UNL d   1      56.701   0.681  32.099  0.00  0.00    -0.225 NA
ATOM      3  N   UNL d   1      56.627  -0.655  32.319  0.00  0.00    -0.225 NA
ATOM      4  C   UNL d   1      57.107   0.305  31.475  0.00  0.00     0.101 A 
ATOM      5  C   UNL d   1      57.061  -0.531  31.613  0.00  0.00     0.101 A 
ATOM      6  C   UNL d   1      57.500   0.570  30.823  0.00  0.00     0.021 A 
ATOM      7  C   UNL d   1      57.411  -1.044  31.089  0.00  0.00     0.021 A 
ATOM      8  C   UNL d   1      57.850   0.034  30.302  0.00  0.00     0.002 A 
ATOM      9  C   UNL d   1      57.807  -0.745  30.430  0.00  0.00     0.002 A 
ENDROOT
BRANCH   1  10
ATOM     10  C   UNL d   1      55.979   0.260  33.290  0.00  0.00     0.039 A 
ATOM     11  C   UNL d   1      56.331   0.528  33.986  0.00  0.00     0.024 A 
ATOM     12  C   UNL d   1      55.880   0.682  34.654  0.00  0.00     0.099 A 
ATOM     13  N   UNL d   1      55.071   0.586  34.686  0.00  0.00    -0.242 NA
ATOM     14  C   UNL d   1      54.695   0.309  33.976  0.00  0.00     0.099 A 
ATOM     15  C   UNL d   1      55.161   0.150  33.284  0.00  0.00     0.024 A 
ENDBRANCH   1  10
TORSDOF 1
ENDMDL
MODEL 5
REMARK VINA RESULT:      -3.2      2.684      4.214
REMARK  1 active torsions:
REMARK  status: ('A' for Active; 'I' for Inactive)
REMARK    1  A    between atoms: C_6  and  C_1 
ROOT
ATOM      1  C   UNL d   1      59.127  -1.522  29.063  0.00  0.00     0.163 A 
ATOM      2  N   UNL d   1      58.750  -2.220  28.839  0.00  0.00    -0.225 NA
ATOM      3  N   UNL d   1      59.942  -1.665  29.170  0.00  0.00    -0.225 NA
ATOM      4  C   UNL d   1      59.323  -2.824  28.800  0.00  0.00     0.101 A 
ATOM      5  C   UNL d   1      60.069  -2.476  29.007  0.00  0.00     0.101 A 
ATOM      6  C   UNL d   1      59.296  -3.609  28.616  0.00  0.00     0.021 A 
ATOM      7  C   UNL d   1      60.738  -2.939  29.015  0.00  0.00     0.021 A 
ATOM      8  C   UNL d   1      59.987  -4.062  28.630  0.00  0.00     0.002 A 
ATOM      9  C   UNL d   1      60.681  -3.739  28.823  0.00  0.00     0.002 A 
ENDROOT
BRANCH   1  10
ATOM     10  C   UNL d   1      58.737  -0.801  29.161  0.00  0.00     0.039 A 
ATOM     11  C   UNL d   1      58.647  -0.257  28.548  0.00  0.00     0.024 A 
ATOM     12  C   UNL d   1      58.256   0.453  28.668  0.00  0.00     0.099 A 
ATOM     13  N   UNL d   1      57.932   0.677  29.382  0.00  0.00    -0.242 NA
ATOM     14  C   UNL d   1      58.017   0.126  30.024  0.00  0.00     0.099 A 
ATOM     15  C   UNL d   1      58.422  -0.609  29.900  0.00  0.00     0.024 A 
ENDBRANCH   1  10
TORSDOF 1
ENDMDL
MODEL 6
REMARK VINA RESULT:      -3.0      9.440     10.057
REMARK  1 active torsions:
REMARK  status: ('A' for Active; 'I' for Inactive)
REMARK    1  A    between atoms: C_6  and  C_1 
ROOT
ATOM      1  C   UNL d   1      59.264  -9.347  33.540  0.00  0.00     0.163 A 
ATOM      2  N   UNL d   1      59.718  -8.702  33.778  0.00  0.00    -0.225 NA
ATOM      3  N   UNL d   1      59.049  -9.801  34.207  0.00  0.00    -0.225 NA
ATOM      4  C   UNL d   1      59.802  -8.734  34.606  0.00  0.00     0.101 A 
ATOM      5  C   UNL d   1      59.383  -9.422  34.875  0.00  0.00     0.101 A 
ATOM      6  C   UNL d   1      60.176  -8.270  35.150  0.00  0.00     0.021 A 
ATOM      7  C   UNL d   1      59.367  -9.598  35.668  0.00  0.00     0.021 A 
ATOM      8  C   UNL d   1      60.149  -8.465  35.952  0.00  0.00     0.002 A 
ATOM      9  C   UNL d   1      59.759  -9.105  36.202  0.00  0.00     0.002 A 
ENDROOT
BRANCH   1  10
ATOM     10  C   UNL d   1      59.063  -9.502  32.754  0.00  0.00     0.039 A 
ATOM     11  C   UNL d   1      59.626  -9.667  32.175  0.00  0.00     0.024 A 
ATOM     12  C   UNL d   1      59.404  -9.818  31.401  0.00  0.00     0.099 A 
ATOM     13  N   UNL d   1      58.630  -9.818  31.144  0.00  0.00    -0.242 NA
ATOM     14  C   UNL d   1      58.038  -9.650  31.730  0.00  0.00     0.099 A 
ATOM     15  C   UNL d   1      58.268  -9.493  32.532  0.00  0.00     0.024 A 
ENDBRANCH   1  10
TORSDOF 1
ENDMDL
MODEL 7
REMARK VINA RESULT:      -2.8      2.586      4.015
REMARK  1 active torsions:
REMARK  status: ('A' for Active; 'I' for Inactive)
REMARK    1  A    between atoms: C_6  and  C_1 
ROOT
ATOM      1  C   UNL d   1      58.971  -1.769  29.282  0.00  0.00     0.163 A 
ATOM      2  N   UNL d   1      59.772  -1.939  29.184  0.00  0.00    -0.225 NA
ATOM      3  N   UNL d   1      58.516  -2.442  29.096  0.00  0.00    -0.225 NA
ATOM      4  C   UNL d   1      59.840  -2.731  28.932  0.00  0.00     0.101 A 
ATOM      5  C   UNL d   1      59.054  -3.046  28.878  0.00  0.00     0.101 A 
ATOM      6  C   UNL d   1      60.464  -3.208  28.748  0.00  0.00     0.021 A 
ATOM      7  C   UNL d   1      58.946  -3.816  28.643  0.00  0.00     0.021 A 
ATOM      8  C   UNL d   1      60.335  -3.988  28.512  0.00  0.00     0.002 A 
ATOM      9  C   UNL d   1      59.603  -4.282  28.461  0.00  0.00     0.002 A 
ENDROOT
BRANCH   1  10
ATOM     10  C   UNL d   1      58.686  -1.034  29.527  0.00  0.00     0.039 A 
ATOM     11  C   UNL d   1      58.939  -0.324  29.193  0.00  0.00     0.024 A 
ATOM     12  C   UNL d   1      58.642   0.395  29.453  0.00  0.00     0.099 A 
ATOM     13  N   UNL d   1      58.086   0.467  30.046  0.00  0.00    -0.242 NA
ATOM     14  C   UNL d   1      57.815  -0.257  30.400  0.00  0.00     0.099 A 
ATOM     15  C   UNL d   1      58.123  -1.001  30.131  0.00  0.00     0.024 A 
ENDBRANCH   1  10
TORSDOF 1
ENDMDL
MODEL 8
REMARK VINA RESULT:      -2.5      9.651      9.987
REMARK  1 active torsions:
REMARK  status: ('A' for Active; 'I' for Inactive)
REMARK    1  A    between atoms: C_6  and  C_1 
ROOT
ATOM      1  C   UNL d   1      58.802  -9.676  32.171  0.00  0.00     0.163 A 
ATOM      2  N   UNL d   1      58.660  -9.481  32.959  0.00  0.00    -0.225 NA
ATOM      3  N   UNL d   1      59.617  -9.813  32.057  0.00  0.00    -0.225 NA
ATOM      4  C   UNL d   1      59.389  -9.491  33.364  0.00  0.00     0.101 A 
ATOM      5  C   UNL d   1      59.988  -9.699  32.799  0.00  0.00     0.101 A 
ATOM      6  C   UNL d   1      59.607  -9.351  34.128  0.00  0.00     0.021 A 
ATOM      7  C   UNL d   1      60.763  -9.752  33.038  0.00  0.00     0.021 A 
ATOM      8  C   UNL d   1      60.399  -9.410  34.351  0.00  0.00     0.002 A 
ATOM      9  C   UNL d   1      60.957  -9.604  33.826  0.00  0.00     0.002 A 
ENDROOT
BRANCH   1  10
ATOM     10  C   UNL d   1      58.210  -9.722  31.596  0.00  0.00     0.039 A 
ATOM     11  C   UNL d   1      57.409  -9.762  31.786  0.00  0.00     0.024 A 
ATOM     12  C   UNL d   1      56.838  -9.808  31.199  0.00  0.00     0.099 A 
ATOM     13  N   UNL d   1      57.008  -9.817  30.402  0.00  0.00    -0.242 NA
ATOM     14  C   UNL d   1      57.831  -9.776  30.191  0.00  0.00     0.099 A 
ATOM     15  C   UNL d   1      58.422  -9.729  30.799  0.00  0.00     0.024 A 
ENDBRANCH   1  10
TORSDOF 1
ENDMDL
MODEL 9
REMARK VINA RESULT:      -2.3      3.662      4.803
REMARK  1 active torsions:
REMARK  status: ('A' for Active; 'I' for Inactive)
REMARK    1  A    between atoms: C_6  and  C_1 
ROOT
ATOM      1  C   UNL d   1      59.618  -1.973  28.884  0.00  0.00     0.163 A 
ATOM      2  N   UNL d   1      58.933  -1.588  28.635  0.00  0.00    -0.225 NA
ATOM      3  N   UNL d   1      60.123  -1.431  29.268  0.00  0.00    -0.225 NA
ATOM      4  C   UNL d   1      58.990  -0.788  28.859  0.00  0.00     0.101 A 
ATOM      5  C   UNL d   1      59.735  -0.689  29.255  0.00  0.00     0.101 A 
ATOM      6  C   UNL d   1      58.507  -0.147  28.774  0.00  0.00     0.021 A 
ATOM      7  C   UNL d   1      59.945   0.043  29.538  0.00  0.00     0.021 A 
ATOM      8  C   UNL d   1      58.738   0.589  29.068  0.00  0.00     0.002 A 
ATOM      9  C   UNL d   1      59.431   0.681  29.437  0.00  0.00     0.002 A 
ENDROOT
BRANCH   1  10
ATOM     10  C   UNL d   1      59.763  -2.778  28.760  0.00  0.00     0.039 A 
ATOM     11  C   UNL d   1      60.516  -3.075  28.604  0.00  0.00     0.024 A 
ATOM     12  C   UNL d   1      60.636  -3.877  28.484  0.00  0.00     0.099 A 
ATOM     13  N   UNL d   1      60.040  -4.433  28.509  0.00  0.00    -0.242 NA
ATOM     14  C   UNL d   1      59.258  -4.141  28.669  0.00  0.00     0.099 A 
ATOM     15  C   UNL d   1      59.134  -3.310  28.793  0.00  0.00     0.024 A 
ENDBRANCH   1  10
TORSDOF 1
ENDMDL
