MODEL 1
REMARK VINA RESULT:      -3.7      0.000      0.000
REMARK  7 active torsions:
REMARK  status: ('A' for Active; 'I' for Inactive)
REMARK    1  A    between atoms: C_2  and  N_1 
REMARK    2  A    between atoms: C_4  and  O_6 
REMARK    3  A    between atoms: C_11  and  C_4 
REMARK    4  A    between atoms: O_6  and  C_12 
REMARK    5  A    between atoms: O_10  and  C_11 
REMARK    6  A    between atoms: C_13  and  O_10 
REMARK    7  A    between atoms: C_21  and  C_16 
ROOT
ATOM      1  C   UNL d   1      33.146  20.055 -22.549  0.00  0.00     0.325 C 
ATOM      2  O   UNL d   1      33.240  20.555 -23.206  0.00  0.00    -0.256 OA
ENDROOT
BRANCH   1   3
ATOM      3  O   UNL d   1      33.241  20.348 -21.782  0.00  0.00    -0.272 OA
BRANCH   3   4
ATOM      4  C   UNL d   1      32.908  21.075 -21.576  0.00  0.00     0.103 A 
ATOM      5  C   UNL d   1      33.139  21.761 -21.966  0.00  0.00     0.026 A 
ATOM      6  C   UNL d   1      32.789  22.493 -21.743  0.00  0.00     0.026 A 
ATOM      7  C   UNL d   1      32.225  22.535 -21.146  0.00  0.00     0.127 A 
ATOM      8  C   UNL d   1      31.989  21.824 -20.745  0.00  0.00     0.026 A 
ATOM      9  C   UNL d   1      32.346  21.102 -20.979  0.00  0.00     0.026 A 
BRANCH   7  10
ATOM     10  N   UNL d   1      31.893  23.260 -20.940  0.00  0.00    -0.114 N 
ATOM     11  O   UNL d   1      31.345  23.671 -21.409  0.00  0.00    -0.532 OA
ATOM     12  O   UNL d   1      32.056  23.667 -20.252  0.00  0.00    -0.532 OA
ENDBRANCH   7  10
ENDBRANCH   3   4
ENDBRANCH   1   3
BRANCH   1  13
ATOM     13  C   UNL d   1      32.955  19.260 -22.664  0.00  0.00     0.191 C 
BRANCH  13  14
ATOM     14  O   UNL d   1      32.739  18.992 -23.415  0.00  0.00    -0.300 OA
BRANCH  14  15
ATOM     15  C   UNL d   1      32.491  18.183 -23.524  0.00  0.00     0.100 A 
ATOM     16  C   UNL d   1      32.893  17.574 -23.147  0.00  0.00     0.025 A 
ATOM     17  C   UNL d   1      32.653  16.791 -23.253  0.00  0.00     0.002 A 
ATOM     18  C   UNL d   1      32.010  16.619 -23.735  0.00  0.00     0.000 A 
ATOM     19  C   UNL d   1      31.604  17.230 -24.115  0.00  0.00     0.002 A 
ATOM     20  C   UNL d   1      31.844  18.012 -24.010  0.00  0.00     0.025 A 
BRANCH  18  21
ATOM     21  C   UNL d   1      31.764  15.815 -23.843  0.00  0.00     0.000 C 
ATOM     22  C   UNL d   1      31.049  15.555 -23.520  0.00  0.00     0.000 C 
ENDBRANCH  18  21
ENDBRANCH  14  15
ENDBRANCH  13  14
ENDBRANCH   1  13
TORSDOF 7
ENDMDL
MODEL 2
REMARK VINA RESULT:      -3.7      2.156      5.545
REMARK  7 active torsions:
REMARK  status: ('A' for Active; 'I' for Inactive)
REMARK    1  A    between atoms: C_2  and  N_1 
REMARK    2  A    between atoms: C_4  and  O_6 
REMARK    3  A    between atoms: C_11  and  C_4 
REMARK    4  A    between atoms: O_6  and  C_12 
REMARK    5  A    between atoms: O_10  and  C_11 
REMARK    6  A    between atoms: C_13  and  O_10 
REMARK    7  A    between atoms: C_21  and  C_16 
ROOT
ATOM      1  C   UNL d   1      33.103  18.916 -22.681  0.00  0.00     0.325 C 
ATOM      2  O   UNL d   1      33.241  18.399 -22.044  0.00  0.00    -0.256 OA
ENDROOT
BRANCH   1   3
ATOM      3  O   UNL d   1      33.057  18.625 -23.452  0.00  0.00    -0.272 OA
BRANCH   3   4
ATOM      4  C   UNL d   1      32.544  18.004 -23.628  0.00  0.00     0.103 A 
ATOM      5  C   UNL d   1      31.815  18.156 -23.978  0.00  0.00     0.026 A 
ATOM      6  C   UNL d   1      31.303  17.509 -24.150  0.00  0.00     0.026 A 
ATOM      7  C   UNL d   1      31.517  16.736 -23.976  0.00  0.00     0.127 A 
ATOM      8  C   UNL d   1      32.271  16.582 -23.614  0.00  0.00     0.026 A 
ATOM      9  C   UNL d   1      32.769  17.235 -23.449  0.00  0.00     0.026 A 
BRANCH   7  10
ATOM     10  N   UNL d   1      31.005  16.115 -24.151  0.00  0.00    -0.114 N 
ATOM     11  O   UNL d   1      30.233  16.051 -23.854  0.00  0.00    -0.532 OA
ATOM     12  O   UNL d   1      31.187  15.484 -24.637  0.00  0.00    -0.532 OA
ENDBRANCH   7  10
ENDBRANCH   3   4
ENDBRANCH   1   3
BRANCH   1  13
ATOM     13  C   UNL d   1      33.013  19.724 -22.539  0.00  0.00     0.191 C 
BRANCH  13  14
ATOM     14  O   UNL d   1      33.004  20.009 -21.763  0.00  0.00    -0.300 OA
BRANCH  14  15
ATOM     15  C   UNL d   1      32.850  20.834 -21.614  0.00  0.00     0.100 A 
ATOM     16  C   UNL d   1      32.352  21.057 -20.999  0.00  0.00     0.025 A 
ATOM     17  C   UNL d   1      32.202  21.855 -20.855  0.00  0.00     0.002 A 
ATOM     18  C   UNL d   1      32.551  22.431 -21.326  0.00  0.00     0.000 A 
ATOM     19  C   UNL d   1      33.052  22.211 -21.944  0.00  0.00     0.002 A 
ATOM     20  C   UNL d   1      33.202  21.413 -22.089  0.00  0.00     0.025 A 
BRANCH  18  21
ATOM     21  C   UNL d   1      32.398  23.252 -21.177  0.00  0.00     0.000 C 
ATOM     22  C   UNL d   1      31.727  23.612 -21.501  0.00  0.00     0.000 C 
ENDBRANCH  18  21
ENDBRANCH  14  15
ENDBRANCH  13  14
ENDBRANCH   1  13
TORSDOF 7
ENDMDL
MODEL 3
REMARK VINA RESULT:      -1.9      1.406      2.026
REMARK  7 active torsions:
REMARK  status: ('A' for Active; 'I' for Inactive)
REMARK    1  A    between atoms: C_2  and  N_1 
REMARK    2  A    between atoms: C_4  and  O_6 
REMARK    3  A    between atoms: C_11  and  C_4 
REMARK    4  A    between atoms: O_6  and  C_12 
REMARK    5  A    between atoms: O_10  and  C_11 
REMARK    6  A    between atoms: C_13  and  O_10 
REMARK    7  A    between atoms: C_21  and  C_16 
ROOT
ATOM      1  C   UNL d   1      32.785  21.684 -22.072  0.00  0.00     0.325 C 
ATOM      2  O   UNL d   1      33.200  22.211 -22.563  0.00  0.00    -0.256 OA
ENDROOT
BRANCH   1   3
ATOM      3  O   UNL d   1      32.213  21.966 -21.546  0.00  0.00    -0.272 OA
BRANCH   3   4
ATOM      4  C   UNL d   1      32.434  22.205 -20.788  0.00  0.00     0.103 A 
ATOM      5  C   UNL d   1      32.201  22.940 -20.503  0.00  0.00     0.026 A 
ATOM      6  C   UNL d   1      32.435  23.169 -19.727  0.00  0.00     0.026 A 
ATOM      7  C   UNL d   1      32.888  22.674 -19.253  0.00  0.00     0.127 A 
ATOM      8  C   UNL d   1      33.127  21.914 -19.551  0.00  0.00     0.026 A 
ATOM      9  C   UNL d   1      32.886  21.701 -20.324  0.00  0.00     0.026 A 
BRANCH   7  10
ATOM     10  N   UNL d   1      33.108  22.912 -18.496  0.00  0.00    -0.114 N 
ATOM     11  O   UNL d   1      33.239  23.702 -18.277  0.00  0.00    -0.532 OA
ATOM     12  O   UNL d   1      33.227  22.408 -17.865  0.00  0.00    -0.532 OA
ENDBRANCH   7  10
ENDBRANCH   3   4
ENDBRANCH   1   3
BRANCH   1  13
ATOM     13  C   UNL d   1      32.945  20.876 -22.111  0.00  0.00     0.191 C 
BRANCH  13  14
ATOM     14  O   UNL d   1      33.241  20.547 -22.810  0.00  0.00    -0.300 OA
BRANCH  14  15
ATOM     15  C   UNL d   1      33.087  19.728 -22.994  0.00  0.00     0.100 A 
ATOM     16  C   UNL d   1      33.003  19.178 -22.389  0.00  0.00     0.025 A 
ATOM     17  C   UNL d   1      32.855  18.386 -22.567  0.00  0.00     0.002 A 
ATOM     18  C   UNL d   1      32.790  18.145 -23.350  0.00  0.00     0.000 A 
ATOM     19  C   UNL d   1      32.874  18.696 -23.960  0.00  0.00     0.002 A 
ATOM     20  C   UNL d   1      33.023  19.487 -23.782  0.00  0.00     0.025 A 
BRANCH  18  21
ATOM     21  C   UNL d   1      32.638  17.331 -23.532  0.00  0.00     0.000 C 
ATOM     22  C   UNL d   1      31.864  17.041 -23.512  0.00  0.00     0.000 C 
ENDBRANCH  18  21
ENDBRANCH  14  15
ENDBRANCH  13  14
ENDBRANCH   1  13
TORSDOF 7
ENDMDL
