MODEL 1
REMARK VINA RESULT:      37.4      0.000      0.000
REMARK  5 active torsions:
REMARK  status: ('A' for Active; 'I' for Inactive)
REMARK    1  A    between atoms: N_2  and  S_1 
REMARK    2  A    between atoms: C_4  and  S_1 
REMARK    3  A    between atoms: C_3  and  N_2 
REMARK       I    between atoms: C_6  and  N_2 
REMARK    4  A    between atoms: O_13  and  C_7 
REMARK    5  A    between atoms: C_14  and  O_13 
ROOT
ATOM      1  C   UNL d   1      46.158 -18.501  42.764  0.00  0.00     0.078 A 
ATOM      2  C   UNL d   1      46.291 -18.880  43.499  0.00  0.00     0.019 A 
ATOM      3  C   UNL d   1      46.007 -17.671  44.179  0.00  0.00     0.103 A 
ATOM      4  C   UNL d   1      46.210 -18.445  44.192  0.00  0.00     0.024 A 
ATOM      5  C   UNL d   1      45.953 -17.712  42.783  0.00  0.00     0.020 A 
ATOM      6  C   UNL d   1      45.869 -17.267  43.473  0.00  0.00     0.026 A 
ATOM      7  C   UNL d   1      46.500 -19.671  43.535  0.00  0.00     0.002 A 
ATOM      8  C   UNL d   1      46.336 -18.797  44.919  0.00  0.00     0.002 A 
ATOM      9  C   UNL d   1      46.627 -20.030  44.257  0.00  0.00     0.000 A 
ATOM     10  C   UNL d   1      46.544 -19.589  44.955  0.00  0.00     0.000 A 
ENDROOT
BRANCH   1  11
ATOM     11  N   UNL d   1      46.238 -18.930  42.070  0.00  0.00    -0.198 N 
ATOM     12  C   UNL d   1      46.482 -19.716  42.086  0.00  0.00     0.274 C 
ATOM     13  O   UNL d   1      46.647 -20.073  42.798  0.00  0.00    -0.266 OA
ATOM     14  C   UNL d   1      46.630 -20.330  41.533  0.00  0.00     0.067 C 
BRANCH  11  15
ATOM     15  S   UNL d   1      46.063 -18.546  41.333  0.00  0.00     0.279 S 
ATOM     16  O   UNL d   1      46.647 -17.978  41.534  0.00  0.00    -0.199 OA
ATOM     17  O   UNL d   1      45.501 -19.131  41.189  0.00  0.00    -0.199 OA
BRANCH  15  18
ATOM     18  C   UNL d   1      45.904 -18.169  40.631  0.00  0.00     0.133 A 
ATOM     19  S   UNL d   1      46.449 -17.795  40.129  0.00  0.00    -0.074 SA
ATOM     20  C   UNL d   1      46.091 -17.472  39.465  0.00  0.00     0.036 A 
ATOM     21  C   UNL d   1      45.273 -17.640  39.533  0.00  0.00     0.008 A 
ATOM     22  C   UNL d   1      45.136 -18.061  40.231  0.00  0.00     0.020 A 
ENDBRANCH  15  18
ENDBRANCH  11  15
ENDBRANCH   1  11
BRANCH   3  23
ATOM     23  O   UNL d   1      45.926 -17.228  44.924  0.00  0.00    -0.273 OA
BRANCH  23  24
ATOM     24  C   UNL d   1      45.603 -16.444  44.943  0.00  0.00     0.300 C 
ATOM     25  O   UNL d   1      44.782 -16.316  44.954  0.00  0.00    -0.259 OA
ATOM     26  C   UNL d   1      46.178 -15.690  44.955  0.00  0.00     0.074 C 
ENDBRANCH  23  24
ENDBRANCH   3  23
TORSDOF 5
ENDMDL
