MODEL 1
REMARK VINA RESULT:      46.7      0.000      0.000
REMARK  5 active torsions:
REMARK  status: ('A' for Active; 'I' for Inactive)
REMARK    1  A    between atoms: N_8  and  C_6 
REMARK    2  A    between atoms: C_7  and  O_9 
REMARK    3  A    between atoms: C_10  and  C_7 
REMARK    4  A    between atoms: O_9  and  N_8 
REMARK    5  A    between atoms: O_20  and  C_15 
ROOT
ATOM      1  O   UNL d   1     -48.801  27.224  33.325  0.00  0.00    -0.169 OA
ENDROOT
BRANCH   1   2
ATOM      2  C   UNL d   1     -49.955  26.849  33.319  0.00  0.00     0.319 C 
ATOM      3  O   UNL d   1     -50.481  27.467  33.319  0.00  0.00    -0.257 OA
BRANCH   2   4
ATOM      4  C   UNL d   1     -50.314  26.233  33.316  0.00  0.00     0.065 A 
ATOM      5  C   UNL d   1     -51.019  26.238  33.313  0.00  0.00     0.007 A 
ATOM      6  C   UNL d   1     -51.374  25.627  33.310  0.00  0.00     0.024 A 
ATOM      7  C   UNL d   1     -51.014  25.014  33.309  0.00  0.00     0.094 A 
ATOM      8  C   UNL d   1     -50.306  25.015  33.311  0.00  0.00     0.024 A 
ATOM      9  C   UNL d   1     -49.954  25.619  33.315  0.00  0.00     0.007 A 
BRANCH   7  10
ATOM     10  O   UNL d   1     -51.372  24.396  33.306  0.00  0.00    -0.328 OA
ATOM     11  C   UNL d   1     -52.282  24.091  33.317  0.00  0.00     0.181 C 
ENDBRANCH   7  10
ENDBRANCH   2   4
ENDBRANCH   1   2
BRANCH   1  12
ATOM     12  N   UNL d   1     -49.166  28.049  34.265  0.00  0.00    -0.123 NA
BRANCH  12  13
ATOM     13  C   UNL d   1     -48.685  28.549  34.720  0.00  0.00     0.108 A 
ATOM     14  C   UNL d   1     -48.254  29.142  34.343  0.00  0.00     0.025 A 
ATOM     15  C   UNL d   1     -47.769  29.650  34.785  0.00  0.00     0.041 A 
ATOM     16  C   UNL d   1     -47.719  29.558  35.618  0.00  0.00     0.196 A 
ATOM     17  C   UNL d   1     -47.328  30.253  34.416  0.00  0.00     0.003 C 
ATOM     18  C   UNL d   1     -48.158  28.956  35.988  0.00  0.00     0.041 A 
ATOM     19  O   UNL d   1     -47.235  30.062  36.068  0.00  0.00    -0.287 OA
ATOM     20  C   UNL d   1     -48.643  28.448  35.545  0.00  0.00     0.025 A 
ATOM     21  C   UNL d   1     -48.110  28.863  36.811  0.00  0.00     0.003 C 
ENDBRANCH  12  13
ENDBRANCH   1  12
TORSDOF 5
ENDMDL
MODEL 2
REMARK VINA RESULT:      47.9      1.079      5.293
REMARK  5 active torsions:
REMARK  status: ('A' for Active; 'I' for Inactive)
REMARK    1  A    between atoms: N_8  and  C_6 
REMARK    2  A    between atoms: C_7  and  O_9 
REMARK    3  A    between atoms: C_10  and  C_7 
REMARK    4  A    between atoms: O_9  and  N_8 
REMARK    5  A    between atoms: O_20  and  C_15 
ROOT
ATOM      1  O   UNL d   1     -49.254  26.068  34.083  0.00  0.00    -0.169 OA
ENDROOT
BRANCH   1   2
ATOM      2  C   UNL d   1     -49.337  27.276  34.164  0.00  0.00     0.319 C 
ATOM      3  O   UNL d   1     -50.017  27.562  33.826  0.00  0.00    -0.257 OA
BRANCH   2   4
ATOM      4  C   UNL d   1     -48.956  27.818  34.427  0.00  0.00     0.065 A 
ATOM      5  C   UNL d   1     -49.141  28.482  34.276  0.00  0.00     0.007 A 
ATOM      6  C   UNL d   1     -48.763  29.019  34.536  0.00  0.00     0.024 A 
ATOM      7  C   UNL d   1     -48.200  28.883  34.949  0.00  0.00     0.094 A 
ATOM      8  C   UNL d   1     -48.020  28.215  35.098  0.00  0.00     0.024 A 
ATOM      9  C   UNL d   1     -48.393  27.683  34.840  0.00  0.00     0.007 A 
BRANCH   7  10
ATOM     10  O   UNL d   1     -47.819  29.426  35.213  0.00  0.00    -0.328 OA
ATOM     11  C   UNL d   1     -47.564  29.781  36.067  0.00  0.00     0.181 C 
ENDBRANCH   7  10
ENDBRANCH   2   4
ENDBRANCH   1   2
BRANCH   1  12
ATOM     12  N   UNL d   1     -50.391  26.121  33.451  0.00  0.00    -0.123 NA
BRANCH  12  13
ATOM     13  C   UNL d   1     -50.982  25.539  33.415  0.00  0.00     0.108 A 
ATOM     14  C   UNL d   1     -51.774  25.772  33.409  0.00  0.00     0.025 A 
ATOM     15  C   UNL d   1     -52.375  25.201  33.373  0.00  0.00     0.041 A 
ATOM     16  C   UNL d   1     -52.175  24.386  33.342  0.00  0.00     0.196 A 
ATOM     17  C   UNL d   1     -53.178  25.423  33.367  0.00  0.00     0.003 C 
ATOM     18  C   UNL d   1     -51.374  24.163  33.348  0.00  0.00     0.041 A 
ATOM     19  O   UNL d   1     -52.772  23.809  33.306  0.00  0.00    -0.287 OA
ATOM     20  C   UNL d   1     -50.772  24.734  33.384  0.00  0.00     0.025 A 
ATOM     21  C   UNL d   1     -51.174  23.358  33.318  0.00  0.00     0.003 C 
ENDBRANCH  12  13
ENDBRANCH   1  12
TORSDOF 5
ENDMDL
MODEL 3
REMARK VINA RESULT:      49.1      0.941      5.212
REMARK  5 active torsions:
REMARK  status: ('A' for Active; 'I' for Inactive)
REMARK    1  A    between atoms: N_8  and  C_6 
REMARK    2  A    between atoms: C_7  and  O_9 
REMARK    3  A    between atoms: C_10  and  C_7 
REMARK    4  A    between atoms: O_9  and  N_8 
REMARK    5  A    between atoms: O_20  and  C_15 
ROOT
ATOM      1  O   UNL d   1     -48.337  27.292  34.599  0.00  0.00    -0.169 OA
ENDROOT
BRANCH   1   2
ATOM      2  C   UNL d   1     -48.467  28.497  34.628  0.00  0.00     0.319 C 
ATOM      3  O   UNL d   1     -49.075  28.754  34.156  0.00  0.00    -0.257 OA
BRANCH   2   4
ATOM      4  C   UNL d   1     -48.160  29.057  34.945  0.00  0.00     0.065 A 
ATOM      5  C   UNL d   1     -47.821  28.971  35.557  0.00  0.00     0.007 A 
ATOM      6  C   UNL d   1     -47.516  29.526  35.871  0.00  0.00     0.024 A 
ATOM      7  C   UNL d   1     -47.557  30.167  35.564  0.00  0.00     0.094 A 
ATOM      8  C   UNL d   1     -47.900  30.247  34.950  0.00  0.00     0.024 A 
ATOM      9  C   UNL d   1     -48.201  29.698  34.639  0.00  0.00     0.007 A 
BRANCH   7  10
ATOM     10  O   UNL d   1     -47.250  30.727  35.882  0.00  0.00    -0.328 OA
ATOM     11  C   UNL d   1     -47.000  31.629  35.669  0.00  0.00     0.181 C 
ENDBRANCH   7  10
ENDBRANCH   2   4
ENDBRANCH   1   2
BRANCH   1  12
ATOM     12  N   UNL d   1     -49.237  27.306  33.658  0.00  0.00    -0.123 NA
BRANCH  12  13
ATOM     13  C   UNL d   1     -49.891  26.803  33.570  0.00  0.00     0.108 A 
ATOM     14  C   UNL d   1     -50.650  27.127  33.571  0.00  0.00     0.025 A 
ATOM     15  C   UNL d   1     -51.313  26.635  33.484  0.00  0.00     0.041 A 
ATOM     16  C   UNL d   1     -51.210  25.807  33.394  0.00  0.00     0.196 A 
ATOM     17  C   UNL d   1     -52.084  26.951  33.483  0.00  0.00     0.003 C 
ATOM     18  C   UNL d   1     -50.440  25.491  33.394  0.00  0.00     0.041 A 
ATOM     19  O   UNL d   1     -51.869  25.309  33.306  0.00  0.00    -0.287 OA
ATOM     20  C   UNL d   1     -49.777  25.983  33.481  0.00  0.00     0.025 A 
ATOM     21  C   UNL d   1     -50.335  24.673  33.305  0.00  0.00     0.003 C 
ENDBRANCH  12  13
ENDBRANCH   1  12
TORSDOF 5
ENDMDL
