MODEL 1
REMARK VINA RESULT:     -10.5      0.000      0.000
REMARK  5 active torsions:
REMARK  status: ('A' for Active; 'I' for Inactive)
REMARK    1  A    between atoms: N_6  and  S_1 
REMARK    2  A    between atoms: C_8  and  S_1 
REMARK    3  A    between atoms: C_12  and  C_3 
REMARK    4  A    between atoms: C_4  and  C_11 
REMARK    5  A    between atoms: C_15  and  N_6 
ROOT
ATOM      1  C   UNL d   1      50.551  34.415  52.612  0.00  0.00     0.018 A 
ATOM      2  C   UNL d   1      52.063  33.825  52.890  0.00  0.00     0.094 A 
ATOM      3  C   UNL d   1      50.773  34.177  53.373  0.00  0.00     0.003 A 
ATOM      4  C   UNL d   1      51.092  34.356  51.991  0.00  0.00     0.003 A 
ATOM      5  C   UNL d   1      51.529  33.882  53.511  0.00  0.00     0.020 A 
ATOM      6  C   UNL d   1      51.842  34.063  52.129  0.00  0.00     0.020 A 
ENDROOT
BRANCH   1   7
ATOM      7  C   UNL d   1      49.795  34.710  52.473  0.00  0.00     0.088 A 
ATOM      8  N   UNL d   1      48.942  35.613  53.140  0.00  0.00    -0.239 NA
ATOM      9  C   UNL d   1      48.373  35.505  52.561  0.00  0.00     0.111 A 
ATOM     10  S   UNL d   1      48.515  35.001  51.938  0.00  0.00    -0.066 SA
ATOM     11  C   UNL d   1      49.231  34.597  51.890  0.00  0.00     0.056 A 
BRANCH   9  12
ATOM     12  C   UNL d   1      47.658  35.907  52.606  0.00  0.00     0.024 A 
ATOM     13  C   UNL d   1      47.172  35.943  51.944  0.00  0.00     0.002 A 
ATOM     14  C   UNL d   1      46.457  36.347  51.995  0.00  0.00     0.000 A 
ATOM     15  C   UNL d   1      46.227  36.709  52.695  0.00  0.00     0.000 A 
ATOM     16  C   UNL d   1      46.721  36.668  53.358  0.00  0.00     0.000 A 
ATOM     17  C   UNL d   1      47.444  36.262  53.311  0.00  0.00     0.002 A 
ENDBRANCH   9  12
ENDBRANCH   1   7
BRANCH   2  18
ATOM     18  N   UNL d   1      52.826  33.529  53.023  0.00  0.00    -0.158 NA
BRANCH  18  19
ATOM     19  S   UNL d   1      52.938  32.728  53.147  0.00  0.00     0.285 S 
ATOM     20  O   UNL d   1      52.783  32.193  52.537  0.00  0.00    -0.198 OA
ATOM     21  O   UNL d   1      53.206  32.451  53.880  0.00  0.00    -0.198 OA
BRANCH  19  22
ATOM     22  C   UNL d   1      53.051  31.920  53.271  0.00  0.00     0.105 A 
ATOM     23  C   UNL d   1      52.658  31.366  52.797  0.00  0.00     0.013 A 
ATOM     24  C   UNL d   1      52.765  30.560  52.912  0.00  0.00     0.001 A 
ATOM     25  C   UNL d   1      53.277  30.302  53.518  0.00  0.00     0.000 A 
ATOM     26  C   UNL d   1      53.673  30.848  53.995  0.00  0.00     0.001 A 
ATOM     27  C   UNL d   1      53.392  29.485  53.644  0.00  0.00     0.000 C 
ATOM     28  C   UNL d   1      53.558  31.661  53.870  0.00  0.00     0.013 A 
ENDBRANCH  19  22
ENDBRANCH  18  19
ENDBRANCH   2  18
TORSDOF 5
ENDMDL
MODEL 2
REMARK VINA RESULT:      -8.5      2.242      6.487
REMARK  5 active torsions:
REMARK  status: ('A' for Active; 'I' for Inactive)
REMARK    1  A    between atoms: N_6  and  S_1 
REMARK    2  A    between atoms: C_8  and  S_1 
REMARK    3  A    between atoms: C_12  and  C_3 
REMARK    4  A    between atoms: C_4  and  C_11 
REMARK    5  A    between atoms: C_15  and  N_6 
ROOT
ATOM      1  C   UNL d   1      49.961  34.504  52.549  0.00  0.00     0.018 A 
ATOM      2  C   UNL d   1      48.702  35.372  51.936  0.00  0.00     0.094 A 
ATOM      3  C   UNL d   1      49.603  35.098  53.002  0.00  0.00     0.003 A 
ATOM      4  C   UNL d   1      49.684  34.349  51.787  0.00  0.00     0.003 A 
ATOM      5  C   UNL d   1      48.974  35.531  52.695  0.00  0.00     0.020 A 
ATOM      6  C   UNL d   1      49.059  34.779  51.483  0.00  0.00     0.020 A 
ENDROOT
BRANCH   1   7
ATOM      7  C   UNL d   1      50.589  34.071  52.856  0.00  0.00     0.088 A 
ATOM      8  N   UNL d   1      51.965  34.313  53.046  0.00  0.00    -0.239 NA
ATOM      9  C   UNL d   1      52.053  33.565  53.367  0.00  0.00     0.111 A 
ATOM     10  S   UNL d   1      51.411  33.070  53.433  0.00  0.00    -0.066 SA
ATOM     11  C   UNL d   1      50.669  33.321  53.176  0.00  0.00     0.056 A 
BRANCH   9  12
ATOM     12  C   UNL d   1      52.791  33.312  53.624  0.00  0.00     0.024 A 
ATOM     13  C   UNL d   1      53.098  33.607  54.328  0.00  0.00     0.002 A 
ATOM     14  C   UNL d   1      53.837  33.350  54.580  0.00  0.00     0.000 A 
ATOM     15  C   UNL d   1      54.268  32.807  54.140  0.00  0.00     0.000 A 
ATOM     16  C   UNL d   1      53.953  32.514  53.432  0.00  0.00     0.000 A 
ATOM     17  C   UNL d   1      53.207  32.770  53.173  0.00  0.00     0.002 A 
ENDBRANCH   9  12
ENDBRANCH   1   7
BRANCH   2  18
ATOM     18  N   UNL d   1      48.069  35.805  51.621  0.00  0.00    -0.158 NA
BRANCH  18  19
ATOM     19  S   UNL d   1      47.325  35.746  51.957  0.00  0.00     0.285 S 
ATOM     20  O   UNL d   1      46.879  35.059  51.847  0.00  0.00    -0.198 OA
ATOM     21  O   UNL d   1      47.017  36.370  52.406  0.00  0.00    -0.198 OA
BRANCH  19  22
ATOM     22  C   UNL d   1      46.575  35.685  52.295  0.00  0.00     0.105 A 
ATOM     23  C   UNL d   1      45.946  35.368  51.861  0.00  0.00     0.013 A 
ATOM     24  C   UNL d   1      45.196  35.303  52.189  0.00  0.00     0.001 A 
ATOM     25  C   UNL d   1      45.073  35.562  52.973  0.00  0.00     0.000 A 
ATOM     26  C   UNL d   1      45.696  35.879  53.413  0.00  0.00     0.001 A 
ATOM     27  C   UNL d   1      44.315  35.501  53.317  0.00  0.00     0.000 C 
ATOM     28  C   UNL d   1      46.451  35.941  53.072  0.00  0.00     0.013 A 
ENDBRANCH  19  22
ENDBRANCH  18  19
ENDBRANCH   2  18
TORSDOF 5
ENDMDL
