MODEL 1
REMARK VINA RESULT:       0.9      0.000      0.000
REMARK  6 active torsions:
REMARK  status: ('A' for Active; 'I' for Inactive)
REMARK    1  A    between atoms: C_3  and  N_1 
REMARK       I    between atoms: C_4  and  N_1 
REMARK    2  A    between atoms: C_6  and  N_1 
REMARK    3  A    between atoms: N_2  and  C_3 
REMARK    4  A    between atoms: C_7  and  C_4 
REMARK    5  A    between atoms: O_14  and  C_16 
REMARK    6  A    between atoms: C_24  and  O_14 
ROOT
ATOM      1  N   UNL d   1      32.763  20.201 -22.438  0.00  0.00    -0.258 N 
ATOM      2  C   UNL d   1      32.449  19.440 -22.341  0.00  0.00     0.266 C 
ATOM      3  O   UNL d   1      32.027  19.248 -21.722  0.00  0.00    -0.267 OA
ENDROOT
BRANCH   1   4
ATOM      4  C   UNL d   1      33.212  20.389 -23.107  0.00  0.00     0.171 C 
BRANCH   4   5
ATOM      5  N   UNL d   1      33.169  21.039 -23.615  0.00  0.00    -0.257 N 
ATOM      6  C   UNL d   1      33.080  21.025 -24.434  0.00  0.00     0.266 A 
ATOM      7  O   UNL d   1      33.015  20.342 -24.904  0.00  0.00    -0.267 OA
ATOM      8  C   UNL d   1      33.065  21.811 -24.713  0.00  0.00     0.063 A 
ATOM      9  C   UNL d   1      33.145  22.312 -24.060  0.00  0.00     0.024 A 
ATOM     10  C   UNL d   1      33.210  21.847 -23.380  0.00  0.00     0.085 A 
ENDBRANCH   4   5
ENDBRANCH   1   4
BRANCH   1  11
ATOM     11  C   UNL d   1      32.627  20.782 -21.862  0.00  0.00     0.068 A 
ATOM     12  C   UNL d   1      31.877  21.134 -21.795  0.00  0.00     0.018 A 
ATOM     13  C   UNL d   1      31.759  21.706 -21.220  0.00  0.00     0.002 A 
ATOM     14  C   UNL d   1      32.360  21.931 -20.720  0.00  0.00     0.000 A 
ATOM     15  C   UNL d   1      33.099  21.584 -20.786  0.00  0.00     0.002 A 
ATOM     16  C   UNL d   1      32.232  22.508 -20.144  0.00  0.00     0.000 C 
ATOM     17  C   UNL d   1      33.240  21.011 -21.352  0.00  0.00     0.018 A 
ENDBRANCH   1  11
BRANCH   2  18
ATOM     18  C   UNL d   1      32.592  18.873 -22.920  0.00  0.00     0.057 A 
ATOM     19  C   UNL d   1      32.291  18.974 -23.680  0.00  0.00     0.007 A 
ATOM     20  C   UNL d   1      32.429  18.415 -24.261  0.00  0.00     0.025 A 
ATOM     21  C   UNL d   1      32.874  17.741 -24.087  0.00  0.00     0.100 A 
ATOM     22  C   UNL d   1      33.180  17.639 -23.312  0.00  0.00     0.025 A 
ATOM     23  C   UNL d   1      33.036  18.202 -22.741  0.00  0.00     0.007 A 
BRANCH  21  24
ATOM     24  O   UNL d   1      33.011  17.189 -24.658  0.00  0.00    -0.307 OA
BRANCH  24  25
ATOM     25  C   UNL d   1      32.993  16.382 -24.476  0.00  0.00     0.100 C 
ATOM     26  C   UNL d   1      32.837  15.836 -25.072  0.00  0.00     0.027 C 
ATOM     27  C   UNL d   1      33.130  16.124 -23.705  0.00  0.00     0.027 C 
ENDBRANCH  24  25
ENDBRANCH  21  24
ENDBRANCH   2  18
TORSDOF 6
ENDMDL
MODEL 2
REMARK VINA RESULT:       1.2      1.675      4.686
REMARK  6 active torsions:
REMARK  status: ('A' for Active; 'I' for Inactive)
REMARK    1  A    between atoms: C_3  and  N_1 
REMARK       I    between atoms: C_4  and  N_1 
REMARK    2  A    between atoms: C_6  and  N_1 
REMARK    3  A    between atoms: N_2  and  C_3 
REMARK    4  A    between atoms: C_7  and  C_4 
REMARK    5  A    between atoms: O_14  and  C_16 
REMARK    6  A    between atoms: C_24  and  O_14 
ROOT
ATOM      1  N   UNL d   1      31.879  18.425 -23.512  0.00  0.00    -0.258 N 
ATOM      2  C   UNL d   1      32.596  18.696 -23.195  0.00  0.00     0.266 C 
ATOM      3  O   UNL d   1      33.241  18.270 -23.222  0.00  0.00    -0.267 OA
ENDROOT
BRANCH   1   4
ATOM      4  C   UNL d   1      31.199  18.894 -23.475  0.00  0.00     0.171 C 
BRANCH   4   5
ATOM      5  N   UNL d   1      30.548  18.935 -23.981  0.00  0.00    -0.257 N 
ATOM      6  C   UNL d   1      29.757  18.806 -23.788  0.00  0.00     0.266 A 
ATOM      7  O   UNL d   1      29.468  18.609 -23.034  0.00  0.00    -0.267 OA
ATOM      8  C   UNL d   1      29.296  18.907 -24.475  0.00  0.00     0.063 A 
ATOM      9  C   UNL d   1      29.806  19.099 -25.097  0.00  0.00     0.024 A 
ATOM     10  C   UNL d   1      30.579  19.118 -24.803  0.00  0.00     0.085 A 
ENDBRANCH   4   5
ENDBRANCH   1   4
BRANCH   1  11
ATOM     11  C   UNL d   1      31.840  17.679 -23.871  0.00  0.00     0.068 A 
ATOM     12  C   UNL d   1      32.136  17.571 -24.640  0.00  0.00     0.018 A 
ATOM     13  C   UNL d   1      32.091  16.827 -24.981  0.00  0.00     0.002 A 
ATOM     14  C   UNL d   1      31.763  16.199 -24.579  0.00  0.00     0.000 A 
ATOM     15  C   UNL d   1      31.471  16.305 -23.821  0.00  0.00     0.002 A 
ATOM     16  C   UNL d   1      31.722  15.454 -24.931  0.00  0.00     0.000 C 
ATOM     17  C   UNL d   1      31.507  17.039 -23.462  0.00  0.00     0.018 A 
ENDBRANCH   1  11
BRANCH   2  18
ATOM     18  C   UNL d   1      32.620  19.438 -22.842  0.00  0.00     0.057 A 
ATOM     19  C   UNL d   1      32.475  19.518 -22.036  0.00  0.00     0.007 A 
ATOM     20  C   UNL d   1      32.497  20.253 -21.678  0.00  0.00     0.025 A 
ATOM     21  C   UNL d   1      32.667  20.925 -22.128  0.00  0.00     0.100 A 
ATOM     22  C   UNL d   1      32.815  20.844 -22.950  0.00  0.00     0.025 A 
ATOM     23  C   UNL d   1      32.790  20.106 -23.295  0.00  0.00     0.007 A 
BRANCH  21  24
ATOM     24  O   UNL d   1      32.690  21.651 -21.777  0.00  0.00    -0.307 OA
BRANCH  24  25
ATOM     25  C   UNL d   1      32.446  21.746 -20.992  0.00  0.00     0.100 C 
ATOM     26  C   UNL d   1      31.708  21.466 -20.760  0.00  0.00     0.027 C 
ATOM     27  C   UNL d   1      32.938  22.120 -20.445  0.00  0.00     0.027 C 
ENDBRANCH  24  25
ENDBRANCH  21  24
ENDBRANCH   2  18
TORSDOF 6
ENDMDL
