MODEL 1
REMARK VINA RESULT:      28.4      0.000      0.000
REMARK  3 active torsions:
REMARK  status: ('A' for Active; 'I' for Inactive)
REMARK    1  A    between atoms: C_4  and  S_13 
REMARK    2  A    between atoms: C_16  and  C_6 
REMARK    3  A    between atoms: S_13  and  C_16 
ROOT
ATOM      1  C   UNL d   1     -55.263 -98.959 -44.428  0.00  0.00     0.059 C 
ENDROOT
BRANCH   1   2
ATOM      2  S   UNL d   1     -55.860 -98.756 -44.935  0.00  0.00    -0.046 SA
BRANCH   2   3
ATOM      3  C   UNL d   1     -56.637 -98.756 -44.659  0.00  0.00     0.194 A 
ATOM      4  N   UNL d   1     -56.968 -98.755 -43.904  0.00  0.00    -0.220 NA
ATOM      5  C   UNL d   1     -57.782 -98.756 -43.982  0.00  0.00     0.101 A 
ATOM      6  C   UNL d   1     -58.378 -98.755 -43.422  0.00  0.00     0.021 A 
ATOM      7  C   UNL d   1     -57.957 -98.756 -44.760  0.00  0.00     0.101 A 
ATOM      8  C   UNL d   1     -59.162 -98.756 -43.640  0.00  0.00     0.002 A 
ATOM      9  C   UNL d   1     -59.370 -98.756 -44.449  0.00  0.00     0.002 A 
ATOM     10  C   UNL d   1     -58.747 -98.757 -45.022  0.00  0.00     0.021 A 
ATOM     11  N   UNL d   1     -57.257 -98.756 -45.216  0.00  0.00    -0.220 NA
ENDBRANCH   2   3
ENDBRANCH   1   2
BRANCH   1  12
ATOM     12  C   UNL d   1     -55.144 -99.743 -44.240  0.00  0.00     0.107 A 
ATOM     13  C   UNL d   1     -55.018-100.357 -44.759  0.00  0.00     0.101 A 
ATOM     14  N   UNL d   1     -54.922-101.067 -44.356  0.00  0.00    -0.289 N 
ATOM     15  C   UNL d   1     -54.990-100.890 -43.549  0.00  0.00     0.148 A 
ATOM     16  C   UNL d   1     -54.782-101.857 -44.592  0.00  0.00     0.066 A 
ATOM     17  N   UNL d   1     -55.128-100.072 -43.467  0.00  0.00    -0.226 NA
ATOM     18  C   UNL d   1     -54.919-101.489 -42.986  0.00  0.00     0.037 A 
ATOM     19  C   UNL d   1     -54.779-102.275 -43.230  0.00  0.00     0.005 A 
ATOM     20  C   UNL d   1     -54.711-102.452 -44.037  0.00  0.00     0.018 A 
ATOM     21  C   UNL d   1     -54.714-102.030 -45.406  0.00  0.00     0.019 C 
ENDBRANCH   1  12
TORSDOF 3
ENDMDL
