MODEL 1
REMARK VINA RESULT:      -3.0      0.000      0.000
REMARK  5 active torsions:
REMARK  status: ('A' for Active; 'I' for Inactive)
REMARK    1  A    between atoms: N_2  and  S_1 
REMARK    2  A    between atoms: C_7  and  S_1 
REMARK    3  A    between atoms: C_3  and  N_2 
REMARK       I    between atoms: C_11  and  N_12 
REMARK    4  A    between atoms: C_19  and  C_11 
REMARK    5  A    between atoms: N_12  and  C_16 
ROOT
ATOM      1  C   UNL d   1      31.449  16.698 -24.101  0.00  0.00     0.105 A 
ATOM      2  C   UNL d   1      30.925  16.886 -24.717  0.00  0.00     0.015 A 
ATOM      3  C   UNL d   1      31.275  16.141 -23.559  0.00  0.00     0.015 A 
ATOM      4  C   UNL d   1      30.018  15.929 -24.238  0.00  0.00     0.085 A 
ATOM      5  C   UNL d   1      30.214  16.498 -24.777  0.00  0.00     0.020 A 
ATOM      6  C   UNL d   1      30.544  15.742 -23.622  0.00  0.00     0.020 A 
ENDROOT
BRANCH   1   7
ATOM      7  S   UNL d   1      32.184  17.107 -24.048  0.00  0.00     0.287 S 
ATOM      8  O   UNL d   1      32.372  16.696 -23.326  0.00  0.00    -0.198 OA
ATOM      9  O   UNL d   1      32.008  17.509 -24.746  0.00  0.00    -0.198 OA
BRANCH   7  10
ATOM     10  N   UNL d   1      32.909  17.514 -24.000  0.00  0.00    -0.137 NA
BRANCH  10  11
ATOM     11  C   UNL d   1      32.953  18.250 -23.608  0.00  0.00     0.203 A 
ATOM     12  N   UNL d   1      32.977  18.934 -24.054  0.00  0.00    -0.106 NA
ATOM     13  O   UNL d   1      33.019  19.562 -23.509  0.00  0.00    -0.210 OA
ATOM     14  C   UNL d   1      33.020  19.257 -22.756  0.00  0.00     0.128 A 
ATOM     15  C   UNL d   1      32.978  18.422 -22.811  0.00  0.00     0.069 A 
ATOM     16  C   UNL d   1      33.056  19.692 -22.058  0.00  0.00     0.029 C 
ENDBRANCH  10  11
ENDBRANCH   7  10
ENDBRANCH   1   7
BRANCH   4  17
ATOM     17  N   UNL d   1      29.290  15.526 -24.293  0.00  0.00    -0.208 NA
ATOM     18  C   UNL d   1      28.614  15.853 -23.969  0.00  0.00     0.279 C 
ATOM     19  O   UNL d   1      27.891  15.453 -24.024  0.00  0.00    -0.265 OA
BRANCH  18  20
ATOM     20  C   UNL d   1      28.656  16.575 -23.591  0.00  0.00     0.062 C 
ATOM     21  C   UNL d   1      27.965  16.928 -23.264  0.00  0.00     0.005 C 
ENDBRANCH  18  20
ENDBRANCH   4  17
TORSDOF 5
ENDMDL
MODEL 2
REMARK VINA RESULT:      -1.8      0.776      1.161
REMARK  5 active torsions:
REMARK  status: ('A' for Active; 'I' for Inactive)
REMARK    1  A    between atoms: N_2  and  S_1 
REMARK    2  A    between atoms: C_7  and  S_1 
REMARK    3  A    between atoms: C_3  and  N_2 
REMARK       I    between atoms: C_11  and  N_12 
REMARK    4  A    between atoms: C_19  and  C_11 
REMARK    5  A    between atoms: N_12  and  C_16 
ROOT
ATOM      1  C   UNL d   1      31.740  17.160 -24.078  0.00  0.00     0.105 A 
ATOM      2  C   UNL d   1      31.563  16.527 -23.571  0.00  0.00     0.015 A 
ATOM      3  C   UNL d   1      31.306  17.309 -24.729  0.00  0.00     0.015 A 
ATOM      4  C   UNL d   1      30.480  16.174 -24.389  0.00  0.00     0.085 A 
ATOM      5  C   UNL d   1      30.933  16.041 -23.734  0.00  0.00     0.020 A 
ATOM      6  C   UNL d   1      30.658  16.809 -24.895  0.00  0.00     0.020 A 
ENDROOT
BRANCH   1   7
ATOM      7  S   UNL d   1      32.396  17.658 -23.900  0.00  0.00     0.287 S 
ATOM      8  O   UNL d   1      32.263  18.106 -24.612  0.00  0.00    -0.198 OA
ATOM      9  O   UNL d   1      32.531  17.229 -23.209  0.00  0.00    -0.198 OA
BRANCH   7  10
ATOM     10  N   UNL d   1      33.045  18.148 -23.720  0.00  0.00    -0.137 NA
BRANCH  10  11
ATOM     11  C   UNL d   1      32.987  18.714 -23.109  0.00  0.00     0.203 A 
ATOM     12  N   UNL d   1      33.183  18.496 -22.347  0.00  0.00    -0.106 NA
ATOM     13  O   UNL d   1      33.069  19.174 -21.877  0.00  0.00    -0.210 OA
ATOM     14  C   UNL d   1      32.811  19.782 -22.351  0.00  0.00     0.128 A 
ATOM     15  C   UNL d   1      32.756  19.497 -23.136  0.00  0.00     0.069 A 
ATOM     16  C   UNL d   1      32.633  20.546 -22.102  0.00  0.00     0.029 C 
ENDBRANCH  10  11
ENDBRANCH   7  10
ENDBRANCH   1   7
BRANCH   4  17
ATOM     17  N   UNL d   1      29.831  15.680 -24.562  0.00  0.00    -0.208 NA
ATOM     18  C   UNL d   1      29.067  15.951 -24.455  0.00  0.00     0.279 C 
ATOM     19  O   UNL d   1      28.423  15.460 -24.628  0.00  0.00    -0.265 OA
BRANCH  18  20
ATOM     20  C   UNL d   1      28.943  16.708 -24.178  0.00  0.00     0.062 C 
ATOM     21  C   UNL d   1      28.342  16.863 -23.609  0.00  0.00     0.005 C 
ENDBRANCH  18  20
ENDBRANCH   4  17
TORSDOF 5
ENDMDL
MODEL 3
REMARK VINA RESULT:      -1.8      1.472      2.118
REMARK  5 active torsions:
REMARK  status: ('A' for Active; 'I' for Inactive)
REMARK    1  A    between atoms: N_2  and  S_1 
REMARK    2  A    between atoms: C_7  and  S_1 
REMARK    3  A    between atoms: C_3  and  N_2 
REMARK       I    between atoms: C_11  and  N_12 
REMARK    4  A    between atoms: C_19  and  C_11 
REMARK    5  A    between atoms: N_12  and  C_16 
ROOT
ATOM      1  C   UNL d   1      32.464  18.308 -23.664  0.00  0.00     0.105 A 
ATOM      2  C   UNL d   1      31.901  18.401 -24.267  0.00  0.00     0.015 A 
ATOM      3  C   UNL d   1      32.647  17.591 -23.371  0.00  0.00     0.015 A 
ATOM      4  C   UNL d   1      31.693  17.015 -24.289  0.00  0.00     0.085 A 
ATOM      5  C   UNL d   1      31.522  17.752 -24.572  0.00  0.00     0.020 A 
ATOM      6  C   UNL d   1      32.257  16.923 -23.686  0.00  0.00     0.020 A 
ENDROOT
BRANCH   1   7
ATOM      7  S   UNL d   1      32.852  18.988 -23.354  0.00  0.00     0.287 S 
ATOM      8  O   UNL d   1      33.162  18.531 -22.708  0.00  0.00    -0.198 OA
ATOM      9  O   UNL d   1      32.554  19.438 -23.978  0.00  0.00    -0.198 OA
BRANCH   7  10
ATOM     10  N   UNL d   1      33.233  19.665 -23.052  0.00  0.00    -0.137 NA
BRANCH  10  11
ATOM     11  C   UNL d   1      32.988  19.997 -22.326  0.00  0.00     0.203 A 
ATOM     12  N   UNL d   1      33.104  19.573 -21.638  0.00  0.00    -0.106 NA
ATOM     13  O   UNL d   1      32.805  20.048 -21.023  0.00  0.00    -0.210 OA
ATOM     14  C   UNL d   1      32.517  20.738 -21.340  0.00  0.00     0.128 A 
ATOM     15  C   UNL d   1      32.630  20.713 -22.169  0.00  0.00     0.069 A 
ATOM     16  C   UNL d   1      32.174  21.357 -20.919  0.00  0.00     0.029 C 
ENDBRANCH  10  11
ENDBRANCH   7  10
ENDBRANCH   1   7
BRANCH   4  17
ATOM     17  N   UNL d   1      31.308  16.343 -24.598  0.00  0.00    -0.208 NA
ATOM     18  C   UNL d   1      30.576  16.120 -24.309  0.00  0.00     0.279 C 
ATOM     19  O   UNL d   1      30.193  15.453 -24.616  0.00  0.00    -0.265 OA
BRANCH  18  20
ATOM     20  C   UNL d   1      30.225  16.559 -23.718  0.00  0.00     0.062 C 
ATOM     21  C   UNL d   1      29.481  16.329 -23.398  0.00  0.00     0.005 C 
ENDBRANCH  18  20
ENDBRANCH   4  17
TORSDOF 5
ENDMDL
MODEL 4
REMARK VINA RESULT:      -1.7      1.244      4.415
REMARK  5 active torsions:
REMARK  status: ('A' for Active; 'I' for Inactive)
REMARK    1  A    between atoms: N_2  and  S_1 
REMARK    2  A    between atoms: C_7  and  S_1 
REMARK    3  A    between atoms: C_3  and  N_2 
REMARK       I    between atoms: C_11  and  N_12 
REMARK    4  A    between atoms: C_19  and  C_11 
REMARK    5  A    between atoms: N_12  and  C_16 
ROOT
ATOM      1  C   UNL d   1      31.131  16.835 -24.341  0.00  0.00     0.105 A 
ATOM      2  C   UNL d   1      31.825  16.762 -24.790  0.00  0.00     0.015 A 
ATOM      3  C   UNL d   1      30.836  17.547 -24.141  0.00  0.00     0.015 A 
ATOM      4  C   UNL d   1      31.938  18.159 -24.846  0.00  0.00     0.085 A 
ATOM      5  C   UNL d   1      32.221  17.427 -25.038  0.00  0.00     0.020 A 
ATOM      6  C   UNL d   1      31.243  18.230 -24.396  0.00  0.00     0.020 A 
ENDROOT
BRANCH   1   7
ATOM      7  S   UNL d   1      30.730  16.140 -24.089  0.00  0.00     0.287 S 
ATOM      8  O   UNL d   1      30.623  15.895 -24.897  0.00  0.00    -0.198 OA
ATOM      9  O   UNL d   1      30.829  16.370 -23.303  0.00  0.00    -0.198 OA
BRANCH   7  10
ATOM     10  N   UNL d   1      30.333  15.453 -23.834  0.00  0.00    -0.137 NA
BRANCH  10  11
ATOM     11  C   UNL d   1      29.518  15.481 -23.652  0.00  0.00     0.203 A 
ATOM     12  N   UNL d   1      29.289  15.547 -22.872  0.00  0.00    -0.106 NA
ATOM     13  O   UNL d   1      28.456  15.560 -22.876  0.00  0.00    -0.210 OA
ATOM     14  C   UNL d   1      28.197  15.504 -23.644  0.00  0.00     0.128 A 
ATOM     15  C   UNL d   1      28.867  15.453 -24.144  0.00  0.00     0.069 A 
ATOM     16  C   UNL d   1      27.412  15.497 -23.890  0.00  0.00     0.029 C 
ENDBRANCH  10  11
ENDBRANCH   7  10
ENDBRANCH   1   7
BRANCH   4  17
ATOM     17  N   UNL d   1      32.338  18.847 -25.097  0.00  0.00    -0.208 NA
ATOM     18  C   UNL d   1      32.827  19.249 -24.580  0.00  0.00     0.279 C 
ATOM     19  O   UNL d   1      33.224  19.932 -24.828  0.00  0.00    -0.265 OA
BRANCH  18  20
ATOM     20  C   UNL d   1      32.921  18.974 -23.817  0.00  0.00     0.062 C 
ATOM     21  C   UNL d   1      33.240  19.472 -23.218  0.00  0.00     0.005 C 
ENDBRANCH  18  20
ENDBRANCH   4  17
TORSDOF 5
ENDMDL
MODEL 5
REMARK VINA RESULT:      -1.7      1.682      4.819
REMARK  5 active torsions:
REMARK  status: ('A' for Active; 'I' for Inactive)
REMARK    1  A    between atoms: N_2  and  S_1 
REMARK    2  A    between atoms: C_7  and  S_1 
REMARK    3  A    between atoms: C_3  and  N_2 
REMARK       I    between atoms: C_11  and  N_12 
REMARK    4  A    between atoms: C_19  and  C_11 
REMARK    5  A    between atoms: N_12  and  C_16 
ROOT
ATOM      1  C   UNL d   1      33.188  19.159 -23.150  0.00  0.00     0.105 A 
ATOM      2  C   UNL d   1      33.218  19.313 -22.334  0.00  0.00     0.015 A 
ATOM      3  C   UNL d   1      33.175  19.748 -23.685  0.00  0.00     0.015 A 
ATOM      4  C   UNL d   1      33.222  20.691 -22.593  0.00  0.00     0.085 A 
ATOM      5  C   UNL d   1      33.235  20.079 -22.066  0.00  0.00     0.020 A 
ATOM      6  C   UNL d   1      33.192  20.536 -23.409  0.00  0.00     0.020 A 
ENDROOT
BRANCH   1   7
ATOM      7  S   UNL d   1      33.172  18.361 -23.417  0.00  0.00     0.287 S 
ATOM      8  O   UNL d   1      33.224  18.620 -24.226  0.00  0.00    -0.198 OA
ATOM      9  O   UNL d   1      33.121  18.103 -22.635  0.00  0.00    -0.198 OA
BRANCH   7  10
ATOM     10  N   UNL d   1      33.155  17.570 -23.677  0.00  0.00    -0.137 NA
BRANCH  10  11
ATOM     11  C   UNL d   1      32.425  17.182 -23.796  0.00  0.00     0.203 A 
ATOM     12  N   UNL d   1      32.198  16.598 -23.274  0.00  0.00    -0.106 NA
ATOM     13  O   UNL d   1      31.457  16.325 -23.541  0.00  0.00    -0.210 OA
ATOM     14  C   UNL d   1      31.251  16.740 -24.208  0.00  0.00     0.128 A 
ATOM     15  C   UNL d   1      31.861  17.287 -24.377  0.00  0.00     0.069 A 
ATOM     16  C   UNL d   1      30.560  16.640 -24.644  0.00  0.00     0.029 C 
ENDBRANCH  10  11
ENDBRANCH   7  10
ENDBRANCH   1   7
BRANCH   4  17
ATOM     17  N   UNL d   1      33.238  21.481 -22.325  0.00  0.00    -0.208 NA
ATOM     18  C   UNL d   1      32.807  21.700 -21.666  0.00  0.00     0.279 C 
ATOM     19  O   UNL d   1      32.823  22.484 -21.400  0.00  0.00    -0.265 OA
BRANCH  18  20
ATOM     20  C   UNL d   1      32.360  21.142 -21.272  0.00  0.00     0.062 C 
ATOM     21  C   UNL d   1      31.911  21.355 -20.592  0.00  0.00     0.005 C 
ENDBRANCH  18  20
ENDBRANCH   4  17
TORSDOF 5
ENDMDL
