MODEL 1
REMARK VINA RESULT:     -10.5      0.000      0.000
REMARK  7 active torsions:
REMARK  status: ('A' for Active; 'I' for Inactive)
REMARK    1  A    between atoms: C_23  and  C_3 
REMARK    2  A    between atoms: S_18  and  C_5 
REMARK    3  A    between atoms: C_11  and  C_16 
REMARK       I    between atoms: N_14  and  C_11 
REMARK    4  A    between atoms: C_17  and  N_14 
REMARK    5  A    between atoms: C_16  and  C_21 
REMARK    6  A    between atoms: C_21  and  S_18 
REMARK    7  A    between atoms: O_24  and  C_22 
ROOT
ATOM      1  C   UNL d   1      52.787  34.022  53.669  0.00  0.00     0.092 A 
ATOM      2  C   UNL d   1      53.265  32.679  53.700  0.00  0.00     0.057 A 
ATOM      3  C   UNL d   1      53.343  33.469  53.922  0.00  0.00     0.016 A 
ATOM      4  N   UNL d   1      52.077  32.996  52.975  0.00  0.00    -0.239 NA
ATOM      5  C   UNL d   1      52.154  33.785  53.196  0.00  0.00     0.120 A 
ATOM      6  C   UNL d   1      52.632  32.443  53.227  0.00  0.00     0.081 A 
ATOM      7  C   UNL d   1      53.821  32.127  53.953  0.00  0.00     0.193 A 
ATOM      8  C   UNL d   1      52.864  34.824  53.892  0.00  0.00     0.103 C 
ATOM      9  N   UNL d   1      52.950  35.621  54.120  0.00  0.00    -0.191 NA
ATOM     10  C   UNL d   1      53.112  31.093  53.259  0.00  0.00     0.042 A 
ATOM     11  C   UNL d   1      53.745  31.330  53.732  0.00  0.00     0.019 A 
ATOM     12  C   UNL d   1      52.554  31.654  53.007  0.00  0.00    -0.003 A 
ATOM     13  O   UNL d   1      54.453  32.363  54.426  0.00  0.00    -0.287 OA
ATOM     14  C   UNL d   1      52.605  30.606  52.816  0.00  0.00     0.009 C 
ATOM     15  C   UNL d   1      53.663  30.534  53.506  0.00  0.00     0.009 C 
ENDROOT
BRANCH   3  16
ATOM     16  C   UNL d   1      53.975  33.706  54.394  0.00  0.00     0.001 C 
ATOM     17  C   UNL d   1      53.911  33.675  55.215  0.00  0.00     0.000 C 
ENDBRANCH   3  16
BRANCH   5  18
ATOM     18  S   UNL d   1      51.595  34.350  52.944  0.00  0.00    -0.067 SA
BRANCH  18  19
ATOM     19  C   UNL d   1      50.801  34.139  52.861  0.00  0.00     0.042 C 
BRANCH  19  20
ATOM     20  C   UNL d   1      50.354  34.454  52.242  0.00  0.00     0.070 C 
BRANCH  20  21
ATOM     21  C   UNL d   1      49.580  34.733  52.392  0.00  0.00     0.280 C 
ATOM     22  N   UNL d   1      49.182  35.157  51.808  0.00  0.00    -0.208 NA
ATOM     23  O   UNL d   1      49.224  34.581  53.121  0.00  0.00    -0.265 OA
BRANCH  22  24
ATOM     24  C   UNL d   1      48.405  35.439  51.957  0.00  0.00     0.087 A 
ATOM     25  C   UNL d   1      47.775  35.147  51.510  0.00  0.00     0.043 A 
ATOM     26  C   UNL d   1      47.014  35.426  51.659  0.00  0.00     0.096 A 
ATOM     27  C   UNL d   1      46.871  35.993  52.250  0.00  0.00     0.024 A 
ATOM     28  C   UNL d   1      47.504  36.282  52.694  0.00  0.00     0.004 A 
ATOM     29  C   UNL d   1      48.274  36.008  52.552  0.00  0.00     0.019 A 
BRANCH  26  30
ATOM     30  O   UNL d   1      46.384  35.134  51.212  0.00  0.00    -0.328 OA
ATOM     31  C   UNL d   1      45.693  35.584  51.133  0.00  0.00     0.181 C 
ENDBRANCH  26  30
ENDBRANCH  22  24
ENDBRANCH  20  21
ENDBRANCH  19  20
ENDBRANCH  18  19
ENDBRANCH   5  18
TORSDOF 7
ENDMDL
MODEL 2
REMARK VINA RESULT:      -8.5      0.853      2.190
REMARK  7 active torsions:
REMARK  status: ('A' for Active; 'I' for Inactive)
REMARK    1  A    between atoms: C_23  and  C_3 
REMARK    2  A    between atoms: S_18  and  C_5 
REMARK    3  A    between atoms: C_11  and  C_16 
REMARK       I    between atoms: N_14  and  C_11 
REMARK    4  A    between atoms: C_17  and  N_14 
REMARK    5  A    between atoms: C_16  and  C_21 
REMARK    6  A    between atoms: C_21  and  S_18 
REMARK    7  A    between atoms: O_24  and  C_22 
ROOT
ATOM      1  C   UNL d   1      52.682  32.484  53.267  0.00  0.00     0.092 A 
ATOM      2  C   UNL d   1      53.697  33.015  54.114  0.00  0.00     0.057 A 
ATOM      3  C   UNL d   1      53.412  32.405  53.640  0.00  0.00     0.016 A 
ATOM      4  N   UNL d   1      52.523  33.781  53.842  0.00  0.00    -0.239 NA
ATOM      5  C   UNL d   1      52.238  33.172  53.368  0.00  0.00     0.120 A 
ATOM      6  C   UNL d   1      53.253  33.703  54.216  0.00  0.00     0.081 A 
ATOM      7  C   UNL d   1      54.427  32.936  54.487  0.00  0.00     0.193 A 
ATOM      8  C   UNL d   1      52.390  31.866  52.785  0.00  0.00     0.103 C 
ATOM      9  N   UNL d   1      52.108  31.245  52.306  0.00  0.00    -0.191 NA
ATOM     10  C   UNL d   1      54.274  34.237  55.068  0.00  0.00     0.042 A 
ATOM     11  C   UNL d   1      54.718  33.549  54.966  0.00  0.00     0.019 A 
ATOM     12  C   UNL d   1      53.538  34.312  54.690  0.00  0.00    -0.003 A 
ATOM     13  O   UNL d   1      54.871  32.249  54.386  0.00  0.00    -0.287 OA
ATOM     14  C   UNL d   1      54.051  34.994  55.330  0.00  0.00     0.009 C 
ATOM     15  C   UNL d   1      55.002  34.167  55.444  0.00  0.00     0.009 C 
ENDROOT
BRANCH   3  16
ATOM     16  C   UNL d   1      53.855  31.718  53.539  0.00  0.00     0.001 C 
ATOM     17  C   UNL d   1      53.701  31.055  54.002  0.00  0.00     0.000 C 
ENDBRANCH   3  16
BRANCH   5  18
ATOM     18  S   UNL d   1      51.499  33.245  52.988  0.00  0.00    -0.067 SA
BRANCH  18  19
ATOM     19  C   UNL d   1      51.047  33.928  53.089  0.00  0.00     0.042 C 
BRANCH  19  20
ATOM     20  C   UNL d   1      50.395  34.066  52.601  0.00  0.00     0.070 C 
BRANCH  20  21
ATOM     21  C   UNL d   1      49.862  34.684  52.787  0.00  0.00     0.280 C 
ATOM     22  N   UNL d   1      49.104  34.675  52.465  0.00  0.00    -0.208 NA
ATOM     23  O   UNL d   1      50.103  35.293  53.289  0.00  0.00    -0.265 OA
BRANCH  22  24
ATOM     24  C   UNL d   1      48.568  35.295  52.650  0.00  0.00     0.087 A 
ATOM     25  C   UNL d   1      48.023  35.544  52.083  0.00  0.00     0.043 A 
ATOM     26  C   UNL d   1      47.499  36.153  52.269  0.00  0.00     0.096 A 
ATOM     27  C   UNL d   1      47.511  36.517  53.016  0.00  0.00     0.024 A 
ATOM     28  C   UNL d   1      48.057  36.265  53.580  0.00  0.00     0.004 A 
ATOM     29  C   UNL d   1      48.589  35.653  53.403  0.00  0.00     0.019 A 
BRANCH  26  30
ATOM     30  O   UNL d   1      46.955  36.402  51.701  0.00  0.00    -0.328 OA
ATOM     31  C   UNL d   1      46.182  36.104  51.714  0.00  0.00     0.181 C 
ENDBRANCH  26  30
ENDBRANCH  22  24
ENDBRANCH  20  21
ENDBRANCH  19  20
ENDBRANCH  18  19
ENDBRANCH   5  18
TORSDOF 7
ENDMDL
