MODEL 1
REMARK VINA RESULT:      -6.6      0.000      0.000
REMARK  4 active torsions:
REMARK  status: ('A' for Active; 'I' for Inactive)
REMARK       I    between atoms: C_6  and  N_7 
REMARK    1  A    between atoms: C_9  and  C_6 
REMARK    2  A    between atoms: N_7  and  C_15 
REMARK    3  A    between atoms: C_15  and  C_14 
REMARK    4  A    between atoms: O_22  and  C_18 
ROOT
ATOM      1  C   UNL d   1     -40.325  14.459  19.596  0.00  0.00     0.102 C 
ENDROOT
BRANCH   1   2
ATOM      2  N   UNL d   1     -39.840  14.460  18.939  0.00  0.00    -0.206 NA
ATOM      3  C   UNL d   1     -40.106  14.182  18.216  0.00  0.00     0.279 C 
ATOM      4  O   UNL d   1     -40.878  13.897  18.148  0.00  0.00    -0.265 OA
BRANCH   3   5
ATOM      5  C   UNL d   1     -39.616  14.183  17.551  0.00  0.00     0.058 A 
ATOM      6  C   UNL d   1     -39.092  13.559  17.419  0.00  0.00     0.007 A 
ATOM      7  C   UNL d   1     -38.609  13.573  16.751  0.00  0.00     0.024 A 
ATOM      8  C   UNL d   1     -38.638  14.188  16.222  0.00  0.00     0.094 A 
ATOM      9  C   UNL d   1     -39.172  14.823  16.356  0.00  0.00     0.024 A 
ATOM     10  C   UNL d   1     -39.662  14.823  17.020  0.00  0.00     0.007 A 
BRANCH   8  11
ATOM     11  O   UNL d   1     -38.160  14.208  15.555  0.00  0.00    -0.328 OA
ATOM     12  C   UNL d   1     -37.945  13.488  15.193  0.00  0.00     0.181 C 
ENDBRANCH   8  11
ENDBRANCH   3   5
ENDBRANCH   1   2
BRANCH   1  13
ATOM     13  C   UNL d   1     -40.036  14.689  20.331  0.00  0.00     0.019 A 
ATOM     14  C   UNL d   1     -40.073  15.489  20.562  0.00  0.00     0.003 A 
ATOM     15  C   UNL d   1     -39.782  15.719  21.301  0.00  0.00     0.018 A 
ATOM     16  C   UNL d   1     -39.456  15.158  21.806  0.00  0.00     0.064 A 
ATOM     17  N   UNL d   1     -39.129  15.220  22.559  0.00  0.00    -0.304 N 
ATOM     18  C   UNL d   1     -39.415  14.365  21.586  0.00  0.00     0.018 A 
ATOM     19  C   UNL d   1     -38.888  14.472  22.800  0.00  0.00     0.064 A 
ATOM     20  C   UNL d   1     -39.056  15.918  22.995  0.00  0.00     0.099 C 
ATOM     21  C   UNL d   1     -39.068  13.945  22.194  0.00  0.00     0.019 A 
ATOM     22  C   UNL d   1     -38.532  14.281  23.519  0.00  0.00     0.019 C 
ATOM     23  C   UNL d   1     -39.708  14.128  20.841  0.00  0.00     0.003 A 
ENDBRANCH   1  13
TORSDOF 4
ENDMDL
MODEL 2
REMARK VINA RESULT:      -6.0      1.569      5.213
REMARK  4 active torsions:
REMARK  status: ('A' for Active; 'I' for Inactive)
REMARK       I    between atoms: C_6  and  N_7 
REMARK    1  A    between atoms: C_9  and  C_6 
REMARK    2  A    between atoms: N_7  and  C_15 
REMARK    3  A    between atoms: C_15  and  C_14 
REMARK    4  A    between atoms: O_22  and  C_18 
ROOT
ATOM      1  C   UNL d   1     -40.300  14.477  19.140  0.00  0.00     0.102 C 
ENDROOT
BRANCH   1   2
ATOM      2  N   UNL d   1     -39.905  14.646  19.835  0.00  0.00    -0.206 NA
ATOM      3  C   UNL d   1     -40.284  14.600  20.560  0.00  0.00     0.279 C 
ATOM      4  O   UNL d   1     -41.079  14.380  20.589  0.00  0.00    -0.265 OA
BRANCH   3   5
ATOM      5  C   UNL d   1     -39.886  14.770  21.262  0.00  0.00     0.058 A 
ATOM      6  C   UNL d   1     -39.886  15.537  21.567  0.00  0.00     0.007 A 
ATOM      7  C   UNL d   1     -39.484  15.692  22.270  0.00  0.00     0.024 A 
ATOM      8  C   UNL d   1     -39.088  15.105  22.668  0.00  0.00     0.094 A 
ATOM      9  C   UNL d   1     -39.087  14.324  22.358  0.00  0.00     0.024 A 
ATOM     10  C   UNL d   1     -39.486  14.154  21.655  0.00  0.00     0.007 A 
BRANCH   8  11
ATOM     11  O   UNL d   1     -38.685  15.253  23.367  0.00  0.00    -0.328 OA
ATOM     12  C   UNL d   1     -38.050  15.793  23.359  0.00  0.00     0.181 C 
ENDBRANCH   8  11
ENDBRANCH   3   5
ENDBRANCH   1   2
BRANCH   1  13
ATOM     13  C   UNL d   1     -39.915  14.534  18.415  0.00  0.00     0.019 A 
ATOM     14  C   UNL d   1     -39.940  15.246  17.984  0.00  0.00     0.003 A 
ATOM     15  C   UNL d   1     -39.553  15.302  17.256  0.00  0.00     0.018 A 
ATOM     16  C   UNL d   1     -39.143  14.653  16.958  0.00  0.00     0.064 A 
ATOM     17  N   UNL d   1     -38.713  14.545  16.264  0.00  0.00    -0.304 N 
ATOM     18  C   UNL d   1     -39.112  13.945  17.378  0.00  0.00     0.018 A 
ATOM     19  C   UNL d   1     -38.421  13.777  16.257  0.00  0.00     0.064 A 
ATOM     20  C   UNL d   1     -38.598  15.114  15.677  0.00  0.00     0.099 C 
ATOM     21  C   UNL d   1     -38.670  13.408  16.949  0.00  0.00     0.019 A 
ATOM     22  C   UNL d   1     -37.960  13.435  15.665  0.00  0.00     0.019 C 
ATOM     23  C   UNL d   1     -39.502  13.885  18.114  0.00  0.00     0.003 A 
ENDBRANCH   1  13
TORSDOF 4
ENDMDL
MODEL 3
REMARK VINA RESULT:      -5.7      8.708      9.938
REMARK  4 active torsions:
REMARK  status: ('A' for Active; 'I' for Inactive)
REMARK       I    between atoms: C_6  and  N_7 
REMARK    1  A    between atoms: C_9  and  C_6 
REMARK    2  A    between atoms: N_7  and  C_15 
REMARK    3  A    between atoms: C_15  and  C_14 
REMARK    4  A    between atoms: O_22  and  C_18 
ROOT
ATOM      1  C   UNL d   1     -47.617  11.480  23.619  0.00  0.00     0.102 C 
ENDROOT
BRANCH   1   2
ATOM      2  N   UNL d   1     -48.139  11.972  23.229  0.00  0.00    -0.206 NA
ATOM      3  C   UNL d   1     -48.947  11.835  23.250  0.00  0.00     0.279 C 
ATOM      4  O   UNL d   1     -49.239  11.190  23.673  0.00  0.00    -0.265 OA
BRANCH   3   5
ATOM      5  C   UNL d   1     -49.475  12.333  22.856  0.00  0.00     0.058 A 
ATOM      6  C   UNL d   1     -49.517  12.328  22.032  0.00  0.00     0.007 A 
ATOM      7  C   UNL d   1     -50.049  12.830  21.652  0.00  0.00     0.024 A 
ATOM      8  C   UNL d   1     -50.533  13.329  22.073  0.00  0.00     0.094 A 
ATOM      9  C   UNL d   1     -50.491  13.334  22.912  0.00  0.00     0.024 A 
ATOM     10  C   UNL d   1     -49.963  12.837  23.306  0.00  0.00     0.007 A 
BRANCH   8  11
ATOM     11  O   UNL d   1     -51.064  13.831  21.701  0.00  0.00    -0.328 OA
ATOM     12  C   UNL d   1     -50.932  14.654  21.737  0.00  0.00     0.181 C 
ENDBRANCH   8  11
ENDBRANCH   3   5
ENDBRANCH   1   2
BRANCH   1  13
ATOM     13  C   UNL d   1     -46.814  11.496  23.442  0.00  0.00     0.019 A 
ATOM     14  C   UNL d   1     -46.496  12.132  23.007  0.00  0.00     0.003 A 
ATOM     15  C   UNL d   1     -45.689  12.147  22.830  0.00  0.00     0.018 A 
ATOM     16  C   UNL d   1     -45.201  11.534  23.083  0.00  0.00     0.064 A 
ATOM     17  N   UNL d   1     -44.394  11.400  22.991  0.00  0.00    -0.304 N 
ATOM     18  C   UNL d   1     -45.508  10.902  23.513  0.00  0.00     0.018 A 
ATOM     19  C   UNL d   1     -44.205  10.691  23.362  0.00  0.00     0.064 A 
ATOM     20  C   UNL d   1     -43.866  11.896  22.594  0.00  0.00     0.099 C 
ATOM     21  C   UNL d   1     -44.898  10.386  23.684  0.00  0.00     0.019 A 
ATOM     22  C   UNL d   1     -43.457  10.346  23.406  0.00  0.00     0.019 C 
ATOM     23  C   UNL d   1     -46.322  10.883  23.694  0.00  0.00     0.003 A 
ENDBRANCH   1  13
TORSDOF 4
ENDMDL
