MODEL 1
REMARK VINA RESULT:      -8.7      0.000      0.000
REMARK  6 active torsions:
REMARK  status: ('A' for Active; 'I' for Inactive)
REMARK    1  A    between atoms: C_11  and  C_4 
REMARK    2  A    between atoms: N_10  and  C_5 
REMARK    3  A    between atoms: C_16  and  C_9 
REMARK    4  A    between atoms: C_13  and  N_10 
REMARK    5  A    between atoms: C_14  and  C_13 
REMARK    6  A    between atoms: C_21  and  C_16 
ROOT
ATOM      1  N   UNL d   1     -46.895  12.756  23.240  0.00  0.00    -0.195 N 
ATOM      2  C   UNL d   1     -47.586  13.150  23.023  0.00  0.00     0.167 A 
ATOM      3  N   UNL d   1     -46.184  13.961  23.170  0.00  0.00    -0.163 NA
ATOM      4  C   UNL d   1     -47.569  13.937  22.883  0.00  0.00     0.055 A 
ATOM      5  C   UNL d   1     -46.933  11.963  23.377  0.00  0.00     0.167 A 
ATOM      6  C   UNL d   1     -46.875  14.356  22.952  0.00  0.00     0.104 A 
ATOM      7  N   UNL d   1     -48.280  12.731  22.953  0.00  0.00    -0.227 NA
ATOM      8  C   UNL d   1     -47.609  11.544  23.311  0.00  0.00     0.058 A 
ATOM      9  C   UNL d   1     -48.300  11.938  23.094  0.00  0.00     0.086 A 
ATOM     10  C   UNL d   1     -46.851  15.147  22.813  0.00  0.00     0.023 C 
ENDROOT
BRANCH   5  11
ATOM     11  N   UNL d   1     -46.221  11.555  23.601  0.00  0.00    -0.224 NA
BRANCH  11  12
ATOM     12  C   UNL d   1     -45.883  10.783  23.652  0.00  0.00     0.120 C 
BRANCH  12  13
ATOM     13  C   UNL d   1     -45.059  10.660  23.534  0.00  0.00     0.101 A 
ATOM     14  N   UNL d   1     -44.568  11.295  23.254  0.00  0.00    -0.242 NA
ATOM     15  C   UNL d   1     -43.741  11.164  23.138  0.00  0.00     0.099 A 
ATOM     16  C   UNL d   1     -43.402  10.405  23.300  0.00  0.00     0.021 A 
ATOM     17  C   UNL d   1     -43.902   9.772  23.580  0.00  0.00     0.003 A 
ATOM     18  C   UNL d   1     -44.729   9.902  23.697  0.00  0.00     0.021 A 
ENDBRANCH  12  13
ENDBRANCH  11  12
ENDBRANCH   5  11
BRANCH   9  19
ATOM     19  C   UNL d   1     -49.026  11.507  23.020  0.00  0.00     0.019 C 
BRANCH  19  20
ATOM     20  C   UNL d   1     -49.532  11.387  23.697  0.00  0.00     0.002 C 
ATOM     21  C   UNL d   1     -50.363  11.483  23.628  0.00  0.00     0.000 C 
ENDBRANCH  19  20
ENDBRANCH   9  19
BRANCH   4  22
ATOM     22  C   UNL d   1     -48.249  14.325  22.669  0.00  0.00     0.004 A 
ATOM     23  C   UNL d   1     -48.459  14.362  21.887  0.00  0.00     0.000 A 
ATOM     24  C   UNL d   1     -49.140  14.751  21.673  0.00  0.00     0.000 A 
ATOM     25  C   UNL d   1     -49.609  15.102  22.241  0.00  0.00     0.000 A 
ATOM     26  C   UNL d   1     -49.401  15.067  23.026  0.00  0.00     0.000 A 
ATOM     27  C   UNL d   1     -48.710  14.672  23.244  0.00  0.00     0.000 A 
ENDBRANCH   4  22
TORSDOF 6
ENDMDL
MODEL 2
REMARK VINA RESULT:      -6.7      1.218      1.703
REMARK  6 active torsions:
REMARK  status: ('A' for Active; 'I' for Inactive)
REMARK    1  A    between atoms: C_11  and  C_4 
REMARK    2  A    between atoms: N_10  and  C_5 
REMARK    3  A    between atoms: C_16  and  C_9 
REMARK    4  A    between atoms: C_13  and  N_10 
REMARK    5  A    between atoms: C_14  and  C_13 
REMARK    6  A    between atoms: C_21  and  C_16 
ROOT
ATOM      1  N   UNL d   1     -47.249  13.717  22.707  0.00  0.00    -0.195 N 
ATOM      2  C   UNL d   1     -48.046  13.874  22.853  0.00  0.00     0.167 A 
ATOM      3  N   UNL d   1     -47.085  15.015  22.205  0.00  0.00    -0.163 NA
ATOM      4  C   UNL d   1     -48.350  14.591  22.675  0.00  0.00     0.055 A 
ATOM      5  C   UNL d   1     -46.962  12.988  22.894  0.00  0.00     0.167 A 
ATOM      6  C   UNL d   1     -47.882  15.172  22.351  0.00  0.00     0.104 A 
ATOM      7  N   UNL d   1     -48.514  13.293  23.177  0.00  0.00    -0.227 NA
ATOM      8  C   UNL d   1     -47.414  12.412  23.212  0.00  0.00     0.058 A 
ATOM      9  C   UNL d   1     -48.210  12.569  23.358  0.00  0.00     0.086 A 
ATOM     10  C   UNL d   1     -48.182  15.895  22.170  0.00  0.00     0.023 C 
ENDROOT
BRANCH   5  11
ATOM     11  N   UNL d   1     -46.140  12.826  22.744  0.00  0.00    -0.224 NA
BRANCH  11  12
ATOM     12  C   UNL d   1     -45.585  12.191  22.691  0.00  0.00     0.120 C 
BRANCH  12  13
ATOM     13  C   UNL d   1     -44.823  12.308  22.354  0.00  0.00     0.101 A 
ATOM     14  N   UNL d   1     -44.173  11.809  22.584  0.00  0.00    -0.242 NA
ATOM     15  C   UNL d   1     -43.411  11.933  22.241  0.00  0.00     0.099 A 
ATOM     16  C   UNL d   1     -43.293  12.549  21.672  0.00  0.00     0.021 A 
ATOM     17  C   UNL d   1     -43.950  13.045  21.447  0.00  0.00     0.003 A 
ATOM     18  C   UNL d   1     -44.713  12.923  21.789  0.00  0.00     0.021 A 
ENDBRANCH  12  13
ENDBRANCH  11  12
ENDBRANCH   5  11
BRANCH   9  19
ATOM     19  C   UNL d   1     -48.703  11.968  23.695  0.00  0.00     0.019 C 
BRANCH  19  20
ATOM     20  C   UNL d   1     -49.251  11.530  23.208  0.00  0.00     0.002 C 
ATOM     21  C   UNL d   1     -49.872  11.089  23.561  0.00  0.00     0.000 C 
ENDBRANCH  19  20
ENDBRANCH   9  19
BRANCH   4  22
ATOM     22  C   UNL d   1     -49.135  14.745  22.818  0.00  0.00     0.004 A 
ATOM     23  C   UNL d   1     -49.363  15.008  23.550  0.00  0.00     0.000 A 
ATOM     24  C   UNL d   1     -50.148  15.162  23.694  0.00  0.00     0.000 A 
ATOM     25  C   UNL d   1     -50.703  15.054  23.105  0.00  0.00     0.000 A 
ATOM     26  C   UNL d   1     -50.476  14.790  22.369  0.00  0.00     0.000 A 
ATOM     27  C   UNL d   1     -49.679  14.633  22.224  0.00  0.00     0.000 A 
ENDBRANCH   4  22
TORSDOF 6
ENDMDL
MODEL 3
REMARK VINA RESULT:      -6.0      1.140      2.476
REMARK  6 active torsions:
REMARK  status: ('A' for Active; 'I' for Inactive)
REMARK    1  A    between atoms: C_11  and  C_4 
REMARK    2  A    between atoms: N_10  and  C_5 
REMARK    3  A    between atoms: C_16  and  C_9 
REMARK    4  A    between atoms: C_13  and  N_10 
REMARK    5  A    between atoms: C_14  and  C_13 
REMARK    6  A    between atoms: C_21  and  C_16 
ROOT
ATOM      1  N   UNL d   1     -47.737  12.134  23.097  0.00  0.00    -0.195 N 
ATOM      2  C   UNL d   1     -48.393  12.631  23.030  0.00  0.00     0.167 A 
ATOM      3  N   UNL d   1     -48.589  11.029  23.224  0.00  0.00    -0.163 NA
ATOM      4  C   UNL d   1     -49.130  12.326  23.060  0.00  0.00     0.055 A 
ATOM      5  C   UNL d   1     -47.002  12.463  23.064  0.00  0.00     0.167 A 
ATOM      6  C   UNL d   1     -49.244  11.526  23.157  0.00  0.00     0.104 A 
ATOM      7  N   UNL d   1     -48.279  13.431  22.933  0.00  0.00    -0.227 NA
ATOM      8  C   UNL d   1     -46.881  13.246  22.969  0.00  0.00     0.058 A 
ATOM      9  C   UNL d   1     -47.536  13.743  22.902  0.00  0.00     0.086 A 
ATOM     10  C   UNL d   1     -49.983  11.212  23.189  0.00  0.00     0.023 C 
ENDROOT
BRANCH   5  11
ATOM     11  N   UNL d   1     -46.327  11.950  23.133  0.00  0.00    -0.224 NA
BRANCH  11  12
ATOM     12  C   UNL d   1     -45.885  11.504  23.698  0.00  0.00     0.120 C 
BRANCH  12  13
ATOM     13  C   UNL d   1     -45.156  11.139  23.488  0.00  0.00     0.101 A 
ATOM     14  N   UNL d   1     -45.025  10.316  23.658  0.00  0.00    -0.242 NA
ATOM     15  C   UNL d   1     -44.291   9.957  23.445  0.00  0.00     0.099 A 
ATOM     16  C   UNL d   1     -43.687  10.412  23.064  0.00  0.00     0.021 A 
ATOM     17  C   UNL d   1     -43.826  11.238  22.896  0.00  0.00     0.003 A 
ATOM     18  C   UNL d   1     -44.560  11.599  23.109  0.00  0.00     0.021 A 
ENDBRANCH  12  13
ENDBRANCH  11  12
ENDBRANCH   5  11
BRANCH   9  19
ATOM     19  C   UNL d   1     -47.424  14.576  22.801  0.00  0.00     0.019 C 
BRANCH  19  20
ATOM     20  C   UNL d   1     -47.405  14.922  22.020  0.00  0.00     0.002 C 
ATOM     21  C   UNL d   1     -47.721  15.688  21.888  0.00  0.00     0.000 C 
ENDBRANCH  19  20
ENDBRANCH   9  19
BRANCH   4  22
ATOM     22  C   UNL d   1     -49.775  12.815  22.994  0.00  0.00     0.004 A 
ATOM     23  C   UNL d   1     -50.087  12.969  22.262  0.00  0.00     0.000 A 
ATOM     24  C   UNL d   1     -50.731  13.458  22.196  0.00  0.00     0.000 A 
ATOM     25  C   UNL d   1     -51.064  13.793  22.862  0.00  0.00     0.000 A 
ATOM     26  C   UNL d   1     -50.753  13.640  23.598  0.00  0.00     0.000 A 
ATOM     27  C   UNL d   1     -50.098  13.143  23.665  0.00  0.00     0.000 A 
ENDBRANCH   4  22
TORSDOF 6
ENDMDL
