MODEL 1
REMARK VINA RESULT:      62.5      0.000      0.000
REMARK  5 active torsions:
REMARK  status: ('A' for Active; 'I' for Inactive)
REMARK    1  A    between atoms: C_2  and  C_1 
REMARK    2  A    between atoms: C_3  and  C_1 
REMARK    3  A    between atoms: C_4  and  C_1 
REMARK    4  A    between atoms: C_5  and  C_2 
REMARK    5  A    between atoms: C_13  and  C_5 
ROOT
ATOM      1  C   UNL d   1     -51.786  25.634  34.351  0.00  0.00     0.029 C 
ENDROOT
BRANCH   1   2
ATOM      2  C   UNL d   1     -52.111  25.734  35.100  0.00  0.00     0.044 C 
BRANCH   2   3
ATOM      3  C   UNL d   1     -51.637  25.986  35.721  0.00  0.00     0.196 C 
ATOM      4  O   UNL d   1     -51.045  26.228  35.590  0.00  0.00    -0.287 OA
BRANCH   3   5
ATOM      5  C   UNL d   1     -51.890  25.941  36.522  0.00  0.00     0.039 A 
ATOM      6  C   UNL d   1     -52.670  25.728  36.671  0.00  0.00     0.003 A 
ATOM      7  C   UNL d   1     -52.926  25.682  37.465  0.00  0.00     0.000 A 
ATOM      8  C   UNL d   1     -52.404  25.847  38.087  0.00  0.00     0.000 A 
ATOM      9  C   UNL d   1     -51.633  26.056  37.907  0.00  0.00     0.000 A 
ATOM     10  C   UNL d   1     -51.371  26.105  37.138  0.00  0.00     0.003 A 
ENDBRANCH   3   5
ENDBRANCH   2   3
ENDBRANCH   1   2
BRANCH   1  11
ATOM     11  C   UNL d   1     -51.455  26.281  33.955  0.00  0.00     0.100 A 
ATOM     12  O   UNL d   1     -51.941  26.879  33.671  0.00  0.00    -0.305 OA
ATOM     13  C   UNL d   1     -51.460  27.440  33.307  0.00  0.00     0.123 A 
ATOM     14  C   UNL d   1     -50.679  27.180  33.370  0.00  0.00     0.029 A 
ATOM     15  C   UNL d   1     -50.673  26.473  33.765  0.00  0.00     0.027 A 
ENDBRANCH   1  11
BRANCH   1  16
ATOM     16  C   UNL d   1     -51.795  24.880  34.003  0.00  0.00     0.041 A 
ATOM     17  C   UNL d   1     -52.507  24.524  33.783  0.00  0.00     0.196 A 
ATOM     18  O   UNL d   1     -53.232  24.911  33.904  0.00  0.00    -0.287 OA
ATOM     19  C   UNL d   1     -52.497  23.763  33.433  0.00  0.00     0.042 A 
ATOM     20  C   UNL d   1     -51.784  23.372  33.308  0.00  0.00     0.003 A 
ATOM     21  C   UNL d   1     -51.073  23.727  33.528  0.00  0.00     0.000 A 
ATOM     22  C   UNL d   1     -51.075  24.474  33.872  0.00  0.00     0.003 A 
ENDBRANCH   1  16
TORSDOF 5
ENDMDL
