MODEL 1
REMARK VINA RESULT:      -4.0      0.000      0.000
REMARK  3 active torsions:
REMARK  status: ('A' for Active; 'I' for Inactive)
REMARK    1  A    between atoms: C_2  and  S_1 
REMARK    2  A    between atoms: N_3  and  S_1 
REMARK    3  A    between atoms: C_12  and  N_3 
ROOT
ATOM      1  S   UNL d   1      58.287   0.180  29.868  0.00  0.00     0.285 S 
ATOM      2  O   UNL d   1      57.655   0.102  29.469  0.00  0.00    -0.198 OA
ATOM      3  O   UNL d   1      58.825   0.409  30.376  0.00  0.00    -0.198 OA
ENDROOT
BRANCH   1   4
ATOM      4  C   UNL d   1      58.764  -0.401  29.505  0.00  0.00     0.105 A 
ATOM      5  C   UNL d   1      59.427  -0.176  29.062  0.00  0.00     0.012 A 
ATOM      6  C   UNL d   1      59.900  -0.752  28.704  0.00  0.00     0.001 A 
ATOM      7  C   UNL d   1      59.609   0.642  28.985  0.00  0.00     0.001 C 
ATOM      8  C   UNL d   1      59.707  -1.549  28.790  0.00  0.00     0.000 A 
ATOM      9  C   UNL d   1      59.044  -1.786  29.233  0.00  0.00     0.001 A 
ATOM     10  C   UNL d   1      58.571  -1.210  29.592  0.00  0.00     0.013 A 
ATOM     11  C   UNL d   1      58.855  -2.595  29.315  0.00  0.00     0.000 C 
ENDBRANCH   1   4
BRANCH   1  12
ATOM     12  N   UNL d   1      57.808   0.681  30.146  0.00  0.00    -0.158 NA
BRANCH  12  13
ATOM     13  C   UNL d   1      57.649   0.519  30.800  0.00  0.00     0.095 A 
ATOM     14  C   UNL d   1      57.050   0.197  30.938  0.00  0.00     0.040 A 
ATOM     15  C   UNL d   1      56.905   0.042  31.586  0.00  0.00     0.089 A 
ATOM     16  N   UNL d   1      56.359  -0.270  31.864  0.00  0.00    -0.236 NA
ATOM     17  C   UNL d   1      57.332   0.197  32.096  0.00  0.00     0.049 A 
ATOM     18  C   UNL d   1      56.461  -0.303  32.548  0.00  0.00     0.135 A 
ATOM     19  S   UNL d   1      57.057  -0.016  32.682  0.00  0.00    -0.064 SA
ATOM     20  C   UNL d   1      57.930   0.520  31.946  0.00  0.00     0.010 A 
ATOM     21  C   UNL d   1      58.090   0.682  31.296  0.00  0.00     0.021 A 
ENDBRANCH  12  13
ENDBRANCH   1  12
TORSDOF 3
ENDMDL
MODEL 2
REMARK VINA RESULT:      -3.9      1.274      1.609
REMARK  3 active torsions:
REMARK  status: ('A' for Active; 'I' for Inactive)
REMARK    1  A    between atoms: C_2  and  S_1 
REMARK    2  A    between atoms: N_3  and  S_1 
REMARK    3  A    between atoms: C_12  and  N_3 
ROOT
ATOM      1  S   UNL d   1      57.861  -0.094  30.345  0.00  0.00     0.285 S 
ATOM      2  O   UNL d   1      57.978  -0.835  30.386  0.00  0.00    -0.198 OA
ATOM      3  O   UNL d   1      57.545   0.614  30.352  0.00  0.00    -0.198 OA
ENDROOT
BRANCH   1   4
ATOM      4  C   UNL d   1      58.630   0.167  30.150  0.00  0.00     0.105 A 
ATOM      5  C   UNL d   1      58.824   0.333  29.362  0.00  0.00     0.012 A 
ATOM      6  C   UNL d   1      59.585   0.592  29.168  0.00  0.00     0.001 A 
ATOM      7  C   UNL d   1      58.237   0.236  28.767  0.00  0.00     0.001 C 
ATOM      8  C   UNL d   1      60.148   0.682  29.764  0.00  0.00     0.000 A 
ATOM      9  C   UNL d   1      59.964   0.517  30.558  0.00  0.00     0.001 A 
ATOM     10  C   UNL d   1      59.203   0.259  30.752  0.00  0.00     0.013 A 
ATOM     11  C   UNL d   1      60.541   0.611  31.156  0.00  0.00     0.000 C 
ENDBRANCH   1   4
BRANCH   1  12
ATOM     12  N   UNL d   1      57.200  -0.393  30.520  0.00  0.00    -0.158 NA
BRANCH  12  13
ATOM     13  C   UNL d   1      57.018  -0.206  31.161  0.00  0.00     0.095 A 
ATOM     14  C   UNL d   1      56.849  -0.694  31.626  0.00  0.00     0.040 A 
ATOM     15  C   UNL d   1      56.671  -0.497  32.253  0.00  0.00     0.089 A 
ATOM     16  N   UNL d   1      56.484  -0.862  32.805  0.00  0.00    -0.236 NA
ATOM     17  C   UNL d   1      56.655   0.162  32.432  0.00  0.00     0.049 A 
ATOM     18  C   UNL d   1      56.354  -0.417  33.320  0.00  0.00     0.135 A 
ATOM     19  S   UNL d   1      56.461   0.206  33.084  0.00  0.00    -0.064 SA
ATOM     20  C   UNL d   1      56.826   0.642  31.958  0.00  0.00     0.010 A 
ATOM     21  C   UNL d   1      57.008   0.458  31.320  0.00  0.00     0.021 A 
ENDBRANCH  12  13
ENDBRANCH   1  12
TORSDOF 3
ENDMDL
MODEL 3
REMARK VINA RESULT:      -3.8      8.972      9.726
REMARK  3 active torsions:
REMARK  status: ('A' for Active; 'I' for Inactive)
REMARK    1  A    between atoms: C_2  and  S_1 
REMARK    2  A    between atoms: N_3  and  S_1 
REMARK    3  A    between atoms: C_12  and  N_3 
ROOT
ATOM      1  S   UNL d   1      60.241  -9.234  34.524  0.00  0.00     0.285 S 
ATOM      2  O   UNL d   1      60.833  -8.856  34.256  0.00  0.00    -0.198 OA
ATOM      3  O   UNL d   1      59.722  -9.578  34.985  0.00  0.00    -0.198 OA
ENDROOT
BRANCH   1   4
ATOM      4  C   UNL d   1      59.854  -9.430  33.811  0.00  0.00     0.105 A 
ATOM      5  C   UNL d   1      60.295  -9.567  33.123  0.00  0.00     0.012 A 
ATOM      6  C   UNL d   1      59.911  -9.762  32.417  0.00  0.00     0.001 A 
ATOM      7  C   UNL d   1      61.133  -9.505  33.156  0.00  0.00     0.001 C 
ATOM      8  C   UNL d   1      59.089  -9.818  32.402  0.00  0.00     0.000 A 
ATOM      9  C   UNL d   1      58.636  -9.682  33.087  0.00  0.00     0.001 A 
ATOM     10  C   UNL d   1      59.020  -9.488  33.794  0.00  0.00     0.013 A 
ATOM     11  C   UNL d   1      57.803  -9.741  33.064  0.00  0.00     0.000 C 
ENDBRANCH   1   4
BRANCH   1  12
ATOM     12  N   UNL d   1      60.637  -9.026  35.122  0.00  0.00    -0.158 NA
BRANCH  12  13
ATOM     13  C   UNL d   1      60.326  -8.493  35.438  0.00  0.00     0.095 A 
ATOM     14  C   UNL d   1      60.617  -7.864  35.414  0.00  0.00     0.040 A 
ATOM     15  C   UNL d   1      60.301  -7.348  35.730  0.00  0.00     0.089 A 
ATOM     16  N   UNL d   1      60.470  -6.684  35.788  0.00  0.00    -0.236 NA
ATOM     17  C   UNL d   1      59.713  -7.438  36.064  0.00  0.00     0.049 A 
ATOM     18  C   UNL d   1      59.976  -6.373  36.162  0.00  0.00     0.135 A 
ATOM     19  S   UNL d   1      59.518  -6.839  36.327  0.00  0.00    -0.064 SA
ATOM     20  C   UNL d   1      59.431  -8.074  36.081  0.00  0.00     0.010 A 
ATOM     21  C   UNL d   1      59.738  -8.605  35.767  0.00  0.00     0.021 A 
ENDBRANCH  12  13
ENDBRANCH   1  12
TORSDOF 3
ENDMDL
MODEL 4
REMARK VINA RESULT:      -3.6      9.060      9.823
REMARK  3 active torsions:
REMARK  status: ('A' for Active; 'I' for Inactive)
REMARK    1  A    between atoms: C_2  and  S_1 
REMARK    2  A    between atoms: N_3  and  S_1 
REMARK    3  A    between atoms: C_12  and  N_3 
ROOT
ATOM      1  S   UNL d   1      59.566  -9.309  34.820  0.00  0.00     0.285 S 
ATOM      2  O   UNL d   1      60.194  -9.649  35.052  0.00  0.00    -0.198 OA
ATOM      3  O   UNL d   1      58.895  -8.921  34.787  0.00  0.00    -0.198 OA
ENDROOT
BRANCH   1   4
ATOM      4  C   UNL d   1      59.623  -9.435  33.997  0.00  0.00     0.105 A 
ATOM      5  C   UNL d   1      58.959  -9.685  33.569  0.00  0.00     0.012 A 
ATOM      6  C   UNL d   1      59.015  -9.811  32.753  0.00  0.00     0.001 A 
ATOM      7  C   UNL d   1      58.233  -9.808  33.975  0.00  0.00     0.001 C 
ATOM      8  C   UNL d   1      59.735  -9.686  32.371  0.00  0.00     0.000 A 
ATOM      9  C   UNL d   1      60.408  -9.435  32.791  0.00  0.00     0.001 A 
ATOM     10  C   UNL d   1      60.352  -9.309  33.607  0.00  0.00     0.013 A 
ATOM     11  C   UNL d   1      61.133  -9.310  32.396  0.00  0.00     0.000 C 
ENDBRANCH   1   4
BRANCH   1  12
ATOM     12  N   UNL d   1      59.577  -9.231  35.562  0.00  0.00    -0.158 NA
BRANCH  12  13
ATOM     13  C   UNL d   1      59.864  -8.624  35.733  0.00  0.00     0.095 A 
ATOM     14  C   UNL d   1      59.458  -8.075  35.856  0.00  0.00     0.040 A 
ATOM     15  C   UNL d   1      59.754  -7.484  36.023  0.00  0.00     0.089 A 
ATOM     16  N   UNL d   1      59.482  -6.869  36.170  0.00  0.00    -0.236 NA
ATOM     17  C   UNL d   1      60.432  -7.422  36.071  0.00  0.00     0.049 A 
ATOM     18  C   UNL d   1      60.004  -6.435  36.307  0.00  0.00     0.135 A 
ATOM     19  S   UNL d   1      60.580  -6.779  36.245  0.00  0.00    -0.064 SA
ATOM     20  C   UNL d   1      60.829  -7.980  35.945  0.00  0.00     0.010 A 
ATOM     21  C   UNL d   1      60.544  -8.584  35.775  0.00  0.00     0.021 A 
ENDBRANCH  12  13
ENDBRANCH   1  12
TORSDOF 3
ENDMDL
MODEL 5
REMARK VINA RESULT:      -3.6      8.984     10.224
REMARK  3 active torsions:
REMARK  status: ('A' for Active; 'I' for Inactive)
REMARK    1  A    between atoms: C_2  and  S_1 
REMARK    2  A    between atoms: N_3  and  S_1 
REMARK    3  A    between atoms: C_12  and  N_3 
ROOT
ATOM      1  S   UNL d   1      59.703  -9.166  35.197  0.00  0.00     0.285 S 
ATOM      2  O   UNL d   1      58.996  -9.250  35.436  0.00  0.00    -0.198 OA
ATOM      3  O   UNL d   1      60.394  -9.265  34.859  0.00  0.00    -0.198 OA
ENDROOT
BRANCH   1   4
ATOM      4  C   UNL d   1      59.893  -8.432  35.547  0.00  0.00     0.105 A 
ATOM      5  C   UNL d   1      60.592  -8.348  35.984  0.00  0.00     0.012 A 
ATOM      6  C   UNL d   1      60.779  -7.621  36.330  0.00  0.00     0.001 A 
ATOM      7  C   UNL d   1      61.103  -9.011  36.067  0.00  0.00     0.001 C 
ATOM      8  C   UNL d   1      60.267  -6.982  36.237  0.00  0.00     0.000 A 
ATOM      9  C   UNL d   1      59.562  -7.055  35.801  0.00  0.00     0.001 A 
ATOM     10  C   UNL d   1      59.375  -7.782  35.454  0.00  0.00     0.013 A 
ATOM     11  C   UNL d   1      59.048  -6.403  35.712  0.00  0.00     0.000 C 
ENDBRANCH   1   4
BRANCH   1  12
ATOM     12  N   UNL d   1      59.470  -9.816  34.915  0.00  0.00    -0.158 NA
BRANCH  12  13
ATOM     13  C   UNL d   1      59.371  -9.756  34.232  0.00  0.00     0.095 A 
ATOM     14  C   UNL d   1      58.731  -9.818  33.971  0.00  0.00     0.040 A 
ATOM     15  C   UNL d   1      58.647  -9.757  33.298  0.00  0.00     0.089 A 
ATOM     16  N   UNL d   1      58.081  -9.794  32.908  0.00  0.00    -0.236 NA
ATOM     17  C   UNL d   1      59.173  -9.637  32.879  0.00  0.00     0.049 A 
ATOM     18  C   UNL d   1      58.271  -9.696  32.249  0.00  0.00     0.135 A 
ATOM     19  S   UNL d   1      58.939  -9.601  32.240  0.00  0.00    -0.064 SA
ATOM     20  C   UNL d   1      59.810  -9.577  33.152  0.00  0.00     0.010 A 
ATOM     21  C   UNL d   1      59.910  -9.637  33.831  0.00  0.00     0.021 A 
ENDBRANCH  12  13
ENDBRANCH   1  12
TORSDOF 3
ENDMDL
MODEL 6
REMARK VINA RESULT:      -3.3      1.706      3.524
REMARK  3 active torsions:
REMARK  status: ('A' for Active; 'I' for Inactive)
REMARK    1  A    between atoms: C_2  and  S_1 
REMARK    2  A    between atoms: N_3  and  S_1 
REMARK    3  A    between atoms: C_12  and  N_3 
ROOT
ATOM      1  S   UNL d   1      58.774  -0.733  29.255  0.00  0.00     0.285 S 
ATOM      2  O   UNL d   1      58.155  -0.715  28.830  0.00  0.00    -0.198 OA
ATOM      3  O   UNL d   1      59.495  -0.841  29.521  0.00  0.00    -0.198 OA
ENDROOT
BRANCH   1   4
ATOM      4  C   UNL d   1      58.485  -0.380  29.955  0.00  0.00     0.105 A 
ATOM      5  C   UNL d   1      58.816   0.328  30.230  0.00  0.00     0.012 A 
ATOM      6  C   UNL d   1      58.530   0.677  30.923  0.00  0.00     0.001 A 
ATOM      7  C   UNL d   1      59.443   0.682  29.795  0.00  0.00     0.001 C 
ATOM      8  C   UNL d   1      57.915   0.316  31.336  0.00  0.00     0.000 A 
ATOM      9  C   UNL d   1      57.576  -0.395  31.069  0.00  0.00     0.001 A 
ATOM     10  C   UNL d   1      57.862  -0.745  30.376  0.00  0.00     0.013 A 
ATOM     11  C   UNL d   1      56.953  -0.755  31.494  0.00  0.00     0.000 C 
ENDBRANCH   1   4
BRANCH   1  12
ATOM     12  N   UNL d   1      58.968  -1.040  28.603  0.00  0.00    -0.158 NA
BRANCH  12  13
ATOM     13  C   UNL d   1      59.132  -1.706  28.693  0.00  0.00     0.095 A 
ATOM     14  C   UNL d   1      58.684  -2.199  28.502  0.00  0.00     0.040 A 
ATOM     15  C   UNL d   1      58.858  -2.851  28.597  0.00  0.00     0.089 A 
ATOM     16  N   UNL d   1      58.519  -3.434  28.458  0.00  0.00    -0.236 NA
ATOM     17  C   UNL d   1      59.458  -3.027  28.872  0.00  0.00     0.049 A 
ATOM     18  C   UNL d   1      58.921  -3.963  28.652  0.00  0.00     0.135 A 
ATOM     19  S   UNL d   1      59.492  -3.707  28.904  0.00  0.00    -0.064 SA
ATOM     20  C   UNL d   1      59.899  -2.523  29.060  0.00  0.00     0.010 A 
ATOM     21  C   UNL d   1      59.737  -1.860  28.971  0.00  0.00     0.021 A 
ENDBRANCH  12  13
ENDBRANCH   1  12
TORSDOF 3
ENDMDL
MODEL 7
REMARK VINA RESULT:      -2.9      0.877      1.212
REMARK  3 active torsions:
REMARK  status: ('A' for Active; 'I' for Inactive)
REMARK    1  A    between atoms: C_2  and  S_1 
REMARK    2  A    between atoms: N_3  and  S_1 
REMARK    3  A    between atoms: C_12  and  N_3 
ROOT
ATOM      1  S   UNL d   1      59.082  -0.005  29.459  0.00  0.00     0.285 S 
ATOM      2  O   UNL d   1      59.690   0.283  29.793  0.00  0.00    -0.198 OA
ATOM      3  O   UNL d   1      58.370  -0.119  29.174  0.00  0.00    -0.198 OA
ENDROOT
BRANCH   1   4
ATOM      4  C   UNL d   1      59.384  -0.743  29.210  0.00  0.00     0.105 A 
ATOM      5  C   UNL d   1      60.114  -0.782  28.821  0.00  0.00     0.012 A 
ATOM      6  C   UNL d   1      60.413  -1.513  28.575  0.00  0.00     0.001 A 
ATOM      7  C   UNL d   1      60.543  -0.071  28.684  0.00  0.00     0.001 C 
ATOM      8  C   UNL d   1      59.980  -2.199  28.718  0.00  0.00     0.000 A 
ATOM      9  C   UNL d   1      59.245  -2.171  29.108  0.00  0.00     0.001 A 
ATOM     10  C   UNL d   1      58.946  -1.441  29.355  0.00  0.00     0.013 A 
ATOM     11  C   UNL d   1      58.812  -2.871  29.249  0.00  0.00     0.000 C 
ENDBRANCH   1   4
BRANCH   1  12
ATOM     12  N   UNL d   1      58.876   0.667  29.709  0.00  0.00    -0.158 NA
BRANCH  12  13
ATOM     13  C   UNL d   1      58.409   0.600  30.215  0.00  0.00     0.095 A 
ATOM     14  C   UNL d   1      58.605   0.682  30.876  0.00  0.00     0.040 A 
ATOM     15  C   UNL d   1      58.135   0.613  31.365  0.00  0.00     0.089 A 
ATOM     16  N   UNL d   1      58.185   0.665  32.049  0.00  0.00    -0.236 NA
ATOM     17  C   UNL d   1      57.484   0.466  31.220  0.00  0.00     0.049 A 
ATOM     18  C   UNL d   1      57.556   0.549  32.316  0.00  0.00     0.135 A 
ATOM     19  S   UNL d   1      57.134   0.428  31.804  0.00  0.00    -0.064 SA
ATOM     20  C   UNL d   1      57.300   0.386  30.554  0.00  0.00     0.010 A 
ATOM     21  C   UNL d   1      57.764   0.453  30.049  0.00  0.00     0.021 A 
ENDBRANCH  12  13
ENDBRANCH   1  12
TORSDOF 3
ENDMDL
MODEL 8
REMARK VINA RESULT:      -2.9      1.824      4.365
REMARK  3 active torsions:
REMARK  status: ('A' for Active; 'I' for Inactive)
REMARK    1  A    between atoms: C_2  and  S_1 
REMARK    2  A    between atoms: N_3  and  S_1 
REMARK    3  A    between atoms: C_12  and  N_3 
ROOT
ATOM      1  S   UNL d   1      56.176  -0.257  32.761  0.00  0.00     0.285 S 
ATOM      2  O   UNL d   1      55.710   0.239  32.443  0.00  0.00    -0.198 OA
ATOM      3  O   UNL d   1      56.649  -0.856  32.898  0.00  0.00    -0.198 OA
ENDROOT
BRANCH   1   4
ATOM      4  C   UNL d   1      56.226   0.058  33.533  0.00  0.00     0.105 A 
ATOM      5  C   UNL d   1      55.535   0.218  33.962  0.00  0.00     0.012 A 
ATOM      6  C   UNL d   1      55.585   0.530  34.726  0.00  0.00     0.001 A 
ATOM      7  C   UNL d   1      54.789   0.057  33.608  0.00  0.00     0.001 C 
ATOM      8  C   UNL d   1      56.325   0.682  35.056  0.00  0.00     0.000 A 
ATOM      9  C   UNL d   1      57.025   0.525  34.634  0.00  0.00     0.001 A 
ATOM     10  C   UNL d   1      56.975   0.213  33.870  0.00  0.00     0.013 A 
ATOM     11  C   UNL d   1      57.771   0.682  34.976  0.00  0.00     0.000 C 
ENDBRANCH   1   4
BRANCH   1  12
ATOM     12  N   UNL d   1      56.087  -0.486  32.056  0.00  0.00    -0.158 NA
BRANCH  12  13
ATOM     13  C   UNL d   1      56.599  -0.239  31.661  0.00  0.00     0.095 A 
ATOM     14  C   UNL d   1      57.044  -0.679  31.361  0.00  0.00     0.040 A 
ATOM     15  C   UNL d   1      57.543  -0.423  30.974  0.00  0.00     0.089 A 
ATOM     16  N   UNL d   1      58.046  -0.734  30.623  0.00  0.00    -0.236 NA
ATOM     17  C   UNL d   1      57.614   0.250  30.877  0.00  0.00     0.049 A 
ATOM     18  C   UNL d   1      58.422  -0.241  30.312  0.00  0.00     0.135 A 
ATOM     19  S   UNL d   1      58.152   0.356  30.472  0.00  0.00    -0.064 SA
ATOM     20  C   UNL d   1      57.161   0.681  31.183  0.00  0.00     0.010 A 
ATOM     21  C   UNL d   1      56.652   0.437  31.576  0.00  0.00     0.021 A 
ENDBRANCH  12  13
ENDBRANCH   1  12
TORSDOF 3
ENDMDL
MODEL 9
REMARK VINA RESULT:      -2.3      1.120      3.504
REMARK  3 active torsions:
REMARK  status: ('A' for Active; 'I' for Inactive)
REMARK    1  A    between atoms: C_2  and  S_1 
REMARK    2  A    between atoms: N_3  and  S_1 
REMARK    3  A    between atoms: C_12  and  N_3 
ROOT
ATOM      1  S   UNL d   1      57.464   0.036  31.159  0.00  0.00     0.285 S 
ATOM      2  O   UNL d   1      56.844   0.158  30.752  0.00  0.00    -0.198 OA
ATOM      3  O   UNL d   1      58.197  -0.030  31.401  0.00  0.00    -0.198 OA
ENDROOT
BRANCH   1   4
ATOM      4  C   UNL d   1      57.122  -0.205  31.882  0.00  0.00     0.105 A 
ATOM      5  C   UNL d   1      57.394   0.114  32.596  0.00  0.00     0.012 A 
ATOM      6  C   UNL d   1      57.055  -0.124  33.312  0.00  0.00     0.001 A 
ATOM      7  C   UNL d   1      58.015   0.681  32.580  0.00  0.00     0.001 C 
ATOM      8  C   UNL d   1      56.447  -0.680  33.309  0.00  0.00     0.000 A 
ATOM      9  C   UNL d   1      56.166  -1.008  32.597  0.00  0.00     0.001 A 
ATOM     10  C   UNL d   1      56.505  -0.769  31.881  0.00  0.00     0.013 A 
ATOM     11  C   UNL d   1      55.549  -1.571  32.603  0.00  0.00     0.000 C 
ENDBRANCH   1   4
BRANCH   1  12
ATOM     12  N   UNL d   1      57.703   0.258  30.488  0.00  0.00    -0.158 NA
BRANCH  12  13
ATOM     13  C   UNL d   1      58.043  -0.257  30.175  0.00  0.00     0.095 A 
ATOM     14  C   UNL d   1      58.676  -0.143  29.915  0.00  0.00     0.040 A 
ATOM     15  C   UNL d   1      59.000  -0.658  29.609  0.00  0.00     0.089 A 
ATOM     16  N   UNL d   1      59.620  -0.689  29.312  0.00  0.00    -0.236 NA
ATOM     17  C   UNL d   1      58.718  -1.278  29.554  0.00  0.00     0.049 A 
ATOM     18  C   UNL d   1      59.709  -1.335  29.076  0.00  0.00     0.135 A 
ATOM     19  S   UNL d   1      59.155  -1.687  29.227  0.00  0.00    -0.064 SA
ATOM     20  C   UNL d   1      58.083  -1.381  29.818  0.00  0.00     0.010 A 
ATOM     21  C   UNL d   1      57.743  -0.869  30.130  0.00  0.00     0.021 A 
ENDBRANCH  12  13
ENDBRANCH   1  12
TORSDOF 3
ENDMDL
