MODEL 1
REMARK VINA RESULT:      -1.9      0.000      0.000
REMARK  9 active torsions:
REMARK  status: ('A' for Active; 'I' for Inactive)
REMARK    1  A    between atoms: C_12  and  N_1 
REMARK    2  A    between atoms: C_13  and  N_2 
REMARK    3  A    between atoms: O_9  and  C_23 
REMARK    4  A    between atoms: C_10  and  O_9 
REMARK    5  A    between atoms: C_11  and  C_12 
REMARK    6  A    between atoms: C_18  and  C_13 
REMARK    7  A    between atoms: C_26  and  C_15 
REMARK    8  A    between atoms: C_16  and  C_26 
REMARK    9  A    between atoms: C_23  and  C_18 
ROOT
ATOM      1  N   UNL d   1      59.182  -0.371  29.333  0.00  0.00    -0.300 N 
ATOM      2  N   UNL d   1      58.288   0.334  30.548  0.00  0.00    -0.297 N 
ATOM      3  C   UNL d   1      58.382  -0.441  29.349  0.00  0.00     0.100 A 
ATOM      4  C   UNL d   1      59.104   0.416  30.548  0.00  0.00     0.100 A 
ATOM      5  C   UNL d   1      57.917  -0.099  29.943  0.00  0.00     0.100 A 
ATOM      6  C   UNL d   1      59.551   0.064  29.941  0.00  0.00     0.100 A 
ENDROOT
BRANCH   2   7
ATOM      7  C   UNL d   1      57.844   0.671  31.132  0.00  0.00     0.125 C 
BRANCH   7   8
ATOM      8  C   UNL d   1      57.646   0.273  31.807  0.00  0.00     0.238 C 
ATOM      9  O   UNL d   1      58.148   0.357  32.466  0.00  0.00    -0.283 OA
BRANCH   8  10
ATOM     10  C   UNL d   1      56.992  -0.185  31.842  0.00  0.00     0.166 C 
BRANCH  10  11
ATOM     11  O   UNL d   1      56.434  -0.076  32.446  0.00  0.00    -0.302 OA
BRANCH  11  12
ATOM     12  C   UNL d   1      56.044  -0.711  32.765  0.00  0.00     0.100 A 
ATOM     13  C   UNL d   1      55.560  -0.621  33.419  0.00  0.00     0.023 A 
ATOM     14  C   UNL d   1      55.159  -1.259  33.752  0.00  0.00     0.002 A 
ATOM     15  C   UNL d   1      55.243  -2.015  33.421  0.00  0.00     0.000 A 
ATOM     16  C   UNL d   1      55.735  -2.122  32.752  0.00  0.00     0.002 A 
ATOM     17  C   UNL d   1      56.135  -1.457  32.429  0.00  0.00     0.025 A 
BRANCH  13  18
ATOM     18  C   UNL d   1      55.475   0.117  33.746  0.00  0.00     0.002 C 
BRANCH  18  19
ATOM     19  C   UNL d   1      55.165   0.200  34.496  0.00  0.00     0.000 C 
ATOM     20  C   UNL d   1      54.490   0.665  34.623  0.00  0.00     0.000 C 
ENDBRANCH  18  19
ENDBRANCH  13  18
ENDBRANCH  11  12
ENDBRANCH  10  11
ENDBRANCH   8  10
ENDBRANCH   7   8
ENDBRANCH   2   7
BRANCH   1  21
ATOM     21  C   UNL d   1      59.616  -0.713  28.743  0.00  0.00     0.080 C 
BRANCH  21  22
ATOM     22  C   UNL d   1      59.776  -1.508  28.791  0.00  0.00     0.020 A 
ATOM     23  C   UNL d   1      59.164  -2.042  28.799  0.00  0.00     0.028 A 
ATOM     24  C   UNL d   1      59.356  -2.847  28.848  0.00  0.00     0.119 A 
ATOM     25  O   UNL d   1      58.838  -3.486  28.864  0.00  0.00    -0.300 OA
ATOM     26  C   UNL d   1      60.128  -3.096  28.886  0.00  0.00     0.119 A 
ATOM     27  C   UNL d   1      59.305  -4.190  28.917  0.00  0.00     0.304 A 
ATOM     28  O   UNL d   1      60.105  -3.929  28.929  0.00  0.00    -0.300 OA
ATOM     29  C   UNL d   1      60.751  -2.553  28.878  0.00  0.00     0.026 A 
ATOM     30  C   UNL d   1      60.567  -1.751  28.829  0.00  0.00     0.004 A 
ENDBRANCH  21  22
ENDBRANCH   1  21
TORSDOF 9
ENDMDL
