MODEL 1
REMARK VINA RESULT:      -2.8      0.000      0.000
REMARK  2 active torsions:
REMARK  status: ('A' for Active; 'I' for Inactive)
REMARK    1  A    between atoms: C_7  and  C_1 
REMARK    2  A    between atoms: O_15  and  C_11 
ROOT
ATOM      1  C   UNL d   1      32.841  19.001 -23.012  0.00  0.00     0.103 A 
ATOM      2  C   UNL d   1      32.975  19.612 -23.550  0.00  0.00     0.067 A 
ATOM      3  O   UNL d   1      32.841  19.160 -22.223  0.00  0.00    -0.307 OA
ATOM      4  C   UNL d   1      33.109  20.381 -23.300  0.00  0.00     0.200 A 
ATOM      5  C   UNL d   1      33.107  20.534 -22.471  0.00  0.00     0.062 A 
ATOM      6  C   UNL d   1      32.972  19.924 -21.933  0.00  0.00     0.103 A 
ATOM      7  O   UNL d   1      33.241  20.975 -23.858  0.00  0.00    -0.286 OA
ATOM      8  C   UNL d   1      33.241  21.307 -22.217  0.00  0.00     0.005 A 
ATOM      9  C   UNL d   1      32.973  20.087 -21.140  0.00  0.00     0.025 A 
ATOM     10  C   UNL d   1      33.236  21.443 -21.409  0.00  0.00     0.000 A 
ATOM     11  C   UNL d   1      33.102  20.833 -20.870  0.00  0.00     0.002 A 
ENDROOT
BRANCH   1  12
ATOM     12  C   UNL d   1      32.712  18.251 -23.286  0.00  0.00     0.023 A 
ATOM     13  C   UNL d   1      33.235  17.633 -23.099  0.00  0.00     0.004 A 
ATOM     14  C   UNL d   1      33.122  16.864 -23.367  0.00  0.00     0.024 A 
ATOM     15  C   UNL d   1      32.444  16.716 -23.850  0.00  0.00     0.094 A 
ATOM     16  C   UNL d   1      31.921  17.334 -24.037  0.00  0.00     0.024 A 
ATOM     17  C   UNL d   1      32.043  18.084 -23.767  0.00  0.00     0.004 A 
BRANCH  15  18
ATOM     18  O   UNL d   1      32.305  15.916 -24.143  0.00  0.00    -0.328 OA
ATOM     19  C   UNL d   1      31.712  15.458 -23.773  0.00  0.00     0.181 C 
ENDBRANCH  15  18
ENDBRANCH   1  12
TORSDOF 2
ENDMDL
MODEL 2
REMARK VINA RESULT:      -2.7      1.506      2.761
REMARK  2 active torsions:
REMARK  status: ('A' for Active; 'I' for Inactive)
REMARK    1  A    between atoms: C_7  and  C_1 
REMARK    2  A    between atoms: O_15  and  C_11 
ROOT
ATOM      1  C   UNL d   1      32.886  20.933 -21.771  0.00  0.00     0.103 A 
ATOM      2  C   UNL d   1      33.097  20.806 -20.984  0.00  0.00     0.067 A 
ATOM      3  O   UNL d   1      32.604  21.652 -21.996  0.00  0.00    -0.307 OA
ATOM      4  C   UNL d   1      33.024  21.398 -20.421  0.00  0.00     0.200 A 
ATOM      5  C   UNL d   1      32.727  22.146 -20.669  0.00  0.00     0.062 A 
ATOM      6  C   UNL d   1      32.517  22.274 -21.456  0.00  0.00     0.103 A 
ATOM      7  O   UNL d   1      33.241  21.246 -19.639  0.00  0.00    -0.286 OA
ATOM      8  C   UNL d   1      32.653  22.743 -20.104  0.00  0.00     0.005 A 
ATOM      9  C   UNL d   1      32.233  22.998 -21.679  0.00  0.00     0.025 A 
ATOM     10  C   UNL d   1      32.363  23.466 -20.358  0.00  0.00     0.000 A 
ATOM     11  C   UNL d   1      32.153  23.594 -21.146  0.00  0.00     0.002 A 
ENDROOT
BRANCH   1  12
ATOM     12  C   UNL d   1      32.968  20.331 -22.306  0.00  0.00     0.023 A 
ATOM     13  C   UNL d   1      33.151  20.490 -23.102  0.00  0.00     0.004 A 
ATOM     14  C   UNL d   1      33.238  19.894 -23.661  0.00  0.00     0.024 A 
ATOM     15  C   UNL d   1      33.135  19.097 -23.399  0.00  0.00     0.094 A 
ATOM     16  C   UNL d   1      32.952  18.938 -22.604  0.00  0.00     0.024 A 
ATOM     17  C   UNL d   1      32.869  19.532 -22.066  0.00  0.00     0.004 A 
BRANCH  15  18
ATOM     18  O   UNL d   1      33.222  18.455 -23.969  0.00  0.00    -0.328 OA
ATOM     19  C   UNL d   1      32.539  18.025 -24.186  0.00  0.00     0.181 C 
ENDBRANCH  15  18
ENDBRANCH   1  12
TORSDOF 2
ENDMDL
MODEL 3
REMARK VINA RESULT:      -2.4      2.506      3.934
REMARK  2 active torsions:
REMARK  status: ('A' for Active; 'I' for Inactive)
REMARK    1  A    between atoms: C_7  and  C_1 
REMARK    2  A    between atoms: O_15  and  C_11 
ROOT
ATOM      1  C   UNL d   1      30.800  16.742 -24.092  0.00  0.00     0.103 A 
ATOM      2  C   UNL d   1      31.390  16.331 -23.689  0.00  0.00     0.067 A 
ATOM      3  O   UNL d   1      30.973  17.448 -24.437  0.00  0.00    -0.307 OA
ATOM      4  C   UNL d   1      32.153  16.625 -23.630  0.00  0.00     0.200 A 
ATOM      5  C   UNL d   1      32.321  17.366 -23.995  0.00  0.00     0.062 A 
ATOM      6  C   UNL d   1      31.731  17.777 -24.399  0.00  0.00     0.103 A 
ATOM      7  O   UNL d   1      32.727  16.195 -23.220  0.00  0.00    -0.286 OA
ATOM      8  C   UNL d   1      33.088  17.664 -23.937  0.00  0.00     0.005 A 
ATOM      9  C   UNL d   1      31.907  18.487 -24.745  0.00  0.00     0.025 A 
ATOM     10  C   UNL d   1      33.238  18.385 -24.297  0.00  0.00     0.000 A 
ATOM     11  C   UNL d   1      32.648  18.797 -24.701  0.00  0.00     0.002 A 
ENDROOT
BRANCH   1  12
ATOM     12  C   UNL d   1      30.055  16.428 -24.135  0.00  0.00     0.023 A 
ATOM     13  C   UNL d   1      29.867  15.855 -24.707  0.00  0.00     0.004 A 
ATOM     14  C   UNL d   1      29.117  15.523 -24.768  0.00  0.00     0.024 A 
ATOM     15  C   UNL d   1      28.529  15.787 -24.220  0.00  0.00     0.094 A 
ATOM     16  C   UNL d   1      28.718  16.360 -23.648  0.00  0.00     0.024 A 
ATOM     17  C   UNL d   1      29.458  16.677 -23.599  0.00  0.00     0.004 A 
BRANCH  15  18
ATOM     18  O   UNL d   1      27.735  15.453 -24.265  0.00  0.00    -0.328 OA
ATOM     19  C   UNL d   1      27.242  15.516 -23.593  0.00  0.00     0.181 C 
ENDBRANCH  15  18
ENDBRANCH   1  12
TORSDOF 2
ENDMDL
MODEL 4
REMARK VINA RESULT:      -2.4      1.219      4.075
REMARK  2 active torsions:
REMARK  status: ('A' for Active; 'I' for Inactive)
REMARK    1  A    between atoms: C_7  and  C_1 
REMARK    2  A    between atoms: O_15  and  C_11 
ROOT
ATOM      1  C   UNL d   1      33.230  19.792 -22.555  0.00  0.00     0.103 A 
ATOM      2  C   UNL d   1      33.236  19.993 -23.355  0.00  0.00     0.067 A 
ATOM      3  O   UNL d   1      33.222  19.017 -22.340  0.00  0.00    -0.307 OA
ATOM      4  C   UNL d   1      33.234  19.418 -23.940  0.00  0.00     0.200 A 
ATOM      5  C   UNL d   1      33.226  18.610 -23.702  0.00  0.00     0.062 A 
ATOM      6  C   UNL d   1      33.220  18.409 -22.902  0.00  0.00     0.103 A 
ATOM      7  O   UNL d   1      33.241  19.644 -24.734  0.00  0.00    -0.286 OA
ATOM      8  C   UNL d   1      33.224  18.030 -24.288  0.00  0.00     0.005 A 
ATOM      9  C   UNL d   1      33.212  17.629 -22.688  0.00  0.00     0.025 A 
ATOM     10  C   UNL d   1      33.216  17.248 -24.043  0.00  0.00     0.000 A 
ATOM     11  C   UNL d   1      33.210  17.047 -23.243  0.00  0.00     0.002 A 
ENDROOT
BRANCH   1  12
ATOM     12  C   UNL d   1      33.232  20.380 -21.998  0.00  0.00     0.023 A 
ATOM     13  C   UNL d   1      33.228  20.198 -21.187  0.00  0.00     0.004 A 
ATOM     14  C   UNL d   1      33.230  20.779 -20.605  0.00  0.00     0.024 A 
ATOM     15  C   UNL d   1      33.236  21.585 -20.861  0.00  0.00     0.094 A 
ATOM     16  C   UNL d   1      33.241  21.767 -21.672  0.00  0.00     0.024 A 
ATOM     17  C   UNL d   1      33.239  21.187 -22.232  0.00  0.00     0.004 A 
BRANCH  15  18
ATOM     18  O   UNL d   1      33.239  22.212 -20.268  0.00  0.00    -0.328 OA
ATOM     19  C   UNL d   1      32.506  22.547 -20.046  0.00  0.00     0.181 C 
ENDBRANCH  15  18
ENDBRANCH   1  12
TORSDOF 2
ENDMDL
MODEL 5
REMARK VINA RESULT:      -2.2      0.929      4.063
REMARK  2 active torsions:
REMARK  status: ('A' for Active; 'I' for Inactive)
REMARK    1  A    between atoms: C_7  and  C_1 
REMARK    2  A    between atoms: O_15  and  C_11 
ROOT
ATOM      1  C   UNL d   1      32.639  18.652 -23.213  0.00  0.00     0.103 A 
ATOM      2  C   UNL d   1      32.100  18.575 -23.833  0.00  0.00     0.067 A 
ATOM      3  O   UNL d   1      33.010  17.998 -22.926  0.00  0.00    -0.307 OA
ATOM      4  C   UNL d   1      31.932  17.844 -24.166  0.00  0.00     0.200 A 
ATOM      5  C   UNL d   1      32.328  17.167 -23.856  0.00  0.00     0.062 A 
ATOM      6  C   UNL d   1      32.867  17.245 -23.236  0.00  0.00     0.103 A 
ATOM      7  O   UNL d   1      31.389  17.792 -24.785  0.00  0.00    -0.286 OA
ATOM      8  C   UNL d   1      32.161  16.431 -24.189  0.00  0.00     0.005 A 
ATOM      9  C   UNL d   1      33.239  16.586 -22.949  0.00  0.00     0.025 A 
ATOM     10  C   UNL d   1      32.553  15.781 -23.878  0.00  0.00     0.000 A 
ATOM     11  C   UNL d   1      33.092  15.859 -23.259  0.00  0.00     0.002 A 
ENDROOT
BRANCH   1  12
ATOM     12  C   UNL d   1      32.785  19.385 -22.904  0.00  0.00     0.023 A 
ATOM     13  C   UNL d   1      33.083  19.997 -23.381  0.00  0.00     0.004 A 
ATOM     14  C   UNL d   1      33.239  20.749 -23.087  0.00  0.00     0.024 A 
ATOM     15  C   UNL d   1      33.084  20.885 -22.266  0.00  0.00     0.094 A 
ATOM     16  C   UNL d   1      32.786  20.273 -21.789  0.00  0.00     0.024 A 
ATOM     17  C   UNL d   1      32.637  19.541 -22.091  0.00  0.00     0.004 A 
BRANCH  15  18
ATOM     18  O   UNL d   1      33.240  21.667 -21.936  0.00  0.00    -0.328 OA
ATOM     19  C   UNL d   1      32.689  21.983 -21.393  0.00  0.00     0.181 C 
ENDBRANCH  15  18
ENDBRANCH   1  12
TORSDOF 2
ENDMDL
MODEL 6
REMARK VINA RESULT:      -0.8      3.568      6.297
REMARK  2 active torsions:
REMARK  status: ('A' for Active; 'I' for Inactive)
REMARK    1  A    between atoms: C_7  and  C_1 
REMARK    2  A    between atoms: O_15  and  C_11 
ROOT
ATOM      1  C   UNL d   1      32.465  22.665 -19.445  0.00  0.00     0.103 A 
ATOM      2  C   UNL d   1      32.042  23.129 -19.980  0.00  0.00     0.067 A 
ATOM      3  O   UNL d   1      32.842  22.004 -19.705  0.00  0.00    -0.307 OA
ATOM      4  C   UNL d   1      31.998  22.933 -20.775  0.00  0.00     0.200 A 
ATOM      5  C   UNL d   1      32.398  22.238 -21.035  0.00  0.00     0.062 A 
ATOM      6  C   UNL d   1      32.820  21.774 -20.500  0.00  0.00     0.103 A 
ATOM      7  O   UNL d   1      31.569  23.414 -21.291  0.00  0.00    -0.286 OA
ATOM      8  C   UNL d   1      32.355  22.039 -21.834  0.00  0.00     0.005 A 
ATOM      9  C   UNL d   1      33.200  21.109 -20.764  0.00  0.00     0.025 A 
ATOM     10  C   UNL d   1      32.748  21.361 -22.073  0.00  0.00     0.000 A 
ATOM     11  C   UNL d   1      33.171  20.896 -21.538  0.00  0.00     0.002 A 
ENDROOT
BRANCH   1  12
ATOM     12  C   UNL d   1      32.492  22.882 -18.666  0.00  0.00     0.023 A 
ATOM     13  C   UNL d   1      33.055  23.430 -18.396  0.00  0.00     0.004 A 
ATOM     14  C   UNL d   1      33.100  23.664 -17.609  0.00  0.00     0.024 A 
ATOM     15  C   UNL d   1      32.545  23.324 -17.069  0.00  0.00     0.094 A 
ATOM     16  C   UNL d   1      31.982  22.775 -17.339  0.00  0.00     0.024 A 
ATOM     17  C   UNL d   1      31.949  22.555 -18.114  0.00  0.00     0.004 A 
BRANCH  15  18
ATOM     18  O   UNL d   1      32.574  23.555 -16.239  0.00  0.00    -0.328 OA
ATOM     19  C   UNL d   1      33.214  23.283 -15.776  0.00  0.00     0.181 C 
ENDBRANCH  15  18
ENDBRANCH   1  12
TORSDOF 2
ENDMDL
