MODEL 1
REMARK VINA RESULT:     -10.4      0.000      0.000
REMARK  5 active torsions:
REMARK  status: ('A' for Active; 'I' for Inactive)
REMARK    1  A    between atoms: N_7  and  C_1 
REMARK    2  A    between atoms: C_4  and  C_3 
REMARK       I    between atoms: C_8  and  N_7 
REMARK    3  A    between atoms: C_15  and  C_8 
REMARK    4  A    between atoms: O_20  and  C_15 
REMARK    5  A    between atoms: C_22  and  O_20 
ROOT
ATOM      1  C   UNL d   1      51.138  34.155  52.788  0.00  0.00     0.204 A 
ATOM      2  S   UNL d   1      51.455  33.679  53.378  0.00  0.00    -0.031 SA
ATOM      3  C   UNL d   1      52.286  33.702  53.310  0.00  0.00     0.119 A 
ATOM      4  N   UNL d   1      51.762  34.478  52.349  0.00  0.00    -0.123 NA
ATOM      5  N   UNL d   1      52.460  34.189  52.683  0.00  0.00    -0.143 NA
ENDROOT
BRANCH   1   6
ATOM      6  N   UNL d   1      50.348  34.325  52.611  0.00  0.00    -0.248 N 
ATOM      7  C   UNL d   1      49.957  34.944  53.075  0.00  0.00     0.291 C 
ATOM      8  O   UNL d   1      50.393  35.350  53.687  0.00  0.00    -0.264 OA
ATOM      9  C   UNL d   1      49.954  33.925  52.024  0.00  0.00     0.104 C 
BRANCH   7  10
ATOM     10  C   UNL d   1      49.168  35.135  52.920  0.00  0.00     0.184 C 
BRANCH  10  11
ATOM     11  O   UNL d   1      48.844  35.822  53.273  0.00  0.00    -0.300 OA
BRANCH  11  12
ATOM     12  C   UNL d   1      48.045  35.984  53.106  0.00  0.00     0.100 A 
ATOM     13  C   UNL d   1      47.758  36.137  52.348  0.00  0.00     0.025 A 
ATOM     14  C   UNL d   1      46.971  36.293  52.212  0.00  0.00     0.002 A 
ATOM     15  C   UNL d   1      46.409  36.307  52.834  0.00  0.00     0.000 A 
ATOM     16  C   UNL d   1      46.695  36.150  53.624  0.00  0.00     0.002 A 
ATOM     17  C   UNL d   1      47.520  35.987  53.759  0.00  0.00     0.025 A 
ENDBRANCH  11  12
ENDBRANCH  10  11
ENDBRANCH   7  10
ENDBRANCH   1   6
BRANCH   3  18
ATOM     18  C   UNL d   1      52.880  33.333  53.749  0.00  0.00     0.081 A 
ATOM     19  C   UNL d   1      53.361  33.413  54.392  0.00  0.00    -0.017 A 
ATOM     20  C   UNL d   1      53.863  32.835  54.561  0.00  0.00    -0.008 A 
ATOM     21  C   UNL d   1      54.344  32.951  55.231  0.00  0.00    -0.001 A 
ATOM     22  C   UNL d   1      53.787  32.239  54.017  0.00  0.00    -0.022 A 
ATOM     23  C   UNL d   1      53.971  32.671  54.566  0.00  0.00    -0.008 A 
ATOM     24  C   UNL d   1      53.440  33.172  54.304  0.00  0.00    -0.017 A 
ATOM     25  C   UNL d   1      53.897  31.939  53.922  0.00  0.00    -0.022 A 
ATOM     26  C   UNL d   1      53.335  32.057  53.332  0.00  0.00     0.045 A 
ATOM     27  C   UNL d   1      52.843  32.703  53.226  0.00  0.00     0.023 A 
ENDBRANCH   3  18
TORSDOF 5
ENDMDL
MODEL 2
REMARK VINA RESULT:      -9.6      0.946      1.547
REMARK  5 active torsions:
REMARK  status: ('A' for Active; 'I' for Inactive)
REMARK    1  A    between atoms: N_7  and  C_1 
REMARK    2  A    between atoms: C_4  and  C_3 
REMARK       I    between atoms: C_8  and  N_7 
REMARK    3  A    between atoms: C_15  and  C_8 
REMARK    4  A    between atoms: O_20  and  C_15 
REMARK    5  A    between atoms: C_22  and  O_20 
ROOT
ATOM      1  C   UNL d   1      51.034  33.996  52.823  0.00  0.00     0.204 A 
ATOM      2  S   UNL d   1      51.250  33.292  53.189  0.00  0.00    -0.031 SA
ATOM      3  C   UNL d   1      51.984  33.051  52.873  0.00  0.00     0.119 A 
ATOM      4  N   UNL d   1      51.625  34.200  52.280  0.00  0.00    -0.123 NA
ATOM      5  N   UNL d   1      52.201  33.609  52.323  0.00  0.00    -0.143 NA
ENDROOT
BRANCH   1   6
ATOM      6  N   UNL d   1      50.363  34.466  52.932  0.00  0.00    -0.248 N 
ATOM      7  C   UNL d   1      49.798  34.516  52.277  0.00  0.00     0.291 C 
ATOM      8  O   UNL d   1      49.951  34.086  51.555  0.00  0.00    -0.264 OA
ATOM      9  C   UNL d   1      50.238  34.866  53.628  0.00  0.00     0.104 C 
BRANCH   7  10
ATOM     10  C   UNL d   1      49.117  34.978  52.357  0.00  0.00     0.184 C 
BRANCH  10  11
ATOM     11  O   UNL d   1      48.615  35.071  51.693  0.00  0.00    -0.300 OA
BRANCH  11  12
ATOM     12  C   UNL d   1      47.903  35.484  51.821  0.00  0.00     0.100 A 
ATOM     13  C   UNL d   1      47.822  36.097  52.367  0.00  0.00     0.025 A 
ATOM     14  C   UNL d   1      47.114  36.485  52.473  0.00  0.00     0.002 A 
ATOM     15  C   UNL d   1      46.430  36.283  52.033  0.00  0.00     0.000 A 
ATOM     16  C   UNL d   1      46.503  35.649  51.464  0.00  0.00     0.002 A 
ATOM     17  C   UNL d   1      47.246  35.248  51.359  0.00  0.00     0.025 A 
ENDBRANCH  11  12
ENDBRANCH  10  11
ENDBRANCH   7  10
ENDBRANCH   1   6
BRANCH   3  18
ATOM     18  C   UNL d   1      52.457  32.394  53.033  0.00  0.00     0.081 A 
ATOM     19  C   UNL d   1      52.528  31.598  52.921  0.00  0.00    -0.017 A 
ATOM     20  C   UNL d   1      53.148  31.228  53.226  0.00  0.00    -0.008 A 
ATOM     21  C   UNL d   1      53.189  30.408  53.091  0.00  0.00    -0.001 A 
ATOM     22  C   UNL d   1      53.619  31.760  53.616  0.00  0.00    -0.022 A 
ATOM     23  C   UNL d   1      53.315  31.177  53.317  0.00  0.00    -0.008 A 
ATOM     24  C   UNL d   1      52.750  31.645  53.065  0.00  0.00    -0.017 A 
ATOM     25  C   UNL d   1      53.898  31.800  53.794  0.00  0.00    -0.022 A 
ATOM     26  C   UNL d   1      53.641  32.583  53.790  0.00  0.00     0.045 A 
ATOM     27  C   UNL d   1      52.968  32.890  53.440  0.00  0.00     0.023 A 
ENDBRANCH   3  18
TORSDOF 5
ENDMDL
