MODEL 1
REMARK VINA RESULT:      -2.8      0.000      0.000
REMARK  6 active torsions:
REMARK  status: ('A' for Active; 'I' for Inactive)
REMARK    1  A    between atoms: C_2  and  S_1 
REMARK    2  A    between atoms: N_3  and  S_1 
REMARK    3  A    between atoms: C_5  and  C_6 
REMARK    4  A    between atoms: O_13  and  C_5 
REMARK    5  A    between atoms: C_22  and  O_13 
REMARK    6  A    between atoms: C_21  and  C_22 
ROOT
ATOM      1  C   UNL d   1      32.664  20.528 -21.931  0.00  0.00     0.104 A 
ATOM      2  C   UNL d   1      32.466  20.219 -22.669  0.00  0.00     0.018 A 
ATOM      3  C   UNL d   1      32.646  19.433 -22.850  0.00  0.00     0.064 A 
ATOM      4  C   UNL d   1      33.038  20.053 -21.380  0.00  0.00     0.012 A 
ATOM      5  C   UNL d   1      33.023  18.956 -22.293  0.00  0.00     0.005 A 
ATOM      6  C   UNL d   1      33.216  19.274 -21.559  0.00  0.00     0.001 A 
ATOM      7  C   UNL d   1      33.235  20.362 -20.641  0.00  0.00     0.001 C 
ENDROOT
BRANCH   3   8
ATOM      8  C   UNL d   1      32.448  19.123 -23.589  0.00  0.00     0.300 C 
ATOM      9  O   UNL d   1      32.564  19.579 -24.269  0.00  0.00    -0.259 OA
BRANCH   8  10
ATOM     10  O   UNL d   1      32.137  18.364 -23.649  0.00  0.00    -0.271 OA
BRANCH  10  11
ATOM     11  C   UNL d   1      31.790  18.118 -24.352  0.00  0.00     0.126 C 
BRANCH  11  12
ATOM     12  C   UNL d   1      31.260  17.485 -24.355  0.00  0.00     0.027 A 
ATOM     13  C   UNL d   1      30.462  17.623 -24.438  0.00  0.00     0.028 A 
ATOM     14  C   UNL d   1      29.927  16.994 -24.442  0.00  0.00     0.119 A 
ATOM     15  O   UNL d   1      29.100  16.960 -24.516  0.00  0.00    -0.300 OA
ATOM     16  C   UNL d   1      30.210  16.221 -24.361  0.00  0.00     0.119 A 
ATOM     17  C   UNL d   1      28.876  16.160 -24.479  0.00  0.00     0.304 A 
ATOM     18  O   UNL d   1      29.560  15.708 -24.384  0.00  0.00    -0.300 OA
ATOM     19  C   UNL d   1      31.024  16.077 -24.276  0.00  0.00     0.026 A 
ATOM     20  C   UNL d   1      31.547  16.715 -24.274  0.00  0.00     0.004 A 
ENDBRANCH  11  12
ENDBRANCH  10  11
ENDBRANCH   8  10
ENDBRANCH   3   8
BRANCH   1  21
ATOM     21  S   UNL d   1      32.485  21.311 -21.750  0.00  0.00     0.271 S 
ATOM     22  O   UNL d   1      31.817  21.059 -21.318  0.00  0.00    -0.200 OA
ATOM     23  O   UNL d   1      33.240  21.596 -22.239  0.00  0.00    -0.200 OA
BRANCH  21  24
ATOM     24  N   UNL d   1      32.351  22.106 -21.600  0.00  0.00    -0.229 N 
ATOM     25  C   UNL d   1      32.256  22.637 -22.222  0.00  0.00     0.092 A 
ATOM     26  C   UNL d   1      32.122  23.436 -22.062  0.00  0.00     0.020 A 
ATOM     27  C   UNL d   1      32.083  23.699 -21.287  0.00  0.00     0.003 A 
ATOM     28  C   UNL d   1      32.178  23.167 -20.670  0.00  0.00     0.020 A 
ATOM     29  C   UNL d   1      32.311  22.377 -20.823  0.00  0.00     0.092 A 
ENDBRANCH  21  24
ENDBRANCH   1  21
TORSDOF 6
ENDMDL
MODEL 2
REMARK VINA RESULT:      -2.2      1.443      2.516
REMARK  6 active torsions:
REMARK  status: ('A' for Active; 'I' for Inactive)
REMARK    1  A    between atoms: C_2  and  S_1 
REMARK    2  A    between atoms: N_3  and  S_1 
REMARK    3  A    between atoms: C_5  and  C_6 
REMARK    4  A    between atoms: O_13  and  C_5 
REMARK    5  A    between atoms: C_22  and  O_13 
REMARK    6  A    between atoms: C_21  and  C_22 
ROOT
ATOM      1  C   UNL d   1      32.706  22.161 -21.137  0.00  0.00     0.104 A 
ATOM      2  C   UNL d   1      32.820  21.345 -21.173  0.00  0.00     0.018 A 
ATOM      3  C   UNL d   1      32.840  20.961 -21.905  0.00  0.00     0.064 A 
ATOM      4  C   UNL d   1      32.614  22.587 -21.829  0.00  0.00     0.012 A 
ATOM      5  C   UNL d   1      32.747  21.394 -22.601  0.00  0.00     0.005 A 
ATOM      6  C   UNL d   1      32.634  22.207 -22.555  0.00  0.00     0.001 A 
ATOM      7  C   UNL d   1      32.500  23.403 -21.794  0.00  0.00     0.001 C 
ENDROOT
BRANCH   3   8
ATOM      8  C   UNL d   1      32.954  20.145 -21.940  0.00  0.00     0.300 C 
ATOM      9  O   UNL d   1      33.099  19.720 -21.246  0.00  0.00    -0.259 OA
BRANCH   8  10
ATOM     10  O   UNL d   1      32.924  19.755 -22.664  0.00  0.00    -0.271 OA
BRANCH  10  11
ATOM     11  C   UNL d   1      33.117  18.958 -22.708  0.00  0.00     0.126 C 
BRANCH  11  12
ATOM     12  C   UNL d   1      32.840  18.496 -23.334  0.00  0.00     0.027 A 
ATOM     13  C   UNL d   1      32.365  17.852 -23.184  0.00  0.00     0.028 A 
ATOM     14  C   UNL d   1      32.084  17.387 -23.806  0.00  0.00     0.119 A 
ATOM     15  O   UNL d   1      31.601  16.710 -23.829  0.00  0.00    -0.300 OA
ATOM     16  C   UNL d   1      32.290  17.581 -24.583  0.00  0.00     0.119 A 
ATOM     17  C   UNL d   1      31.512  16.491 -24.626  0.00  0.00     0.304 A 
ATOM     18  O   UNL d   1      31.936  17.027 -25.087  0.00  0.00    -0.300 OA
ATOM     19  C   UNL d   1      32.775  18.238 -24.739  0.00  0.00     0.026 A 
ATOM     20  C   UNL d   1      33.048  18.694 -24.108  0.00  0.00     0.004 A 
ENDBRANCH  11  12
ENDBRANCH  10  11
ENDBRANCH   8  10
ENDBRANCH   3   8
BRANCH   1  21
ATOM     21  S   UNL d   1      32.685  22.543 -20.408  0.00  0.00     0.271 S 
ATOM     22  O   UNL d   1      33.236  23.105 -20.688  0.00  0.00    -0.200 OA
ATOM     23  O   UNL d   1      32.063  21.908 -20.093  0.00  0.00    -0.200 OA
BRANCH  21  24
ATOM     24  N   UNL d   1      32.629  22.886 -19.666  0.00  0.00    -0.229 N 
ATOM     25  C   UNL d   1      31.964  23.326 -19.460  0.00  0.00     0.092 A 
ATOM     26  C   UNL d   1      31.914  23.668 -18.710  0.00  0.00     0.020 A 
ATOM     27  C   UNL d   1      32.525  23.569 -18.173  0.00  0.00     0.003 A 
ATOM     28  C   UNL d   1      33.185  23.131 -18.381  0.00  0.00     0.020 A 
ATOM     29  C   UNL d   1      33.239  22.791 -19.121  0.00  0.00     0.092 A 
ENDBRANCH  21  24
ENDBRANCH   1  21
TORSDOF 6
ENDMDL
