MODEL 1
REMARK VINA RESULT:       1.1      0.000      0.000
REMARK  9 active torsions:
REMARK  status: ('A' for Active; 'I' for Inactive)
REMARK    1  A    between atoms: P_3  and  C_1 
REMARK    2  A    between atoms: O_13  and  P_3 
REMARK    3  A    between atoms: O_14  and  P_3 
REMARK    4  A    between atoms: N_8  and  C_4 
REMARK    5  A    between atoms: C_15  and  N_8 
REMARK    6  A    between atoms: C_25  and  O_13 
REMARK    7  A    between atoms: C_26  and  O_14 
REMARK    8  A    between atoms: O_23  and  C_16 
REMARK    9  A    between atoms: O_24  and  C_17 
ROOT
ATOM      1  C   UNL d   1      30.442  17.282 -24.329  0.00  0.00     0.174 A 
ATOM      2  C   UNL d   1      31.184  17.594 -24.542  0.00  0.00     0.100 A 
ATOM      3  C   UNL d   1      31.872  17.290 -24.202  0.00  0.00     0.095 A 
ATOM      4  N   UNL d   1      30.397  16.669 -23.777  0.00  0.00    -0.237 NA
ATOM      5  C   UNL d   1      31.825  16.680 -23.652  0.00  0.00     0.038 A 
ATOM      6  C   UNL d   1      31.084  16.368 -23.439  0.00  0.00     0.083 A 
ATOM      7  C   UNL d   1      32.510  16.381 -23.317  0.00  0.00     0.027 A 
ATOM      8 CL   UNL d   1      31.227  18.210 -25.097  0.00  0.00    -0.079 Cl
ATOM      9  C   UNL d   1      31.036  15.758 -22.890  0.00  0.00     0.021 A 
ATOM     10  C   UNL d   1      32.468  15.763 -22.760  0.00  0.00     0.094 A 
ATOM     11  C   UNL d   1      31.723  15.456 -22.552  0.00  0.00     0.026 A 
ENDROOT
BRANCH   3  12
ATOM     12  N   UNL d   1      32.611  17.601 -24.415  0.00  0.00    -0.245 NA
BRANCH  12  13
ATOM     13  C   UNL d   1      32.762  18.414 -24.338  0.00  0.00     0.082 A 
ATOM     14  C   UNL d   1      32.618  18.915 -24.974  0.00  0.00     0.021 A 
ATOM     15  C   UNL d   1      32.767  19.732 -24.908  0.00  0.00     0.026 A 
ATOM     16  C   UNL d   1      33.061  20.035 -24.195  0.00  0.00     0.094 A 
ATOM     17  C   UNL d   1      33.204  19.522 -23.553  0.00  0.00     0.026 A 
ATOM     18  C   UNL d   1      33.054  18.715 -23.629  0.00  0.00     0.021 A 
BRANCH  16  19
ATOM     19  O   UNL d   1      33.209  20.845 -24.125  0.00  0.00    -0.328 OA
ATOM     20  C   UNL d   1      33.149  21.211 -23.381  0.00  0.00     0.181 C 
ENDBRANCH  16  19
ENDBRANCH  12  13
ENDBRANCH   3  12
BRANCH   1  21
ATOM     21  P   UNL d   1      29.748  17.587 -24.671  0.00  0.00     0.393 P 
ATOM     22  O   UNL d   1      29.906  18.319 -24.322  0.00  0.00    -0.251 OA
BRANCH  21  23
ATOM     23  O   UNL d   1      29.053  17.862 -25.022  0.00  0.00    -0.263 OA
BRANCH  23  24
ATOM     24  C   UNL d   1      28.622  18.471 -24.671  0.00  0.00     0.126 C 
ATOM     25  C   UNL d   1      28.514  19.186 -25.066  0.00  0.00     0.029 C 
ENDBRANCH  23  24
ENDBRANCH  21  23
BRANCH  21  26
ATOM     26  O   UNL d   1      29.423  16.947 -25.095  0.00  0.00    -0.263 OA
BRANCH  26  27
ATOM     27  C   UNL d   1      28.658  16.683 -24.932  0.00  0.00     0.126 C 
ATOM     28  C   UNL d   1      28.447  15.901 -25.085  0.00  0.00     0.029 C 
ENDBRANCH  26  27
ENDBRANCH  21  26
ENDBRANCH   1  21
BRANCH  10  29
ATOM     29  O   UNL d   1      33.155  15.462 -22.422  0.00  0.00    -0.328 OA
ATOM     30  C   UNL d   1      33.241  15.457 -21.604  0.00  0.00     0.181 C 
ENDBRANCH  10  29
TORSDOF 9
ENDMDL
MODEL 2
REMARK VINA RESULT:       1.6      1.494      2.083
REMARK  9 active torsions:
REMARK  status: ('A' for Active; 'I' for Inactive)
REMARK    1  A    between atoms: P_3  and  C_1 
REMARK    2  A    between atoms: O_13  and  P_3 
REMARK    3  A    between atoms: O_14  and  P_3 
REMARK    4  A    between atoms: N_8  and  C_4 
REMARK    5  A    between atoms: C_15  and  N_8 
REMARK    6  A    between atoms: C_25  and  O_13 
REMARK    7  A    between atoms: C_26  and  O_14 
REMARK    8  A    between atoms: O_23  and  C_16 
REMARK    9  A    between atoms: O_24  and  C_17 
ROOT
ATOM      1  C   UNL d   1      29.326  16.006 -23.721  0.00  0.00     0.174 A 
ATOM      2  C   UNL d   1      29.833  16.164 -24.362  0.00  0.00     0.100 A 
ATOM      3  C   UNL d   1      30.651  16.103 -24.265  0.00  0.00     0.095 A 
ATOM      4  N   UNL d   1      29.643  15.789 -22.989  0.00  0.00    -0.237 NA
ATOM      5  C   UNL d   1      30.964  15.887 -23.536  0.00  0.00     0.038 A 
ATOM      6  C   UNL d   1      30.458  15.729 -22.895  0.00  0.00     0.083 A 
ATOM      7  C   UNL d   1      31.776  15.828 -23.443  0.00  0.00     0.027 A 
ATOM      8 CL   UNL d   1      29.514  16.382 -25.096  0.00  0.00    -0.079 Cl
ATOM      9  C   UNL d   1      30.771  15.513 -22.165  0.00  0.00     0.021 A 
ATOM     10  C   UNL d   1      32.099  15.609 -22.707  0.00  0.00     0.094 A 
ATOM     11  C   UNL d   1      31.586  15.453 -22.071  0.00  0.00     0.026 A 
ENDROOT
BRANCH   3  12
ATOM     12  N   UNL d   1      31.156  16.260 -24.904  0.00  0.00    -0.245 NA
BRANCH  12  13
ATOM     13  C   UNL d   1      31.559  16.984 -24.952  0.00  0.00     0.082 A 
ATOM     14  C   UNL d   1      31.136  17.688 -24.906  0.00  0.00     0.021 A 
ATOM     15  C   UNL d   1      31.531  18.420 -24.954  0.00  0.00     0.026 A 
ATOM     16  C   UNL d   1      32.354  18.432 -25.048  0.00  0.00     0.094 A 
ATOM     17  C   UNL d   1      32.778  17.715 -25.094  0.00  0.00     0.026 A 
ATOM     18  C   UNL d   1      32.378  16.996 -25.046  0.00  0.00     0.021 A 
BRANCH  16  19
ATOM     19  O   UNL d   1      32.750  19.156 -25.096  0.00  0.00    -0.328 OA
ATOM     20  C   UNL d   1      32.449  19.816 -24.689  0.00  0.00     0.181 C 
ENDBRANCH  16  19
ENDBRANCH  12  13
ENDBRANCH   3  12
BRANCH   1  21
ATOM     21  P   UNL d   1      28.502  16.067 -23.816  0.00  0.00     0.393 P 
ATOM     22  O   UNL d   1      28.558  15.630 -24.515  0.00  0.00    -0.251 OA
BRANCH  21  23
ATOM     23  O   UNL d   1      27.683  16.143 -23.885  0.00  0.00    -0.263 OA
BRANCH  23  24
ATOM     24  C   UNL d   1      27.220  15.490 -24.083  0.00  0.00     0.126 C 
ATOM     25  C   UNL d   1      26.416  15.480 -23.902  0.00  0.00     0.029 C 
ENDBRANCH  23  24
ENDBRANCH  21  23
BRANCH  21  26
ATOM     26  O   UNL d   1      28.245  16.508 -23.157  0.00  0.00    -0.263 OA
BRANCH  26  27
ATOM     27  C   UNL d   1      28.121  17.321 -23.222  0.00  0.00     0.126 C 
ATOM     28  C   UNL d   1      27.619  17.708 -22.694  0.00  0.00     0.029 C 
ENDBRANCH  26  27
ENDBRANCH  21  26
ENDBRANCH   1  21
BRANCH  10  29
ATOM     29  O   UNL d   1      32.914  15.549 -22.613  0.00  0.00    -0.328 OA
ATOM     30  C   UNL d   1      33.240  15.552 -21.857  0.00  0.00     0.181 C 
ENDBRANCH  10  29
TORSDOF 9
ENDMDL
