MODEL 1
REMARK VINA RESULT:      -3.2      0.000      0.000
REMARK  5 active torsions:
REMARK  status: ('A' for Active; 'I' for Inactive)
REMARK    1  A    between atoms: S_2  and  C_1 
REMARK    2  A    between atoms: N_11  and  S_2 
REMARK    3  A    between atoms: C_14  and  N_11 
REMARK    4  A    between atoms: C_16  and  C_14 
REMARK    5  A    between atoms: C_15  and  C_16 
ROOT
ATOM      1  S   UNL d   1      32.726  18.201 -23.333  0.00  0.00     0.287 S 
ATOM      2  O   UNL d   1      32.202  18.110 -22.661  0.00  0.00    -0.198 OA
ATOM      3  O   UNL d   1      33.241  18.297 -23.974  0.00  0.00    -0.198 OA
ENDROOT
BRANCH   1   4
ATOM      4  C   UNL d   1      32.221  17.724 -23.791  0.00  0.00     0.125 A 
ATOM      5  C   UNL d   1      32.336  16.893 -23.822  0.00  0.00     0.121 A 
ATOM      6  N   UNL d   1      32.900  16.392 -23.460  0.00  0.00    -0.190 NA
ATOM      7  C   UNL d   1      31.827  16.435 -24.280  0.00  0.00     0.110 A 
ATOM      8  S   UNL d   1      32.718  15.629 -23.710  0.00  0.00     0.117 SA
ATOM      9  N   UNL d   1      32.059  15.653 -24.214  0.00  0.00    -0.190 NA
ATOM     10  C   UNL d   1      31.200  16.804 -24.709  0.00  0.00     0.021 A 
ATOM     11  C   UNL d   1      31.101  17.621 -24.668  0.00  0.00     0.002 A 
ATOM     12  C   UNL d   1      31.603  18.088 -24.214  0.00  0.00     0.015 A 
ENDBRANCH   1   4
BRANCH   1  13
ATOM     13  N   UNL d   1      33.229  18.682 -22.862  0.00  0.00    -0.157 NA
BRANCH  13  14
ATOM     14  C   UNL d   1      33.015  19.466 -22.664  0.00  0.00     0.112 C 
BRANCH  14  15
ATOM     15  C   UNL d   1      33.238  19.795 -21.939  0.00  0.00     0.021 C 
BRANCH  15  16
ATOM     16  C   UNL d   1      33.009  20.590 -21.770  0.00  0.00     0.002 A 
ATOM     17  C   UNL d   1      32.559  20.750 -21.092  0.00  0.00     0.000 A 
ATOM     18  C   UNL d   1      32.341  21.519 -20.933  0.00  0.00     0.000 A 
ATOM     19  C   UNL d   1      32.566  22.121 -21.439  0.00  0.00     0.000 A 
ATOM     20  C   UNL d   1      33.004  21.968 -22.099  0.00  0.00     0.000 A 
ATOM     21  C   UNL d   1      33.227  21.196 -22.265  0.00  0.00     0.000 A 
ENDBRANCH  15  16
ENDBRANCH  14  15
ENDBRANCH  13  14
ENDBRANCH   1  13
TORSDOF 5
ENDMDL
MODEL 2
REMARK VINA RESULT:      -2.4      1.495      1.961
REMARK  5 active torsions:
REMARK  status: ('A' for Active; 'I' for Inactive)
REMARK    1  A    between atoms: S_2  and  C_1 
REMARK    2  A    between atoms: N_11  and  S_2 
REMARK    3  A    between atoms: C_14  and  N_11 
REMARK    4  A    between atoms: C_16  and  C_14 
REMARK    5  A    between atoms: C_15  and  C_16 
ROOT
ATOM      1  S   UNL d   1      31.957  17.512 -24.087  0.00  0.00     0.287 S 
ATOM      2  O   UNL d   1      31.877  17.477 -23.234  0.00  0.00    -0.198 OA
ATOM      3  O   UNL d   1      32.045  17.556 -24.909  0.00  0.00    -0.198 OA
ENDROOT
BRANCH   1   4
ATOM      4  C   UNL d   1      31.409  16.890 -24.164  0.00  0.00     0.125 A 
ATOM      5  C   UNL d   1      30.643  17.038 -24.471  0.00  0.00     0.121 A 
ATOM      6  N   UNL d   1      30.274  17.738 -24.743  0.00  0.00    -0.190 NA
ATOM      7  C   UNL d   1      30.111  16.411 -24.541  0.00  0.00     0.110 A 
ATOM      8  S   UNL d   1      29.514  17.517 -24.975  0.00  0.00     0.117 SA
ATOM      9  N   UNL d   1      29.413  16.703 -24.852  0.00  0.00    -0.190 NA
ATOM     10  C   UNL d   1      30.344  15.635 -24.304  0.00  0.00     0.021 A 
ATOM     11  C   UNL d   1      31.100  15.507 -24.004  0.00  0.00     0.002 A 
ATOM     12  C   UNL d   1      31.639  16.124 -23.930  0.00  0.00     0.015 A 
ENDBRANCH   1   4
BRANCH   1  13
ATOM     13  N   UNL d   1      32.510  18.139 -23.998  0.00  0.00    -0.157 NA
BRANCH  13  14
ATOM     14  C   UNL d   1      32.572  18.560 -23.277  0.00  0.00     0.112 C 
BRANCH  14  15
ATOM     15  C   UNL d   1      33.239  19.019 -23.113  0.00  0.00     0.021 C 
BRANCH  15  16
ATOM     16  C   UNL d   1      33.172  19.635 -22.538  0.00  0.00     0.002 A 
ATOM     17  C   UNL d   1      33.036  20.414 -22.790  0.00  0.00     0.000 A 
ATOM     18  C   UNL d   1      32.972  21.005 -22.231  0.00  0.00     0.000 A 
ATOM     19  C   UNL d   1      33.043  20.826 -21.437  0.00  0.00     0.000 A 
ATOM     20  C   UNL d   1      33.176  20.070 -21.191  0.00  0.00     0.000 A 
ATOM     21  C   UNL d   1      33.241  19.470 -21.747  0.00  0.00     0.000 A 
ENDBRANCH  15  16
ENDBRANCH  14  15
ENDBRANCH  13  14
ENDBRANCH   1  13
TORSDOF 5
ENDMDL
MODEL 3
REMARK VINA RESULT:      -1.9      2.157      2.964
REMARK  5 active torsions:
REMARK  status: ('A' for Active; 'I' for Inactive)
REMARK    1  A    between atoms: S_2  and  C_1 
REMARK    2  A    between atoms: N_11  and  S_2 
REMARK    3  A    between atoms: C_14  and  N_11 
REMARK    4  A    between atoms: C_16  and  C_14 
REMARK    5  A    between atoms: C_15  and  C_16 
ROOT
ATOM      1  S   UNL d   1      30.861  17.125 -24.344  0.00  0.00     0.287 S 
ATOM      2  O   UNL d   1      30.966  16.689 -25.075  0.00  0.00    -0.198 OA
ATOM      3  O   UNL d   1      30.774  17.548 -23.638  0.00  0.00    -0.198 OA
ENDROOT
BRANCH   1   4
ATOM      4  C   UNL d   1      30.040  16.997 -24.387  0.00  0.00     0.125 A 
ATOM      5  C   UNL d   1      29.675  16.424 -23.894  0.00  0.00     0.121 A 
ATOM      6  N   UNL d   1      29.983  15.904 -23.316  0.00  0.00    -0.190 NA
ATOM      7  C   UNL d   1      28.860  16.310 -23.949  0.00  0.00     0.110 A 
ATOM      8  S   UNL d   1      29.339  15.479 -23.028  0.00  0.00     0.117 SA
ATOM      9  N   UNL d   1      28.648  15.727 -23.415  0.00  0.00    -0.190 NA
ATOM     10  C   UNL d   1      28.407  16.768 -24.494  0.00  0.00     0.021 A 
ATOM     11  C   UNL d   1      28.781  17.327 -24.971  0.00  0.00     0.002 A 
ATOM     12  C   UNL d   1      29.593  17.449 -24.925  0.00  0.00     0.015 A 
ENDBRANCH   1   4
BRANCH   1  13
ATOM     13  N   UNL d   1      31.692  17.247 -24.311  0.00  0.00    -0.157 NA
BRANCH  13  14
ATOM     14  C   UNL d   1      32.038  17.941 -24.628  0.00  0.00     0.112 C 
BRANCH  14  15
ATOM     15  C   UNL d   1      32.783  18.194 -24.374  0.00  0.00     0.021 C 
BRANCH  15  16
ATOM     16  C   UNL d   1      32.940  19.023 -24.349  0.00  0.00     0.002 A 
ATOM     17  C   UNL d   1      32.981  19.453 -25.057  0.00  0.00     0.000 A 
ATOM     18  C   UNL d   1      33.132  20.254 -25.027  0.00  0.00     0.000 A 
ATOM     19  C   UNL d   1      33.241  20.622 -24.305  0.00  0.00     0.000 A 
ATOM     20  C   UNL d   1      33.202  20.206 -23.615  0.00  0.00     0.000 A 
ATOM     21  C   UNL d   1      33.050  19.401 -23.638  0.00  0.00     0.000 A 
ENDBRANCH  15  16
ENDBRANCH  14  15
ENDBRANCH  13  14
ENDBRANCH   1  13
TORSDOF 5
ENDMDL
