MODEL 1
REMARK VINA RESULT:      -8.2      0.000      0.000
REMARK  4 active torsions:
REMARK  status: ('A' for Active; 'I' for Inactive)
REMARK    1  A    between atoms: C_2  and  C_1 
REMARK    2  A    between atoms: N_13  and  C_6 
REMARK    3  A    between atoms: N_12  and  N_13 
REMARK    4  A    between atoms: C_15  and  N_12 
ROOT
ATOM      1  C   UNL d   1     -47.492  13.414  22.759  0.00  0.00     0.095 A 
ATOM      2  N   UNL d   1     -47.189  12.686  23.041  0.00  0.00    -0.219 NA
ATOM      3  C   UNL d   1     -46.395  12.804  23.191  0.00  0.00     0.215 A 
ATOM      4  S   UNL d   1     -46.179  13.576  23.016  0.00  0.00    -0.045 SA
ATOM      5  C   UNL d   1     -46.861  13.944  22.751  0.00  0.00     0.058 A 
ENDROOT
BRANCH   1   6
ATOM      6  C   UNL d   1     -48.265  13.623  22.519  0.00  0.00     0.082 A 
ATOM      7  C   UNL d   1     -48.536  13.376  21.790  0.00  0.00     0.302 A 
ATOM      8  O   UNL d   1     -49.320  13.576  21.523  0.00  0.00    -0.273 OA
ATOM      9  O   UNL d   1     -48.008  12.906  21.296  0.00  0.00    -0.259 OA
ATOM     10  C   UNL d   1     -49.813  14.041  22.039  0.00  0.00     0.103 A 
ATOM     11  C   UNL d   1     -49.542  14.288  22.768  0.00  0.00     0.023 A 
ATOM     12  C   UNL d   1     -50.570  14.227  21.767  0.00  0.00     0.025 A 
ATOM     13  C   UNL d   1     -48.769  14.079  23.008  0.00  0.00     0.009 A 
ATOM     14  C   UNL d   1     -50.018  14.731  23.252  0.00  0.00     0.002 A 
ATOM     15  C   UNL d   1     -50.792  14.940  23.012  0.00  0.00     0.000 A 
ATOM     16  C   UNL d   1     -51.063  14.693  22.283  0.00  0.00     0.002 A 
ENDBRANCH   1   6
BRANCH   3  17
ATOM     17  N   UNL d   1     -45.885  12.186  23.489  0.00  0.00    -0.122 NA
BRANCH  17  18
ATOM     18  N   UNL d   1     -45.303  11.890  22.975  0.00  0.00    -0.146 NA
BRANCH  18  19
ATOM     19  C   UNL d   1     -44.828  11.250  23.179  0.00  0.00     0.103 A 
ATOM     20  C   UNL d   1     -44.003  11.300  23.055  0.00  0.00     0.021 A 
ATOM     21  C   UNL d   1     -43.518  10.646  23.264  0.00  0.00     0.002 A 
ATOM     22  C   UNL d   1     -43.887   9.981  23.584  0.00  0.00     0.000 A 
ATOM     23  C   UNL d   1     -44.689   9.948  23.698  0.00  0.00     0.002 A 
ATOM     24  C   UNL d   1     -45.159  10.582  23.495  0.00  0.00     0.021 A 
ENDBRANCH  18  19
ENDBRANCH  17  18
ENDBRANCH   3  17
TORSDOF 4
ENDMDL
MODEL 2
REMARK VINA RESULT:      -6.9      1.253      1.657
REMARK  4 active torsions:
REMARK  status: ('A' for Active; 'I' for Inactive)
REMARK    1  A    between atoms: C_2  and  C_1 
REMARK    2  A    between atoms: N_13  and  C_6 
REMARK    3  A    between atoms: N_12  and  N_13 
REMARK    4  A    between atoms: C_15  and  N_12 
ROOT
ATOM      1  C   UNL d   1     -47.569  13.514  22.804  0.00  0.00     0.095 A 
ATOM      2  N   UNL d   1     -46.826  13.730  22.485  0.00  0.00    -0.219 NA
ATOM      3  C   UNL d   1     -46.273  13.225  22.810  0.00  0.00     0.215 A 
ATOM      4  S   UNL d   1     -46.633  12.696  23.324  0.00  0.00    -0.045 SA
ATOM      5  C   UNL d   1     -47.430  12.881  23.314  0.00  0.00     0.058 A 
ENDROOT
BRANCH   1   6
ATOM      6  C   UNL d   1     -48.330  13.835  22.673  0.00  0.00     0.082 A 
ATOM      7  C   UNL d   1     -48.774  13.563  22.045  0.00  0.00     0.302 A 
ATOM      8  O   UNL d   1     -49.552  13.875  21.891  0.00  0.00    -0.273 OA
ATOM      9  O   UNL d   1     -48.435  12.951  21.540  0.00  0.00    -0.259 OA
ATOM     10  C   UNL d   1     -49.852  14.478  22.411  0.00  0.00     0.103 A 
ATOM     11  C   UNL d   1     -49.408  14.750  23.039  0.00  0.00     0.023 A 
ATOM     12  C   UNL d   1     -50.607  14.770  22.249  0.00  0.00     0.025 A 
ATOM     13  C   UNL d   1     -48.647  14.429  23.170  0.00  0.00     0.009 A 
ATOM     14  C   UNL d   1     -49.703  15.325  23.528  0.00  0.00     0.002 A 
ATOM     15  C   UNL d   1     -50.465  15.646  23.397  0.00  0.00     0.000 A 
ATOM     16  C   UNL d   1     -50.909  15.374  22.769  0.00  0.00     0.002 A 
ENDBRANCH   1   6
BRANCH   3  17
ATOM     17  N   UNL d   1     -45.441  13.268  22.621  0.00  0.00    -0.122 NA
BRANCH  17  18
ATOM     18  N   UNL d   1     -45.141  12.707  22.085  0.00  0.00    -0.146 NA
BRANCH  18  19
ATOM     19  C   UNL d   1     -44.345  12.680  21.885  0.00  0.00     0.103 A 
ATOM     20  C   UNL d   1     -43.857  12.098  22.233  0.00  0.00     0.021 A 
ATOM     21  C   UNL d   1     -43.042  12.071  22.029  0.00  0.00     0.002 A 
ATOM     22  C   UNL d   1     -42.764  12.627  21.487  0.00  0.00     0.000 A 
ATOM     23  C   UNL d   1     -43.249  13.186  21.157  0.00  0.00     0.002 A 
ATOM     24  C   UNL d   1     -44.040  13.212  21.356  0.00  0.00     0.021 A 
ENDBRANCH  18  19
ENDBRANCH  17  18
ENDBRANCH   3  17
TORSDOF 4
ENDMDL
MODEL 3
REMARK VINA RESULT:      -6.6      1.446      5.574
REMARK  4 active torsions:
REMARK  status: ('A' for Active; 'I' for Inactive)
REMARK    1  A    between atoms: C_2  and  C_1 
REMARK    2  A    between atoms: N_13  and  C_6 
REMARK    3  A    between atoms: N_12  and  N_13 
REMARK    4  A    between atoms: C_15  and  N_12 
ROOT
ATOM      1  C   UNL d   1     -47.195  11.996  23.359  0.00  0.00     0.095 A 
ATOM      2  N   UNL d   1     -47.569  12.741  23.440  0.00  0.00    -0.219 NA
ATOM      3  C   UNL d   1     -48.372  12.596  23.485  0.00  0.00     0.215 A 
ATOM      4  S   UNL d   1     -48.524  11.791  23.437  0.00  0.00    -0.045 SA
ATOM      5  C   UNL d   1     -47.793  11.430  23.360  0.00  0.00     0.058 A 
ENDROOT
BRANCH   1   6
ATOM      6  C   UNL d   1     -46.384  11.802  23.289  0.00  0.00     0.082 A 
ATOM      7  C   UNL d   1     -45.869  12.352  22.976  0.00  0.00     0.302 A 
ATOM      8  O   UNL d   1     -45.039  12.178  22.895  0.00  0.00    -0.273 OA
ATOM      9  O   UNL d   1     -46.187  13.116  22.731  0.00  0.00    -0.259 OA
ATOM     10  C   UNL d   1     -44.763  11.414  23.148  0.00  0.00     0.103 A 
ATOM     11  C   UNL d   1     -45.278  10.863  23.460  0.00  0.00     0.023 A 
ATOM     12  C   UNL d   1     -43.956  11.259  23.062  0.00  0.00     0.025 A 
ATOM     13  C   UNL d   1     -46.088  11.057  23.530  0.00  0.00     0.009 A 
ATOM     14  C   UNL d   1     -45.005  10.138  23.698  0.00  0.00     0.002 A 
ATOM     15  C   UNL d   1     -44.194   9.944  23.627  0.00  0.00     0.000 A 
ATOM     16  C   UNL d   1     -43.679  10.494  23.315  0.00  0.00     0.002 A 
ENDBRANCH   1   6
BRANCH   3  17
ATOM     17  N   UNL d   1     -48.949  13.221  23.571  0.00  0.00    -0.122 NA
BRANCH  17  18
ATOM     18  N   UNL d   1     -49.127  13.672  22.896  0.00  0.00    -0.146 NA
BRANCH  18  19
ATOM     19  C   UNL d   1     -49.663  14.295  22.919  0.00  0.00     0.103 A 
ATOM     20  C   UNL d   1     -49.440  15.010  23.289  0.00  0.00     0.021 A 
ATOM     21  C   UNL d   1     -49.988  15.647  23.312  0.00  0.00     0.002 A 
ATOM     22  C   UNL d   1     -50.727  15.530  22.965  0.00  0.00     0.000 A 
ATOM     23  C   UNL d   1     -50.929  14.831  22.609  0.00  0.00     0.002 A 
ATOM     24  C   UNL d   1     -50.397  14.213  22.587  0.00  0.00     0.021 A 
ENDBRANCH  18  19
ENDBRANCH  17  18
ENDBRANCH   3  17
TORSDOF 4
ENDMDL
MODEL 4
REMARK VINA RESULT:      -5.8      8.413      9.856
REMARK  4 active torsions:
REMARK  status: ('A' for Active; 'I' for Inactive)
REMARK    1  A    between atoms: C_2  and  C_1 
REMARK    2  A    between atoms: N_13  and  C_6 
REMARK    3  A    between atoms: N_12  and  N_13 
REMARK    4  A    between atoms: C_15  and  N_12 
ROOT
ATOM      1  C   UNL d   1     -39.792  14.633  18.819  0.00  0.00     0.095 A 
ATOM      2  N   UNL d   1     -39.454  14.939  19.522  0.00  0.00    -0.219 NA
ATOM      3  C   UNL d   1     -40.001  14.820  20.116  0.00  0.00     0.215 A 
ATOM      4  S   UNL d   1     -40.673  14.452  19.821  0.00  0.00    -0.045 SA
ATOM      5  C   UNL d   1     -40.534  14.341  19.023  0.00  0.00     0.058 A 
ENDROOT
BRANCH   1   6
ATOM      6  C   UNL d   1     -39.487  14.601  18.041  0.00  0.00     0.082 A 
ATOM      7  C   UNL d   1     -39.656  15.208  17.522  0.00  0.00     0.302 A 
ATOM      8  O   UNL d   1     -39.357  15.198  16.724  0.00  0.00    -0.273 OA
ATOM      9  O   UNL d   1     -40.144  15.861  17.803  0.00  0.00    -0.259 OA
ATOM     10  C   UNL d   1     -38.878  14.537  16.483  0.00  0.00     0.103 A 
ATOM     11  C   UNL d   1     -38.709  13.930  17.002  0.00  0.00     0.023 A 
ATOM     12  C   UNL d   1     -38.595  14.541  15.707  0.00  0.00     0.025 A 
ATOM     13  C   UNL d   1     -39.014  13.961  17.780  0.00  0.00     0.009 A 
ATOM     14  C   UNL d   1     -38.252  13.304  16.763  0.00  0.00     0.002 A 
ATOM     15  C   UNL d   1     -37.947  13.272  15.984  0.00  0.00     0.000 A 
ATOM     16  C   UNL d   1     -38.116  13.879  15.466  0.00  0.00     0.002 A 
ENDBRANCH   1   6
BRANCH   3  17
ATOM     17  N   UNL d   1     -39.862  15.060  20.925  0.00  0.00    -0.122 NA
BRANCH  17  18
ATOM     18  N   UNL d   1     -39.298  14.631  21.359  0.00  0.00    -0.146 NA
BRANCH  18  19
ATOM     19  C   UNL d   1     -39.082  14.845  22.122  0.00  0.00     0.103 A 
ATOM     20  C   UNL d   1     -39.010  15.656  22.312  0.00  0.00     0.021 A 
ATOM     21  C   UNL d   1     -38.790  15.876  23.093  0.00  0.00     0.002 A 
ATOM     22  C   UNL d   1     -38.655  15.271  23.638  0.00  0.00     0.000 A 
ATOM     23  C   UNL d   1     -38.730  14.489  23.439  0.00  0.00     0.002 A 
ATOM     24  C   UNL d   1     -38.943  14.276  22.681  0.00  0.00     0.021 A 
ENDBRANCH  18  19
ENDBRANCH  17  18
ENDBRANCH   3  17
TORSDOF 4
ENDMDL
MODEL 5
REMARK VINA RESULT:      -5.6      8.765     10.141
REMARK  4 active torsions:
REMARK  status: ('A' for Active; 'I' for Inactive)
REMARK    1  A    between atoms: C_2  and  C_1 
REMARK    2  A    between atoms: N_13  and  C_6 
REMARK    3  A    between atoms: N_12  and  N_13 
REMARK    4  A    between atoms: C_15  and  N_12 
ROOT
ATOM      1  C   UNL d   1     -39.267  14.439  18.498  0.00  0.00     0.095 A 
ATOM      2  N   UNL d   1     -38.855  14.435  19.227  0.00  0.00    -0.219 NA
ATOM      3  C   UNL d   1     -39.395  14.644  19.803  0.00  0.00     0.215 A 
ATOM      4  S   UNL d   1     -40.133  14.781  19.471  0.00  0.00    -0.045 SA
ATOM      5  C   UNL d   1     -40.044  14.653  18.667  0.00  0.00     0.058 A 
ENDROOT
BRANCH   1   6
ATOM      6  C   UNL d   1     -38.999  14.270  17.724  0.00  0.00     0.082 A 
ATOM      7  C   UNL d   1     -38.998  13.497  17.462  0.00  0.00     0.302 A 
ATOM      8  O   UNL d   1     -38.730  13.301  16.678  0.00  0.00    -0.273 OA
ATOM      9  O   UNL d   1     -39.276  12.884  18.002  0.00  0.00    -0.259 OA
ATOM     10  C   UNL d   1     -38.463  13.933  16.174  0.00  0.00     0.103 A 
ATOM     11  C   UNL d   1     -38.464  14.706  16.436  0.00  0.00     0.023 A 
ATOM     12  C   UNL d   1     -38.207  13.727  15.417  0.00  0.00     0.025 A 
ATOM     13  C   UNL d   1     -38.732  14.875  17.210  0.00  0.00     0.009 A 
ATOM     14  C   UNL d   1     -38.208  15.302  15.949  0.00  0.00     0.002 A 
ATOM     15  C   UNL d   1     -37.941  15.133  15.174  0.00  0.00     0.000 A 
ATOM     16  C   UNL d   1     -37.940  14.360  14.913  0.00  0.00     0.002 A 
ENDBRANCH   1   6
BRANCH   3  17
ATOM     17  N   UNL d   1     -39.188  14.703  20.630  0.00  0.00    -0.122 NA
BRANCH  17  18
ATOM     18  N   UNL d   1     -39.300  14.028  21.101  0.00  0.00    -0.146 NA
BRANCH  18  19
ATOM     19  C   UNL d   1     -38.961  13.957  21.847  0.00  0.00     0.103 A 
ATOM     20  C   UNL d   1     -38.421  13.336  21.992  0.00  0.00     0.021 A 
ATOM     21  C   UNL d   1     -38.075  13.265  22.754  0.00  0.00     0.002 A 
ATOM     22  C   UNL d   1     -38.289  13.818  23.327  0.00  0.00     0.000 A 
ATOM     23  C   UNL d   1     -38.815  14.415  23.172  0.00  0.00     0.002 A 
ATOM     24  C   UNL d   1     -39.151  14.485  22.431  0.00  0.00     0.021 A 
ENDBRANCH  18  19
ENDBRANCH  17  18
ENDBRANCH   3  17
TORSDOF 4
ENDMDL
MODEL 6
REMARK VINA RESULT:      -5.3      8.703     10.146
REMARK  4 active torsions:
REMARK  status: ('A' for Active; 'I' for Inactive)
REMARK    1  A    between atoms: C_2  and  C_1 
REMARK    2  A    between atoms: N_13  and  C_6 
REMARK    3  A    between atoms: N_12  and  N_13 
REMARK    4  A    between atoms: C_15  and  N_12 
ROOT
ATOM      1  C   UNL d   1     -39.282  14.373  19.938  0.00  0.00     0.095 A 
ATOM      2  N   UNL d   1     -38.754  14.240  19.301  0.00  0.00    -0.219 NA
ATOM      3  C   UNL d   1     -39.211  14.168  18.628  0.00  0.00     0.215 A 
ATOM      4  S   UNL d   1     -40.007  14.249  18.810  0.00  0.00    -0.045 SA
ATOM      5  C   UNL d   1     -40.041  14.375  19.617  0.00  0.00     0.058 A 
ENDROOT
BRANCH   1   6
ATOM      6  C   UNL d   1     -39.131  14.488  20.752  0.00  0.00     0.082 A 
ATOM      7  C   UNL d   1     -39.052  15.247  21.040  0.00  0.00     0.302 A 
ATOM      8  O   UNL d   1     -38.897  15.389  21.866  0.00  0.00    -0.273 OA
ATOM      9  O   UNL d   1     -39.128  15.903  20.485  0.00  0.00    -0.259 OA
ATOM     10  C   UNL d   1     -38.829  14.716  22.382  0.00  0.00     0.103 A 
ATOM     11  C   UNL d   1     -38.908  13.956  22.095  0.00  0.00     0.023 A 
ATOM     12  C   UNL d   1     -38.679  14.869  23.180  0.00  0.00     0.025 A 
ATOM     13  C   UNL d   1     -39.059  13.842  21.281  0.00  0.00     0.009 A 
ATOM     14  C   UNL d   1     -38.841  13.322  22.595  0.00  0.00     0.002 A 
ATOM     15  C   UNL d   1     -38.689  13.436  23.410  0.00  0.00     0.000 A 
ATOM     16  C   UNL d   1     -38.610  14.195  23.697  0.00  0.00     0.002 A 
ENDBRANCH   1   6
BRANCH   3  17
ATOM     17  N   UNL d   1     -38.874  14.028  17.856  0.00  0.00    -0.122 NA
BRANCH  17  18
ATOM     18  N   UNL d   1     -39.078  14.556  17.247  0.00  0.00    -0.146 NA
BRANCH  18  19
ATOM     19  C   UNL d   1     -38.697  14.549  16.519  0.00  0.00     0.103 A 
ATOM     20  C   UNL d   1     -38.584  13.820  16.126  0.00  0.00     0.021 A 
ATOM     21  C   UNL d   1     -38.194  13.812  15.382  0.00  0.00     0.002 A 
ATOM     22  C   UNL d   1     -37.940  14.534  15.075  0.00  0.00     0.000 A 
ATOM     23  C   UNL d   1     -38.056  15.233  15.467  0.00  0.00     0.002 A 
ATOM     24  C   UNL d   1     -38.435  15.241  16.190  0.00  0.00     0.021 A 
ENDBRANCH  18  19
ENDBRANCH  17  18
ENDBRANCH   3  17
TORSDOF 4
ENDMDL
