MODEL 1
REMARK VINA RESULT:      95.7      0.000      0.000
REMARK  7 active torsions:
REMARK  status: ('A' for Active; 'I' for Inactive)
REMARK    1  A    between atoms: C_7  and  C_1 
REMARK    2  A    between atoms: N_5  and  C_2 
REMARK       I    between atoms: C_8  and  N_5 
REMARK    3  A    between atoms: N_9  and  C_7 
REMARK    4  A    between atoms: C_12  and  C_7 
REMARK    5  A    between atoms: C_10  and  C_8 
REMARK    6  A    between atoms: C_26  and  N_11 
REMARK    7  A    between atoms: C_30  and  C_26 
ROOT
ATOM      1  C   UNL d   1      60.368  48.520  51.482  0.00  0.00     0.068 C 
ENDROOT
BRANCH   1   2
ATOM      2  C   UNL d   1      60.316  48.940  50.738  0.00  0.00     0.041 A 
ATOM      3  C   UNL d   1      59.700  49.284  50.337  0.00  0.00     0.115 A 
ATOM      4  S   UNL d   1      60.015  49.604  49.642  0.00  0.00    -0.068 SA
ATOM      5  C   UNL d   1      60.819  49.472  49.591  0.00  0.00     0.031 A 
ATOM      6  C   UNL d   1      61.030  49.041  50.295  0.00  0.00     0.009 A 
ATOM      7  C   UNL d   1      61.318  49.706  48.984  0.00  0.00     0.007 C 
ATOM      8  C   UNL d   1      61.786  48.784  50.489  0.00  0.00     0.001 C 
BRANCH   3   9
ATOM      9  N   UNL d   1      58.915  49.316  50.564  0.00  0.00    -0.200 NA
ATOM     10  C   UNL d   1      58.345  49.530  50.005  0.00  0.00     0.302 C 
ATOM     11  O   UNL d   1      58.574  49.708  49.231  0.00  0.00    -0.263 OA
BRANCH  10  12
ATOM     12  C   UNL d   1      57.547  49.570  50.206  0.00  0.00     0.158 A 
ATOM     13  O   UNL d   1      57.188  49.630  50.962  0.00  0.00    -0.300 OA
ATOM     14  C   UNL d   1      56.371  49.651  50.837  0.00  0.00     0.123 A 
ATOM     15  C   UNL d   1      56.247  49.604  50.030  0.00  0.00     0.029 A 
ATOM     16  C   UNL d   1      56.960  49.554  49.624  0.00  0.00     0.032 A 
ENDBRANCH  10  12
ENDBRANCH   3   9
ENDBRANCH   1   2
BRANCH   1  17
ATOM     17  N   UNL d   1      60.528  47.679  51.456  0.00  0.00    -0.301 N 
ATOM     18  C   UNL d   1      61.175  47.424  51.015  0.00  0.00     0.100 A 
ATOM     19  C   UNL d   1      61.329  46.617  50.989  0.00  0.00     0.100 A 
ATOM     20  N   UNL d   1      60.839  46.067  51.401  0.00  0.00    -0.297 N 
ATOM     21  C   UNL d   1      60.212  46.343  51.825  0.00  0.00     0.100 A 
ATOM     22  C   UNL d   1      60.038  47.129  51.868  0.00  0.00     0.100 A 
BRANCH  20  23
ATOM     23  C   UNL d   1      61.012  45.241  51.363  0.00  0.00     0.126 C 
BRANCH  23  24
ATOM     24  C   UNL d   1      61.014  44.837  50.622  0.00  0.00     0.253 C 
ATOM     25  O   UNL d   1      60.662  44.078  50.552  0.00  0.00    -0.281 OA
ENDBRANCH  23  24
ENDBRANCH  20  23
ENDBRANCH   1  17
BRANCH   1  26
ATOM     26  C   UNL d   1      60.267  48.919  52.213  0.00  0.00     0.035 A 
ATOM     27  C   UNL d   1      60.946  49.149  52.642  0.00  0.00     0.100 A 
ATOM     28  N   UNL d   1      60.844  49.550  53.377  0.00  0.00    -0.242 NA
ATOM     29  C   UNL d   1      60.069  49.696  53.639  0.00  0.00     0.099 A 
ATOM     30  C   UNL d   1      59.417  49.471  53.221  0.00  0.00     0.021 A 
ATOM     31  C   UNL d   1      59.519  49.071  52.487  0.00  0.00     0.005 A 
ENDBRANCH   1  26
TORSDOF 7
ENDMDL
