MODEL 1
REMARK VINA RESULT:      -3.0      0.000      0.000
REMARK  2 active torsions:
REMARK  status: ('A' for Active; 'I' for Inactive)
REMARK    1  A    between atoms: S_2  and  N_1 
REMARK    2  A    between atoms: C_10  and  S_2 
ROOT
ATOM      1  S   UNL d   1      32.836  21.342 -21.378  0.00  0.00     0.273 S 
ATOM      2  O   UNL d   1      32.498  20.920 -20.755  0.00  0.00    -0.200 OA
ATOM      3  O   UNL d   1      33.173  21.772 -21.995  0.00  0.00    -0.200 OA
ENDROOT
BRANCH   1   4
ATOM      4  N   UNL d   1      32.703  22.050 -20.975  0.00  0.00    -0.207 N 
ATOM      5  C   UNL d   1      32.075  22.503 -21.263  0.00  0.00     0.148 A 
ATOM      6  N   UNL d   1      31.798  23.236 -20.986  0.00  0.00    -0.198 NA
ATOM      7  C   UNL d   1      32.077  23.682 -20.367  0.00  0.00     0.066 A 
ATOM      8  C   UNL d   1      32.556  22.689 -20.638  0.00  0.00     0.169 A 
ATOM      9  C   UNL d   1      32.704  23.525 -19.856  0.00  0.00     0.066 A 
ATOM     10  N   UNL d   1      33.208  22.870 -19.846  0.00  0.00    -0.198 NA
ATOM     11  C   UNL d   1      33.205  22.216 -20.344  0.00  0.00     0.148 A 
ENDBRANCH   1   4
BRANCH   1  12
ATOM     12  C   UNL d   1      32.971  20.637 -21.783  0.00  0.00     0.104 A 
ATOM     13  C   UNL d   1      33.070  19.933 -21.365  0.00  0.00     0.013 A 
ATOM     14  C   UNL d   1      33.205  19.228 -21.770  0.00  0.00     0.001 A 
ATOM     15  C   UNL d   1      33.241  19.227 -22.593  0.00  0.00     0.000 A 
ATOM     16  C   UNL d   1      33.142  19.931 -23.013  0.00  0.00     0.001 A 
ATOM     17  C   UNL d   1      33.007  20.635 -22.608  0.00  0.00     0.013 A 
ENDBRANCH   1  12
TORSDOF 2
ENDMDL
MODEL 2
REMARK VINA RESULT:      -2.9      5.607      6.883
REMARK  2 active torsions:
REMARK  status: ('A' for Active; 'I' for Inactive)
REMARK    1  A    between atoms: S_2  and  N_1 
REMARK    2  A    between atoms: C_10  and  S_2 
ROOT
ATOM      1  S   UNL d   1      30.850  16.250 -23.823  0.00  0.00     0.273 S 
ATOM      2  O   UNL d   1      31.077  15.480 -23.634  0.00  0.00    -0.200 OA
ATOM      3  O   UNL d   1      30.615  17.017 -24.013  0.00  0.00    -0.200 OA
ENDROOT
BRANCH   1   4
ATOM      4  N   UNL d   1      30.070  16.000 -23.921  0.00  0.00    -0.207 N 
ATOM      5  C   UNL d   1      29.647  15.893 -23.220  0.00  0.00     0.148 A 
ATOM      6  N   UNL d   1      28.858  15.647 -23.126  0.00  0.00    -0.198 NA
ATOM      7  C   UNL d   1      28.315  15.455 -23.699  0.00  0.00     0.066 A 
ATOM      8  C   UNL d   1      29.369  15.777 -23.973  0.00  0.00     0.169 A 
ATOM      9  C   UNL d   1      28.405  15.453 -24.518  0.00  0.00     0.066 A 
ATOM     10  N   UNL d   1      29.074  15.648 -24.963  0.00  0.00    -0.198 NA
ATOM     11  C   UNL d   1      29.811  15.890 -24.695  0.00  0.00     0.148 A 
ENDBRANCH   1   4
BRANCH   1  12
ATOM     12  C   UNL d   1      31.628  16.503 -23.726  0.00  0.00     0.104 A 
ATOM     13  C   UNL d   1      31.798  17.309 -23.681  0.00  0.00     0.013 A 
ATOM     14  C   UNL d   1      32.576  17.563 -23.584  0.00  0.00     0.001 A 
ATOM     15  C   UNL d   1      33.185  17.010 -23.532  0.00  0.00     0.000 A 
ATOM     16  C   UNL d   1      33.017  16.203 -23.576  0.00  0.00     0.001 A 
ATOM     17  C   UNL d   1      32.239  15.950 -23.673  0.00  0.00     0.013 A 
ENDBRANCH   1  12
TORSDOF 2
ENDMDL
MODEL 3
REMARK VINA RESULT:      -2.8      2.239      3.947
REMARK  2 active torsions:
REMARK  status: ('A' for Active; 'I' for Inactive)
REMARK    1  A    between atoms: S_2  and  N_1 
REMARK    2  A    between atoms: C_10  and  S_2 
ROOT
ATOM      1  S   UNL d   1      32.777  22.927 -18.782  0.00  0.00     0.273 S 
ATOM      2  O   UNL d   1      32.310  23.606 -18.735  0.00  0.00    -0.200 OA
ATOM      3  O   UNL d   1      33.241  22.248 -18.837  0.00  0.00    -0.200 OA
ENDROOT
BRANCH   1   4
ATOM      4  N   UNL d   1      32.655  22.894 -19.597  0.00  0.00    -0.207 N 
ATOM      5  C   UNL d   1      33.116  23.415 -20.041  0.00  0.00     0.148 A 
ATOM      6  N   UNL d   1      33.128  23.520 -20.866  0.00  0.00    -0.198 NA
ATOM      7  C   UNL d   1      32.690  23.136 -21.432  0.00  0.00     0.066 A 
ATOM      8  C   UNL d   1      32.570  22.890 -20.330  0.00  0.00     0.169 A 
ATOM      9  C   UNL d   1      32.122  22.547 -21.336  0.00  0.00     0.066 A 
ATOM     10  N   UNL d   1      31.856  22.197 -20.636  0.00  0.00    -0.198 NA
ATOM     11  C   UNL d   1      32.094  22.353 -19.866  0.00  0.00     0.148 A 
ENDBRANCH   1   4
BRANCH   1  12
ATOM     12  C   UNL d   1      32.901  22.956 -17.968  0.00  0.00     0.104 A 
ATOM     13  C   UNL d   1      33.117  22.274 -17.558  0.00  0.00     0.013 A 
ATOM     14  C   UNL d   1      33.241  22.303 -16.744  0.00  0.00     0.001 A 
ATOM     15  C   UNL d   1      33.149  23.015 -16.339  0.00  0.00     0.000 A 
ATOM     16  C   UNL d   1      32.933  23.699 -16.748  0.00  0.00     0.001 A 
ATOM     17  C   UNL d   1      32.809  23.669 -17.562  0.00  0.00     0.013 A 
ENDBRANCH   1  12
TORSDOF 2
ENDMDL
MODEL 4
REMARK VINA RESULT:      -2.4      5.322      6.456
REMARK  2 active torsions:
REMARK  status: ('A' for Active; 'I' for Inactive)
REMARK    1  A    between atoms: S_2  and  N_1 
REMARK    2  A    between atoms: C_10  and  S_2 
ROOT
ATOM      1  S   UNL d   1      30.786  16.492 -23.920  0.00  0.00     0.273 S 
ATOM      2  O   UNL d   1      31.086  15.893 -23.438  0.00  0.00    -0.200 OA
ATOM      3  O   UNL d   1      30.494  17.093 -24.402  0.00  0.00    -0.200 OA
ENDROOT
BRANCH   1   4
ATOM      4  N   UNL d   1      31.553  16.733 -24.105  0.00  0.00    -0.207 N 
ATOM      5  C   UNL d   1      31.869  17.309 -23.606  0.00  0.00     0.148 A 
ATOM      6  N   UNL d   1      32.619  17.666 -23.640  0.00  0.00    -0.198 NA
ATOM      7  C   UNL d   1      33.219  17.535 -24.171  0.00  0.00     0.066 A 
ATOM      8  C   UNL d   1      32.237  16.970 -24.244  0.00  0.00     0.169 A 
ATOM      9  C   UNL d   1      33.241  17.016 -24.811  0.00  0.00     0.066 A 
ATOM     10  N   UNL d   1      32.653  16.497 -25.073  0.00  0.00    -0.198 NA
ATOM     11  C   UNL d   1      31.905  16.374 -24.758  0.00  0.00     0.148 A 
ENDBRANCH   1   4
BRANCH   1  12
ATOM     12  C   UNL d   1      30.018  16.255 -23.737  0.00  0.00     0.104 A 
ATOM     13  C   UNL d   1      29.377  16.581 -24.141  0.00  0.00     0.013 A 
ATOM     14  C   UNL d   1      28.610  16.344 -23.958  0.00  0.00     0.001 A 
ATOM     15  C   UNL d   1      28.482  15.780 -23.370  0.00  0.00     0.000 A 
ATOM     16  C   UNL d   1      29.122  15.452 -22.965  0.00  0.00     0.001 A 
ATOM     17  C   UNL d   1      29.890  15.690 -23.148  0.00  0.00     0.013 A 
ENDBRANCH   1  12
TORSDOF 2
ENDMDL
