MODEL 1
REMARK VINA RESULT:      -8.0      0.000      0.000
REMARK  3 active torsions:
REMARK  status: ('A' for Active; 'I' for Inactive)
REMARK    1  A    between atoms: C_5  and  N_1 
REMARK    2  A    between atoms: C_4  and  C_5 
REMARK       I    between atoms: N_6  and  C_4 
REMARK    3  A    between atoms: C_12  and  N_6 
ROOT
ATOM      1  C   UNL d   1      53.484  32.990  53.692  0.00  0.00     0.297 C 
ATOM      2  N   UNL d   1      53.731  32.353  53.210  0.00  0.00    -0.207 NA
ATOM      3  O   UNL d   1      52.939  32.793  54.286  0.00  0.00    -0.264 OA
ENDROOT
BRANCH   1   4
ATOM      4  C   UNL d   1      53.747  33.786  53.610  0.00  0.00     0.148 C 
BRANCH   4   5
ATOM      5  N   UNL d   1      53.333  34.394  53.935  0.00  0.00    -0.236 N 
ATOM      6  C   UNL d   1      52.686  34.834  53.597  0.00  0.00     0.267 A 
ATOM      7  C   UNL d   1      52.476  35.374  54.144  0.00  0.00     0.066 A 
ATOM      8  O   UNL d   1      52.380  34.655  52.795  0.00  0.00    -0.267 OA
ATOM      9  C   UNL d   1      52.939  35.308  54.798  0.00  0.00     0.066 A 
ATOM     10  C   UNL d   1      53.461  34.719  54.685  0.00  0.00     0.267 A 
ATOM     11  O   UNL d   1      54.044  34.432  55.171  0.00  0.00    -0.267 OA
ENDBRANCH   4   5
ENDBRANCH   1   4
BRANCH   2  12
ATOM     12  C   UNL d   1      53.488  31.608  53.283  0.00  0.00     0.085 A 
ATOM     13  C   UNL d   1      52.808  31.284  52.921  0.00  0.00     0.020 A 
ATOM     14  C   UNL d   1      52.564  30.539  52.994  0.00  0.00     0.008 A 
ATOM     15  C   UNL d   1      53.003  30.020  53.461  0.00  0.00     0.035 A 
ATOM     16  C   UNL d   1      53.685  30.278  53.845  0.00  0.00     0.008 A 
ATOM     17 BR   UNL d   1      52.761  29.209  53.555  0.00  0.00    -0.049 Br
ATOM     18  C   UNL d   1      53.924  31.078  53.751  0.00  0.00     0.020 A 
ENDBRANCH   2  12
TORSDOF 3
ENDMDL
MODEL 2
REMARK VINA RESULT:      -7.6      2.266      3.487
REMARK  3 active torsions:
REMARK  status: ('A' for Active; 'I' for Inactive)
REMARK    1  A    between atoms: C_5  and  N_1 
REMARK    2  A    between atoms: C_4  and  C_5 
REMARK       I    between atoms: N_6  and  C_4 
REMARK    3  A    between atoms: C_12  and  N_6 
ROOT
ATOM      1  C   UNL d   1      52.802  33.598  53.304  0.00  0.00     0.297 C 
ATOM      2  N   UNL d   1      52.452  34.242  52.902  0.00  0.00    -0.207 NA
ATOM      3  O   UNL d   1      52.278  32.993  53.525  0.00  0.00    -0.264 OA
ENDROOT
BRANCH   1   4
ATOM      4  C   UNL d   1      53.620  33.533  53.490  0.00  0.00     0.148 C 
BRANCH   4   5
ATOM      5  N   UNL d   1      53.862  33.291  54.217  0.00  0.00    -0.236 N 
ATOM      6  C   UNL d   1      54.050  33.767  54.900  0.00  0.00     0.267 A 
ATOM      7  C   UNL d   1      54.259  33.257  55.475  0.00  0.00     0.066 A 
ATOM      8  O   UNL d   1      53.993  34.641  54.876  0.00  0.00    -0.267 OA
ATOM      9  C   UNL d   1      54.218  32.499  55.209  0.00  0.00     0.066 A 
ATOM     10  C   UNL d   1      53.980  32.505  54.451  0.00  0.00     0.267 A 
ATOM     11  O   UNL d   1      53.852  31.892  53.934  0.00  0.00    -0.267 OA
ENDBRANCH   4   5
ENDBRANCH   1   4
BRANCH   2  12
ATOM     12  C   UNL d   1      51.688  34.307  52.727  0.00  0.00     0.085 A 
ATOM     13  C   UNL d   1      51.086  34.523  53.264  0.00  0.00     0.020 A 
ATOM     14  C   UNL d   1      50.320  34.588  53.089  0.00  0.00     0.008 A 
ATOM     15  C   UNL d   1      50.074  34.434  52.317  0.00  0.00     0.035 A 
ATOM     16  C   UNL d   1      50.619  34.216  51.740  0.00  0.00     0.008 A 
ATOM     17 BR   UNL d   1      49.253  34.497  52.102  0.00  0.00    -0.049 Br
ATOM     18  C   UNL d   1      51.430  34.153  51.952  0.00  0.00     0.020 A 
ENDBRANCH   2  12
TORSDOF 3
ENDMDL
MODEL 3
REMARK VINA RESULT:      -7.4      1.962      4.048
REMARK  3 active torsions:
REMARK  status: ('A' for Active; 'I' for Inactive)
REMARK    1  A    between atoms: C_5  and  N_1 
REMARK    2  A    between atoms: C_4  and  C_5 
REMARK       I    between atoms: N_6  and  C_4 
REMARK    3  A    between atoms: C_12  and  N_6 
ROOT
ATOM      1  C   UNL d   1      53.600  31.872  53.766  0.00  0.00     0.297 C 
ATOM      2  N   UNL d   1      54.049  32.577  53.767  0.00  0.00    -0.207 NA
ATOM      3  O   UNL d   1      52.805  31.959  53.988  0.00  0.00    -0.264 OA
ENDROOT
BRANCH   1   4
ATOM      4  C   UNL d   1      53.896  31.111  53.561  0.00  0.00     0.148 C 
BRANCH   4   5
ATOM      5  N   UNL d   1      53.401  30.486  53.463  0.00  0.00    -0.236 N 
ATOM      6  C   UNL d   1      52.937  30.278  52.779  0.00  0.00     0.267 A 
ATOM      7  C   UNL d   1      52.544  29.612  52.970  0.00  0.00     0.066 A 
ATOM      8  O   UNL d   1      52.953  30.766  52.050  0.00  0.00    -0.267 OA
ATOM      9  C   UNL d   1      52.725  29.384  53.720  0.00  0.00     0.066 A 
ATOM     10  C   UNL d   1      53.241  29.904  54.029  0.00  0.00     0.267 A 
ATOM     11  O   UNL d   1      53.593  29.924  54.761  0.00  0.00    -0.267 OA
ENDBRANCH   4   5
ENDBRANCH   1   4
BRANCH   2  12
ATOM     12  C   UNL d   1      53.776  33.289  53.959  0.00  0.00     0.085 A 
ATOM     13  C   UNL d   1      53.337  33.790  53.454  0.00  0.00     0.020 A 
ATOM     14  C   UNL d   1      53.063  34.503  53.645  0.00  0.00     0.008 A 
ATOM     15  C   UNL d   1      53.212  34.798  54.401  0.00  0.00     0.035 A 
ATOM     16  C   UNL d   1      53.640  34.353  54.946  0.00  0.00     0.008 A 
ATOM     17 BR   UNL d   1      52.928  35.566  54.632  0.00  0.00    -0.049 Br
ATOM     18  C   UNL d   1      53.921  33.595  54.718  0.00  0.00     0.020 A 
ENDBRANCH   2  12
TORSDOF 3
ENDMDL
MODEL 4
REMARK VINA RESULT:      -7.2      2.312      3.992
REMARK  3 active torsions:
REMARK  status: ('A' for Active; 'I' for Inactive)
REMARK    1  A    between atoms: C_5  and  N_1 
REMARK    2  A    between atoms: C_4  and  C_5 
REMARK       I    between atoms: N_6  and  C_4 
REMARK    3  A    between atoms: C_12  and  N_6 
ROOT
ATOM      1  C   UNL d   1      52.570  32.304  52.969  0.00  0.00     0.297 C 
ATOM      2  N   UNL d   1      52.491  33.136  52.959  0.00  0.00    -0.207 NA
ATOM      3  O   UNL d   1      51.859  31.881  52.892  0.00  0.00    -0.264 OA
ENDROOT
BRANCH   1   4
ATOM      4  C   UNL d   1      53.298  31.889  53.050  0.00  0.00     0.148 C 
BRANCH   4   5
ATOM      5  N   UNL d   1      53.319  31.144  53.351  0.00  0.00    -0.236 N 
ATOM      6  C   UNL d   1      53.159  30.407  52.953  0.00  0.00     0.267 A 
ATOM      7  C   UNL d   1      53.257  29.835  53.498  0.00  0.00     0.066 A 
ATOM      8  O   UNL d   1      52.936  30.383  52.106  0.00  0.00    -0.267 OA
ATOM      9  C   UNL d   1      53.467  30.153  54.207  0.00  0.00     0.066 A 
ATOM     10  C   UNL d   1      53.507  30.943  54.131  0.00  0.00     0.267 A 
ATOM     11  O   UNL d   1      53.693  31.516  54.676  0.00  0.00    -0.267 OA
ENDBRANCH   4   5
ENDBRANCH   1   4
BRANCH   2  12
ATOM     12  C   UNL d   1      51.812  33.527  52.884  0.00  0.00     0.085 A 
ATOM     13  C   UNL d   1      51.238  33.617  53.483  0.00  0.00     0.020 A 
ATOM     14  C   UNL d   1      50.558  34.009  53.409  0.00  0.00     0.008 A 
ATOM     15  C   UNL d   1      50.382  34.366  52.686  0.00  0.00     0.035 A 
ATOM     16  C   UNL d   1      50.907  34.313  52.055  0.00  0.00     0.008 A 
ATOM     17 BR   UNL d   1      49.654  34.795  52.580  0.00  0.00    -0.049 Br
ATOM     18  C   UNL d   1      51.625  33.890  52.160  0.00  0.00     0.020 A 
ENDBRANCH   2  12
TORSDOF 3
ENDMDL
