MODEL 1
REMARK VINA RESULT:      -3.0      0.000      0.000
REMARK  5 active torsions:
REMARK  status: ('A' for Active; 'I' for Inactive)
REMARK    1  A    between atoms: O_4  and  C_1 
REMARK    2  A    between atoms: C_9  and  C_2 
REMARK    3  A    between atoms: C_5  and  O_4 
REMARK    4  A    between atoms: C_13  and  C_5 
REMARK    5  A    between atoms: N_10  and  C_9 
ROOT
ATOM      1  C   UNL d   1      59.117  -0.672  29.878  0.00  0.00     0.122 A 
ATOM      2  C   UNL d   1      59.136  -1.106  29.183  0.00  0.00     0.043 A 
ATOM      3  C   UNL d   1      59.762  -0.219  30.099  0.00  0.00     0.105 A 
ATOM      4  C   UNL d   1      60.435  -0.200  29.621  0.00  0.00     0.030 A 
ATOM      5  C   UNL d   1      60.455  -0.633  28.927  0.00  0.00     0.059 A 
ATOM      6  C   UNL d   1      59.809  -1.086  28.705  0.00  0.00     0.015 A 
ATOM      7  N   UNL d   1      59.739   0.210  30.789  0.00  0.00    -0.242 NA
ATOM      8 CL   UNL d   1      61.133  -0.598  28.469  0.00  0.00    -0.082 Cl
ATOM      9  C   UNL d   1      61.077   0.248  29.838  0.00  0.00     0.004 A 
ATOM     10  C   UNL d   1      60.384   0.663  31.011  0.00  0.00     0.099 A 
ATOM     11  C   UNL d   1      61.057   0.682  30.533  0.00  0.00     0.021 A 
ENDROOT
BRANCH   1  12
ATOM     12  O   UNL d   1      58.516  -0.683  30.315  0.00  0.00    -0.271 OA
BRANCH  12  13
ATOM     13  C   UNL d   1      57.694  -0.214  30.457  0.00  0.00     0.300 C 
ATOM     14  O   UNL d   1      57.411   0.367  29.697  0.00  0.00    -0.259 OA
BRANCH  13  15
ATOM     15  C   UNL d   1      57.267  -0.298  31.159  0.00  0.00     0.064 A 
ATOM     16  C   UNL d   1      57.082   0.373  31.606  0.00  0.00     0.005 A 
ATOM     17  C   UNL d   1      56.654   0.287  32.310  0.00  0.00     0.000 A 
ATOM     18  C   UNL d   1      56.409  -0.466  32.569  0.00  0.00     0.000 A 
ATOM     19  C   UNL d   1      56.600  -1.129  32.112  0.00  0.00     0.000 A 
ATOM     20  C   UNL d   1      57.029  -1.043  31.408  0.00  0.00     0.005 A 
ENDBRANCH  13  15
ENDBRANCH  12  13
ENDBRANCH   1  12
BRANCH   2  21
ATOM     21  C   UNL d   1      58.539  -1.650  28.780  0.00  0.00     0.082 C 
BRANCH  21  22
ATOM     22  N   UNL d   1      58.682  -2.445  28.725  0.00  0.00    -0.299 N 
ATOM     23  C   UNL d   1      59.420  -2.719  28.531  0.00  0.00     0.107 A 
ATOM     24  C   UNL d   1      59.570  -3.529  28.474  0.00  0.00     0.142 A 
ATOM     25  O   UNL d   1      58.963  -4.059  28.616  0.00  0.00    -0.300 OA
ATOM     26  C   UNL d   1      58.214  -3.781  28.813  0.00  0.00     0.142 A 
ATOM     27  C   UNL d   1      58.081  -2.980  28.866  0.00  0.00     0.107 A 
ENDBRANCH  21  22
ENDBRANCH   2  21
TORSDOF 5
ENDMDL
