MODEL 1
REMARK VINA RESULT:      48.5      0.000      0.000
REMARK  6 active torsions:
REMARK  status: ('A' for Active; 'I' for Inactive)
REMARK    1  A    between atoms: N_13  and  C_4 
REMARK    2  A    between atoms: O_17  and  C_9 
REMARK    3  A    between atoms: O_18  and  C_11 
REMARK    4  A    between atoms: C_19  and  N_13 
REMARK    5  A    between atoms: C_15  and  C_20 
REMARK    6  A    between atoms: C_20  and  C_19 
ROOT
ATOM      1  C   UNL d   1     -49.449  27.800  34.014  0.00  0.00     0.101 C 
ENDROOT
BRANCH   1   2
ATOM      2  N   UNL d   1     -49.732  27.496  33.322  0.00  0.00    -0.225 NA
BRANCH   2   3
ATOM      3  C   UNL d   1     -50.392  27.028  33.317  0.00  0.00     0.169 A 
ATOM      4  C   UNL d   1     -50.315  26.260  33.315  0.00  0.00     0.094 A 
ATOM      5  C   UNL d   1     -50.956  25.810  33.309  0.00  0.00     0.190 A 
ATOM      6  C   UNL d   1     -49.542  25.152  33.316  0.00  0.00     0.128 A 
ATOM      7  N   UNL d   1     -51.657  26.127  33.306  0.00  0.00    -0.203 NA
ATOM      8  N   UNL d   1     -50.883  25.040  33.307  0.00  0.00    -0.128 NA
ATOM      9  C   UNL d   1     -51.737  26.907  33.308  0.00  0.00     0.202 A 
ATOM     10  N   UNL d   1     -51.098  27.361  33.313  0.00  0.00    -0.205 NA
ATOM     11  N   UNL d   1     -50.184  24.711  33.310  0.00  0.00    -0.145 NA
ENDBRANCH   2   3
ENDBRANCH   1   2
BRANCH   1  12
ATOM     12  C   UNL d   1     -48.647  27.973  34.101  0.00  0.00     0.021 C 
BRANCH  12  13
ATOM     13  C   UNL d   1     -48.393  28.492  34.684  0.00  0.00     0.004 A 
ATOM     14  C   UNL d   1     -47.999  29.175  34.469  0.00  0.00     0.026 A 
ATOM     15  C   UNL d   1     -47.739  29.705  35.055  0.00  0.00     0.116 A 
ATOM     16  C   UNL d   1     -47.878  29.541  35.851  0.00  0.00     0.116 A 
ATOM     17  C   UNL d   1     -48.278  28.847  36.067  0.00  0.00     0.026 A 
ATOM     18  C   UNL d   1     -48.536  28.321  35.482  0.00  0.00     0.002 A 
BRANCH  15  19
ATOM     19  O   UNL d   1     -47.337  30.400  34.836  0.00  0.00    -0.326 OA
ATOM     20  C   UNL d   1     -47.544  31.128  35.183  0.00  0.00     0.181 C 
ENDBRANCH  15  19
BRANCH  16  21
ATOM     21  O   UNL d   1     -47.619  30.070  36.445  0.00  0.00    -0.326 OA
ATOM     22  C   UNL d   1     -47.373  29.769  37.181  0.00  0.00     0.181 C 
ENDBRANCH  16  21
ENDBRANCH  12  13
ENDBRANCH   1  12
TORSDOF 6
ENDMDL
