MODEL 1
REMARK VINA RESULT:      48.3      0.000      0.000
REMARK  6 active torsions:
REMARK  status: ('A' for Active; 'I' for Inactive)
REMARK    1  A    between atoms: C_2  and  C_1 
REMARK       I    between atoms: N_10  and  C_1 
REMARK    2  A    between atoms: C_3  and  C_4 
REMARK    3  A    between atoms: C_16  and  N_10 
REMARK    4  A    between atoms: C_11  and  O_12 
REMARK    5  A    between atoms: O_12  and  C_17 
REMARK    6  A    between atoms: C_17  and  C_16 
ROOT
ATOM      1  C   UNL d   1     -49.144  27.025  33.778  0.00  0.00     0.279 C 
ATOM      2  O   UNL d   1     -48.476  26.778  33.362  0.00  0.00    -0.265 OA
ATOM      3  N   UNL d   1     -49.095  27.671  34.289  0.00  0.00    -0.204 NA
ENDROOT
BRANCH   1   4
ATOM      4  C   UNL d   1     -49.857  26.628  33.685  0.00  0.00     0.058 A 
ATOM      5  C   UNL d   1     -50.560  27.053  33.611  0.00  0.00     0.004 A 
ATOM      6  C   UNL d   1     -51.272  26.661  33.518  0.00  0.00    -0.004 A 
ATOM      7  C   UNL d   1     -51.289  25.828  33.499  0.00  0.00    -0.023 A 
ATOM      8  C   UNL d   1     -50.586  25.403  33.574  0.00  0.00    -0.004 A 
ATOM      9  C   UNL d   1     -49.871  25.803  33.667  0.00  0.00     0.004 A 
BRANCH   7  10
ATOM     10  C   UNL d   1     -52.008  25.425  33.405  0.00  0.00     0.019 C 
ATOM     11  C   UNL d   1     -52.730  25.012  33.310  0.00  0.00     0.004 C 
ATOM     12  C   UNL d   1     -52.428  26.144  33.481  0.00  0.00     0.004 C 
ATOM     13  C   UNL d   1     -51.595  24.708  33.329  0.00  0.00     0.004 C 
ENDBRANCH   7  10
ENDBRANCH   1   4
BRANCH   3  14
ATOM     14  C   UNL d   1     -48.380  28.071  34.384  0.00  0.00     0.129 C 
BRANCH  14  15
ATOM     15  C   UNL d   1     -48.320  28.689  34.928  0.00  0.00     0.143 C 
BRANCH  15  16
ATOM     16  O   UNL d   1     -48.308  29.471  34.667  0.00  0.00    -0.303 OA
BRANCH  16  17
ATOM     17  C   UNL d   1     -47.818  30.037  35.040  0.00  0.00     0.100 A 
ATOM     18  C   UNL d   1     -47.801  30.808  34.771  0.00  0.00     0.025 A 
ATOM     19  C   UNL d   1     -47.317  31.358  35.143  0.00  0.00     0.002 A 
ATOM     20  C   UNL d   1     -46.851  31.132  35.785  0.00  0.00     0.000 A 
ATOM     21  C   UNL d   1     -46.869  30.355  36.055  0.00  0.00     0.002 A 
ATOM     22  C   UNL d   1     -47.352  29.810  35.682  0.00  0.00     0.025 A 
ENDBRANCH  16  17
ENDBRANCH  15  16
ENDBRANCH  14  15
ENDBRANCH   3  14
TORSDOF 6
ENDMDL
MODEL 2
REMARK VINA RESULT:      49.3      1.267      5.851
REMARK  6 active torsions:
REMARK  status: ('A' for Active; 'I' for Inactive)
REMARK    1  A    between atoms: C_2  and  C_1 
REMARK       I    between atoms: N_10  and  C_1 
REMARK    2  A    between atoms: C_3  and  C_4 
REMARK    3  A    between atoms: C_16  and  N_10 
REMARK    4  A    between atoms: C_11  and  O_12 
REMARK    5  A    between atoms: O_12  and  C_17 
REMARK    6  A    between atoms: C_17  and  C_16 
ROOT
ATOM      1  C   UNL d   1     -47.968  29.869  35.245  0.00  0.00     0.279 C 
ATOM      2  O   UNL d   1     -47.619  29.705  35.975  0.00  0.00    -0.265 OA
ATOM      3  N   UNL d   1     -48.388  29.279  34.848  0.00  0.00    -0.204 NA
ENDROOT
BRANCH   1   4
ATOM      4  C   UNL d   1     -47.899  30.617  34.914  0.00  0.00     0.058 A 
ATOM      5  C   UNL d   1     -47.280  31.114  35.139  0.00  0.00     0.004 A 
ATOM      6  C   UNL d   1     -47.208  31.859  34.811  0.00  0.00    -0.004 A 
ATOM      7  C   UNL d   1     -47.762  32.121  34.246  0.00  0.00    -0.023 A 
ATOM      8  C   UNL d   1     -48.381  31.625  34.021  0.00  0.00    -0.004 A 
ATOM      9  C   UNL d   1     -48.449  30.873  34.355  0.00  0.00     0.004 A 
BRANCH   7  10
ATOM     10  C   UNL d   1     -47.695  32.876  33.910  0.00  0.00     0.019 C 
ATOM     11  C   UNL d   1     -47.621  33.637  33.569  0.00  0.00     0.004 C 
ATOM     12  C   UNL d   1     -48.456  33.076  34.193  0.00  0.00     0.004 C 
ATOM     13  C   UNL d   1     -46.939  32.682  33.628  0.00  0.00     0.004 C 
ENDBRANCH   7  10
ENDBRANCH   1   4
BRANCH   3  14
ATOM     14  C   UNL d   1     -48.459  28.527  35.179  0.00  0.00     0.129 C 
BRANCH  14  15
ATOM     15  C   UNL d   1     -49.079  28.032  34.953  0.00  0.00     0.143 C 
BRANCH  15  16
ATOM     16  O   UNL d   1     -48.954  27.444  34.387  0.00  0.00    -0.303 OA
BRANCH  16  17
ATOM     17  C   UNL d   1     -49.601  27.056  34.028  0.00  0.00     0.100 A 
ATOM     18  C   UNL d   1     -50.344  27.397  34.039  0.00  0.00     0.025 A 
ATOM     19  C   UNL d   1     -50.975  27.009  33.683  0.00  0.00     0.002 A 
ATOM     20  C   UNL d   1     -50.859  26.279  33.317  0.00  0.00     0.000 A 
ATOM     21  C   UNL d   1     -50.111  25.937  33.306  0.00  0.00     0.002 A 
ATOM     22  C   UNL d   1     -49.485  26.326  33.661  0.00  0.00     0.025 A 
ENDBRANCH  16  17
ENDBRANCH  15  16
ENDBRANCH  14  15
ENDBRANCH   3  14
TORSDOF 6
ENDMDL
MODEL 3
REMARK VINA RESULT:      49.3      0.762      5.730
REMARK  6 active torsions:
REMARK  status: ('A' for Active; 'I' for Inactive)
REMARK    1  A    between atoms: C_2  and  C_1 
REMARK       I    between atoms: N_10  and  C_1 
REMARK    2  A    between atoms: C_3  and  C_4 
REMARK    3  A    between atoms: C_16  and  N_10 
REMARK    4  A    between atoms: C_11  and  O_12 
REMARK    5  A    between atoms: O_12  and  C_17 
REMARK    6  A    between atoms: C_17  and  C_16 
ROOT
ATOM      1  C   UNL d   1     -48.647  28.105  35.093  0.00  0.00     0.279 C 
ATOM      2  O   UNL d   1     -48.849  27.683  35.773  0.00  0.00    -0.265 OA
ATOM      3  N   UNL d   1     -48.787  27.777  34.349  0.00  0.00    -0.204 NA
ENDROOT
BRANCH   1   4
ATOM      4  C   UNL d   1     -48.307  28.850  35.155  0.00  0.00     0.058 A 
ATOM      5  C   UNL d   1     -48.604  29.479  34.712  0.00  0.00     0.004 A 
ATOM      6  C   UNL d   1     -48.268  30.222  34.772  0.00  0.00    -0.004 A 
ATOM      7  C   UNL d   1     -47.622  30.347  35.283  0.00  0.00    -0.023 A 
ATOM      8  C   UNL d   1     -47.325  29.718  35.727  0.00  0.00    -0.004 A 
ATOM      9  C   UNL d   1     -47.668  28.970  35.663  0.00  0.00     0.004 A 
BRANCH   7  10
ATOM     10  C   UNL d   1     -47.277  31.098  35.349  0.00  0.00     0.019 C 
ATOM     11  C   UNL d   1     -46.924  31.854  35.417  0.00  0.00     0.004 C 
ATOM     12  C   UNL d   1     -47.946  31.443  34.983  0.00  0.00     0.004 C 
ATOM     13  C   UNL d   1     -46.612  30.760  35.712  0.00  0.00     0.004 C 
ENDBRANCH   7  10
ENDBRANCH   1   4
BRANCH   3  14
ATOM     14  C   UNL d   1     -49.129  27.028  34.284  0.00  0.00     0.129 C 
BRANCH  14  15
ATOM     15  C   UNL d   1     -49.885  26.945  33.965  0.00  0.00     0.143 C 
BRANCH  15  16
ATOM     16  O   UNL d   1     -50.017  26.419  33.343  0.00  0.00    -0.303 OA
BRANCH  16  17
ATOM     17  C   UNL d   1     -50.698  25.933  33.333  0.00  0.00     0.100 A 
ATOM     18  C   UNL d   1     -50.623  25.119  33.340  0.00  0.00     0.025 A 
ATOM     19  C   UNL d   1     -51.297  24.649  33.330  0.00  0.00     0.002 A 
ATOM     20  C   UNL d   1     -52.044  24.998  33.314  0.00  0.00     0.000 A 
ATOM     21  C   UNL d   1     -52.118  25.817  33.307  0.00  0.00     0.002 A 
ATOM     22  C   UNL d   1     -51.445  26.282  33.317  0.00  0.00     0.025 A 
ENDBRANCH  16  17
ENDBRANCH  15  16
ENDBRANCH  14  15
ENDBRANCH   3  14
TORSDOF 6
ENDMDL
MODEL 4
REMARK VINA RESULT:      49.5      0.904      5.805
REMARK  6 active torsions:
REMARK  status: ('A' for Active; 'I' for Inactive)
REMARK    1  A    between atoms: C_2  and  C_1 
REMARK       I    between atoms: N_10  and  C_1 
REMARK    2  A    between atoms: C_3  and  C_4 
REMARK    3  A    between atoms: C_16  and  N_10 
REMARK    4  A    between atoms: C_11  and  O_12 
REMARK    5  A    between atoms: O_12  and  C_17 
REMARK    6  A    between atoms: C_17  and  C_16 
ROOT
ATOM      1  C   UNL d   1     -48.218  29.014  35.137  0.00  0.00     0.279 C 
ATOM      2  O   UNL d   1     -47.847  28.606  35.750  0.00  0.00    -0.265 OA
ATOM      3  N   UNL d   1     -48.769  28.627  34.660  0.00  0.00    -0.204 NA
ENDROOT
BRANCH   1   4
ATOM      4  C   UNL d   1     -48.040  29.804  35.000  0.00  0.00     0.058 A 
ATOM      5  C   UNL d   1     -48.423  30.216  34.396  0.00  0.00     0.004 A 
ATOM      6  C   UNL d   1     -48.248  31.003  34.257  0.00  0.00    -0.004 A 
ATOM      7  C   UNL d   1     -47.680  31.392  34.727  0.00  0.00    -0.023 A 
ATOM      8  C   UNL d   1     -47.298  30.981  35.331  0.00  0.00    -0.004 A 
ATOM      9  C   UNL d   1     -47.478  30.187  35.467  0.00  0.00     0.004 A 
BRANCH   7  10
ATOM     10  C   UNL d   1     -47.498  32.190  34.591  0.00  0.00     0.019 C 
ATOM     11  C   UNL d   1     -47.311  32.995  34.458  0.00  0.00     0.004 C 
ATOM     12  C   UNL d   1     -48.050  32.214  33.963  0.00  0.00     0.004 C 
ATOM     13  C   UNL d   1     -46.950  32.170  35.213  0.00  0.00     0.004 C 
ENDBRANCH   7  10
ENDBRANCH   1   4
BRANCH   3  14
ATOM     14  C   UNL d   1     -48.949  27.833  34.796  0.00  0.00     0.129 C 
BRANCH  14  15
ATOM     15  C   UNL d   1     -49.207  27.355  34.174  0.00  0.00     0.143 C 
BRANCH  15  16
ATOM     16  O   UNL d   1     -50.010  27.313  33.989  0.00  0.00    -0.303 OA
BRANCH  16  17
ATOM     17  C   UNL d   1     -50.355  26.587  33.758  0.00  0.00     0.100 A 
ATOM     18  C   UNL d   1     -49.883  25.944  33.580  0.00  0.00     0.025 A 
ATOM     19  C   UNL d   1     -50.230  25.235  33.353  0.00  0.00     0.002 A 
ATOM     20  C   UNL d   1     -51.051  25.173  33.306  0.00  0.00     0.000 A 
ATOM     21  C   UNL d   1     -51.525  25.820  33.484  0.00  0.00     0.002 A 
ATOM     22  C   UNL d   1     -51.177  26.525  33.710  0.00  0.00     0.025 A 
ENDBRANCH  16  17
ENDBRANCH  15  16
ENDBRANCH  14  15
ENDBRANCH   3  14
TORSDOF 6
ENDMDL
