MODEL 1
REMARK VINA RESULT:      45.0      0.000      0.000
REMARK  7 active torsions:
REMARK  status: ('A' for Active; 'I' for Inactive)
REMARK    1  A    between atoms: C_4  and  S_1 
REMARK    2  A    between atoms: N_6  and  S_1 
REMARK    3  A    between atoms: N_3  and  C_2 
REMARK    4  A    between atoms: C_15  and  N_6 
REMARK    5  A    between atoms: C_16  and  N_6 
REMARK    6  A    between atoms: C_18  and  C_15 
REMARK    7  A    between atoms: C_17  and  C_16 
ROOT
ATOM      1  C   UNL d   1     -48.000  32.746  34.131  0.00  0.00     0.138 A 
ATOM      2  C   UNL d   1     -47.376  31.584  34.680  0.00  0.00     0.106 A 
ATOM      3  C   UNL d   1     -48.042  32.061  34.589  0.00  0.00     0.037 A 
ATOM      4  C   UNL d   1     -47.293  32.954  33.764  0.00  0.00     0.080 A 
ATOM      5  C   UNL d   1     -46.666  31.793  34.312  0.00  0.00     0.014 A 
ATOM      6  C   UNL d   1     -46.624  32.478  33.854  0.00  0.00     0.014 A 
ATOM      7 CL   UNL d   1     -47.252  33.639  33.307  0.00  0.00    -0.081 Cl
ENDROOT
BRANCH   2   8
ATOM      8  S   UNL d   1     -47.417  30.899  35.138  0.00  0.00     0.271 S 
ATOM      9  O   UNL d   1     -47.017  31.284  35.749  0.00  0.00    -0.200 OA
ATOM     10  O   UNL d   1     -47.817  30.515  34.527  0.00  0.00    -0.200 OA
BRANCH   8  11
ATOM     11  N   UNL d   1     -47.458  30.214  35.596  0.00  0.00    -0.229 N 
BRANCH  11  12
ATOM     12  C   UNL d   1     -47.378  30.262  36.417  0.00  0.00     0.092 C 
BRANCH  12  13
ATOM     13  C   UNL d   1     -46.698  29.966  36.782  0.00  0.00     0.020 C 
ATOM     14  C   UNL d   1     -46.604  30.030  37.600  0.00  0.00     0.002 C 
ENDBRANCH  12  13
ENDBRANCH  11  12
BRANCH  11  15
ATOM     15  C   UNL d   1     -47.580  29.484  35.235  0.00  0.00     0.092 C 
BRANCH  15  16
ATOM     16  C   UNL d   1     -48.180  28.985  35.504  0.00  0.00     0.020 C 
ATOM     17  C   UNL d   1     -48.376  28.300  35.074  0.00  0.00     0.002 C 
ENDBRANCH  15  16
ENDBRANCH  11  15
ENDBRANCH   8  11
ENDBRANCH   2   8
BRANCH   1  18
ATOM     18  N   UNL d   1     -48.674  33.223  34.042  0.00  0.00    -0.113 N 
ATOM     19  O   UNL d   1     -49.254  33.233  34.626  0.00  0.00    -0.532 OA
ATOM     20  O   UNL d   1     -48.760  33.688  33.366  0.00  0.00    -0.532 OA
ENDBRANCH   1  18
TORSDOF 7
ENDMDL
MODEL 2
REMARK VINA RESULT:      45.7      6.834      8.429
REMARK  7 active torsions:
REMARK  status: ('A' for Active; 'I' for Inactive)
REMARK    1  A    between atoms: C_4  and  S_1 
REMARK    2  A    between atoms: N_6  and  S_1 
REMARK    3  A    between atoms: N_3  and  C_2 
REMARK    4  A    between atoms: C_15  and  N_6 
REMARK    5  A    between atoms: C_16  and  N_6 
REMARK    6  A    between atoms: C_18  and  C_15 
REMARK    7  A    between atoms: C_17  and  C_16 
ROOT
ATOM      1  C   UNL d   1     -50.014  24.984  33.626  0.00  0.00     0.138 A 
ATOM      2  C   UNL d   1     -51.423  24.814  33.791  0.00  0.00     0.106 A 
ATOM      3  C   UNL d   1     -50.662  24.497  33.778  0.00  0.00     0.037 A 
ATOM      4  C   UNL d   1     -50.126  25.788  33.488  0.00  0.00     0.080 A 
ATOM      5  C   UNL d   1     -51.536  25.621  33.653  0.00  0.00     0.014 A 
ATOM      6  C   UNL d   1     -50.888  26.108  33.502  0.00  0.00     0.014 A 
ATOM      7 CL   UNL d   1     -49.478  26.276  33.337  0.00  0.00    -0.081 Cl
ENDROOT
BRANCH   2   8
ATOM      8  S   UNL d   1     -52.071  24.326  33.943  0.00  0.00     0.271 S 
ATOM      9  O   UNL d   1     -51.839  23.827  33.328  0.00  0.00    -0.200 OA
ATOM     10  O   UNL d   1     -52.302  24.825  34.558  0.00  0.00    -0.200 OA
BRANCH   8  11
ATOM     11  N   UNL d   1     -52.719  23.839  34.094  0.00  0.00    -0.229 N 
BRANCH  11  12
ATOM     12  C   UNL d   1     -53.038  23.803  34.855  0.00  0.00     0.092 C 
BRANCH  12  13
ATOM     13  C   UNL d   1     -53.629  23.252  35.029  0.00  0.00     0.020 C 
ATOM     14  C   UNL d   1     -54.211  23.427  35.587  0.00  0.00     0.002 C 
ENDBRANCH  12  13
ENDBRANCH  11  12
BRANCH  11  15
ATOM     15  C   UNL d   1     -53.047  23.389  33.488  0.00  0.00     0.092 C 
BRANCH  15  16
ATOM     16  C   UNL d   1     -53.865  23.280  33.450  0.00  0.00     0.020 C 
ATOM     17  C   UNL d   1     -54.305  23.190  34.150  0.00  0.00     0.002 C 
ENDBRANCH  15  16
ENDBRANCH  11  15
ENDBRANCH   8  11
ENDBRANCH   2   8
BRANCH   1  18
ATOM     18  N   UNL d   1     -49.249  24.661  33.613  0.00  0.00    -0.113 N 
ATOM     19  O   UNL d   1     -49.143  23.847  33.669  0.00  0.00    -0.532 OA
ATOM     20  O   UNL d   1     -48.595  25.158  33.543  0.00  0.00    -0.532 OA
ENDBRANCH   1  18
TORSDOF 7
ENDMDL
