MODEL 1
REMARK VINA RESULT:      30.1      0.000      0.000
REMARK  6 active torsions:
REMARK  status: ('A' for Active; 'I' for Inactive)
REMARK    1  A    between atoms: C_11  and  C_2 
REMARK    2  A    between atoms: S_9  and  C_7 
REMARK    3  A    between atoms: C_13  and  S_9 
REMARK    4  A    between atoms: C_10  and  C_13 
REMARK    5  A    between atoms: O_18  and  C_10 
REMARK    6  A    between atoms: C_23  and  O_18 
ROOT
ATOM      1  N   UNL d   1      14.682  13.077  -1.294  0.00  0.00    -0.191 N 
ATOM      2  C   UNL d   1      14.492  12.476  -1.818  0.00  0.00     0.187 A 
ATOM      3  N   UNL d   1      14.811  11.779  -1.526  0.00  0.00    -0.127 NA
ATOM      4  C   UNL d   1      15.118  12.766  -0.675  0.00  0.00     0.187 A 
ATOM      5  N   UNL d   1      14.508  13.898  -1.303  0.00  0.00    -0.156 NA
ATOM      6  N   UNL d   1      15.201  11.950  -0.818  0.00  0.00    -0.127 NA
ATOM      7  C   UNL d   1      14.775  14.384  -0.691  0.00  0.00     0.131 A 
ATOM      8  C   UNL d   1      15.385  13.252  -0.063  0.00  0.00     0.043 A 
ATOM      9  C   UNL d   1      15.213  14.060  -0.072  0.00  0.00     0.031 A 
ENDROOT
BRANCH   7  10
ATOM     10  S   UNL d   1      14.603  15.192  -0.699  0.00  0.00    -0.061 SA
BRANCH  10  11
ATOM     11  C   UNL d   1      15.209  15.741  -0.599  0.00  0.00     0.094 C 
ATOM     12  C   UNL d   1      15.769  15.626  -0.014  0.00  0.00     0.013 C 
BRANCH  11  13
ATOM     13  C   UNL d   1      15.248  16.397  -1.081  0.00  0.00     0.306 C 
ATOM     14  O   UNL d   1      15.690  17.055  -0.852  0.00  0.00    -0.258 OA
BRANCH  13  15
ATOM     15  O   UNL d   1      14.848  16.415  -1.805  0.00  0.00    -0.271 OA
BRANCH  15  16
ATOM     16  C   UNL d   1      15.178  16.784  -2.446  0.00  0.00     0.126 C 
ATOM     17  C   UNL d   1      14.713  16.929  -3.098  0.00  0.00     0.029 C 
ENDBRANCH  15  16
ENDBRANCH  13  15
ENDBRANCH  11  13
ENDBRANCH  10  11
ENDBRANCH   7  10
BRANCH   2  18
ATOM     18  C   UNL d   1      14.061  12.549  -2.511  0.00  0.00     0.038 A 
ATOM     19  C   UNL d   1      14.263  13.140  -3.055  0.00  0.00     0.005 A 
ATOM     20  C   UNL d   1      13.830  13.218  -3.757  0.00  0.00     0.030 A 
ATOM     21  C   UNL d   1      13.201  12.706  -3.909  0.00  0.00     0.140 A 
ATOM     22  C   UNL d   1      12.999  12.115  -3.365  0.00  0.00     0.030 A 
ATOM     23  F   UNL d   1      12.769  12.781  -4.606  0.00  0.00    -0.204 F 
ATOM     24  C   UNL d   1      13.436  12.044  -2.666  0.00  0.00     0.005 A 
ENDBRANCH   2  18
TORSDOF 6
ENDMDL
