MODEL 1
REMARK VINA RESULT:      -3.2      0.000      0.000
REMARK  5 active torsions:
REMARK  status: ('A' for Active; 'I' for Inactive)
REMARK    1  A    between atoms: C_4  and  C_1 
REMARK       I    between atoms: N_8  and  C_4 
REMARK    2  A    between atoms: C_17  and  N_8 
REMARK    3  A    between atoms: C_18  and  N_8 
REMARK    4  A    between atoms: C_15  and  C_11 
REMARK    5  A    between atoms: C_12  and  C_15 
ROOT
ATOM      1  C   UNL d   1     -41.695-122.500 -50.861  0.00  0.00     0.120 A 
ATOM      2  C   UNL d   1     -42.013-121.844 -51.282  0.00  0.00     0.305 A 
ATOM      3  O   UNL d   1     -42.025-121.863 -52.107  0.00  0.00    -0.273 OA
ATOM      4  C   UNL d   1     -41.400-123.152 -51.280  0.00  0.00     0.012 A 
ATOM      5  C   UNL d   1     -41.728-122.518 -52.518  0.00  0.00     0.103 A 
ATOM      6  C   UNL d   1     -41.416-123.162 -52.105  0.00  0.00     0.023 A 
ATOM      7  O   UNL d   1     -42.320-121.168 -50.884  0.00  0.00    -0.259 OA
ATOM      8  C   UNL d   1     -41.750-122.514 -53.330  0.00  0.00     0.023 A 
ATOM      9  C   UNL d   1     -41.125-123.803 -52.503  0.00  0.00     0.002 A 
ATOM     10  C   UNL d   1     -41.141-123.814 -53.328  0.00  0.00     0.000 A 
ATOM     11  C   UNL d   1     -41.459-123.158 -53.749  0.00  0.00     0.002 A 
ENDROOT
BRANCH   1  12
ATOM     12  C   UNL d   1     -41.666-122.516 -50.020  0.00  0.00     0.270 C 
ATOM     13  N   UNL d   1     -42.168-123.021 -49.618  0.00  0.00    -0.272 N 
ATOM     14  O   UNL d   1     -41.123-122.014 -49.600  0.00  0.00    -0.266 OA
BRANCH  13  15
ATOM     15  C   UNL d   1     -42.691-123.503 -50.033  0.00  0.00     0.083 C 
ATOM     16  C   UNL d   1     -43.345-123.817 -49.664  0.00  0.00     0.021 C 
ENDBRANCH  13  15
BRANCH  13  17
ATOM     17  C   UNL d   1     -42.157-123.053 -48.795  0.00  0.00     0.083 C 
ATOM     18  C   UNL d   1     -41.706-123.622 -48.416  0.00  0.00     0.021 C 
ENDBRANCH  13  17
ENDBRANCH   1  12
BRANCH   8  19
ATOM     19  C   UNL d   1     -42.063-121.869 -53.735  0.00  0.00     0.002 C 
BRANCH  19  20
ATOM     20  C   UNL d   1     -42.141-121.890 -54.543  0.00  0.00     0.000 C 
ATOM     21  C   UNL d   1     -42.271-121.184 -54.975  0.00  0.00     0.000 C 
ENDBRANCH  19  20
ENDBRANCH   8  19
TORSDOF 5
ENDMDL
MODEL 2
REMARK VINA RESULT:      -1.6      1.226      2.051
REMARK  5 active torsions:
REMARK  status: ('A' for Active; 'I' for Inactive)
REMARK    1  A    between atoms: C_4  and  C_1 
REMARK       I    between atoms: N_8  and  C_4 
REMARK    2  A    between atoms: C_17  and  N_8 
REMARK    3  A    between atoms: C_18  and  N_8 
REMARK    4  A    between atoms: C_15  and  C_11 
REMARK    5  A    between atoms: C_12  and  C_15 
ROOT
ATOM      1  C   UNL d   1     -42.600-122.615 -49.735  0.00  0.00     0.120 A 
ATOM      2  C   UNL d   1     -42.822-123.145 -50.350  0.00  0.00     0.305 A 
ATOM      3  O   UNL d   1     -42.556-123.005 -51.117  0.00  0.00    -0.273 OA
ATOM      4  C   UNL d   1     -42.118-121.963 -49.909  0.00  0.00     0.012 A 
ATOM      5  C   UNL d   1     -42.075-122.351 -51.284  0.00  0.00     0.103 A 
ATOM      6  C   UNL d   1     -41.856-121.830 -50.680  0.00  0.00     0.023 A 
ATOM      7  O   UNL d   1     -43.311-123.815 -50.202  0.00  0.00    -0.259 OA
ATOM      8  C   UNL d   1     -41.824-122.233 -52.048  0.00  0.00     0.023 A 
ATOM      9  C   UNL d   1     -41.387-121.192 -50.840  0.00  0.00     0.002 A 
ATOM     10  C   UNL d   1     -41.124-121.059 -51.611  0.00  0.00     0.000 A 
ATOM     11  C   UNL d   1     -41.347-121.589 -52.226  0.00  0.00     0.002 A 
ENDROOT
BRANCH   1  12
ATOM     12  C   UNL d   1     -42.853-122.726 -48.939  0.00  0.00     0.270 C 
ATOM     13  N   UNL d   1     -42.342-123.083 -48.410  0.00  0.00    -0.272 N 
ATOM     14  O   UNL d   1     -43.626-122.470 -48.695  0.00  0.00    -0.266 OA
BRANCH  13  15
ATOM     15  C   UNL d   1     -41.595-123.328 -48.655  0.00  0.00     0.083 C 
ATOM     16  C   UNL d   1     -41.129-123.782 -48.166  0.00  0.00     0.021 C 
ENDBRANCH  13  15
BRANCH  13  17
ATOM     17  C   UNL d   1     -42.569-123.202 -47.627  0.00  0.00     0.083 C 
ATOM     18  C   UNL d   1     -42.049-123.021 -47.021  0.00  0.00     0.021 C 
ENDBRANCH  13  17
ENDBRANCH   1  12
BRANCH   8  19
ATOM     19  C   UNL d   1     -42.047-122.757 -52.644  0.00  0.00     0.002 C 
BRANCH  19  20
ATOM     20  C   UNL d   1     -41.668-122.744 -53.363  0.00  0.00     0.000 C 
ATOM     21  C   UNL d   1     -41.838-123.326 -53.942  0.00  0.00     0.000 C 
ENDBRANCH  19  20
ENDBRANCH   8  19
TORSDOF 5
ENDMDL
