MODEL 1
REMARK VINA RESULT:      -6.3      0.000      0.000
REMARK  7 active torsions:
REMARK  status: ('A' for Active; 'I' for Inactive)
REMARK    1  A    between atoms: C_4  and  C_1 
REMARK    2  A    between atoms: C_13  and  N_3 
REMARK    3  A    between atoms: C_15  and  N_5 
REMARK    4  A    between atoms: C_12  and  C_15 
REMARK    5  A    between atoms: C_18  and  C_13 
REMARK    6  A    between atoms: O_16  and  C_18 
REMARK    7  A    between atoms: C_17  and  O_16 
ROOT
ATOM      1  C   UNL d   1     -47.373  12.546  23.069  0.00  0.00     0.149 A 
ATOM      2  N   UNL d   1     -47.412  11.780  23.377  0.00  0.00    -0.227 NA
ATOM      3  N   UNL d   1     -48.147  12.807  22.929  0.00  0.00    -0.287 N 
ATOM      4  C   UNL d   1     -48.670  12.195  23.153  0.00  0.00     0.083 A 
ATOM      5  C   UNL d   1     -48.210  11.565  23.428  0.00  0.00     0.099 A 
ATOM      6  C   UNL d   1     -49.492  12.133  23.143  0.00  0.00     0.019 A 
ATOM      7  C   UNL d   1     -48.573  10.873  23.692  0.00  0.00     0.021 A 
ATOM      8  C   UNL d   1     -49.855  11.440  23.406  0.00  0.00     0.002 A 
ATOM      9  C   UNL d   1     -49.400  10.816  23.678  0.00  0.00     0.002 A 
ENDROOT
BRANCH   1  10
ATOM     10  C   UNL d   1     -46.686  12.983  22.923  0.00  0.00     0.057 A 
ATOM     11  C   UNL d   1     -46.026  12.729  22.498  0.00  0.00     0.086 A 
ATOM     12  N   UNL d   1     -45.476  13.347  22.494  0.00  0.00    -0.272 N 
ATOM     13  C   UNL d   1     -45.799  13.980  22.916  0.00  0.00     0.265 A 
ATOM     14  C   UNL d   1     -46.547  13.750  23.179  0.00  0.00     0.066 A 
ATOM     15  O   UNL d   1     -45.434  14.707  23.047  0.00  0.00    -0.267 OA
BRANCH  12  16
ATOM     16  C   UNL d   1     -44.735  13.323  22.127  0.00  0.00     0.083 C 
BRANCH  16  17
ATOM     17  C   UNL d   1     -44.442  12.621  21.804  0.00  0.00     0.019 C 
ATOM     18  C   UNL d   1     -43.775  12.633  21.316  0.00  0.00     0.002 C 
ENDBRANCH  16  17
ENDBRANCH  12  16
ENDBRANCH   1  10
BRANCH   3  19
ATOM     19  C   UNL d   1     -48.201  13.569  22.619  0.00  0.00     0.108 C 
BRANCH  19  20
ATOM     20  C   UNL d   1     -48.937  13.921  22.511  0.00  0.00     0.142 C 
BRANCH  20  21
ATOM     21  O   UNL d   1     -49.006  14.737  22.485  0.00  0.00    -0.304 OA
BRANCH  21  22
ATOM     22  C   UNL d   1     -49.697  15.103  22.740  0.00  0.00     0.100 A 
ATOM     23  C   UNL d   1     -50.374  15.046  22.293  0.00  0.00     0.025 A 
ATOM     24  C   UNL d   1     -51.062  15.413  22.550  0.00  0.00     0.002 A 
ATOM     25  C   UNL d   1     -51.064  15.833  23.252  0.00  0.00     0.000 A 
ATOM     26  C   UNL d   1     -50.370  15.884  23.698  0.00  0.00     0.002 A 
ATOM     27  C   UNL d   1     -49.689  15.522  23.443  0.00  0.00     0.025 A 
ENDBRANCH  21  22
ENDBRANCH  20  21
ENDBRANCH  19  20
ENDBRANCH   3  19
TORSDOF 7
ENDMDL
MODEL 2
REMARK VINA RESULT:      -4.8      5.742      8.688
REMARK  7 active torsions:
REMARK  status: ('A' for Active; 'I' for Inactive)
REMARK    1  A    between atoms: C_4  and  C_1 
REMARK    2  A    between atoms: C_13  and  N_3 
REMARK    3  A    between atoms: C_15  and  N_5 
REMARK    4  A    between atoms: C_12  and  C_15 
REMARK    5  A    between atoms: C_18  and  C_13 
REMARK    6  A    between atoms: O_16  and  C_18 
REMARK    7  A    between atoms: C_17  and  O_16 
ROOT
ATOM      1  C   UNL d   1     -39.556  15.071  19.815  0.00  0.00     0.149 A 
ATOM      2  N   UNL d   1     -38.819  15.348  20.063  0.00  0.00    -0.227 NA
ATOM      3  N   UNL d   1     -40.062  15.061  20.471  0.00  0.00    -0.287 N 
ATOM      4  C   UNL d   1     -39.631  15.334  21.133  0.00  0.00     0.083 A 
ATOM      5  C   UNL d   1     -38.866  15.509  20.874  0.00  0.00     0.099 A 
ATOM      6  C   UNL d   1     -39.835  15.444  21.924  0.00  0.00     0.019 A 
ATOM      7  C   UNL d   1     -38.305  15.794  21.407  0.00  0.00     0.021 A 
ATOM      8  C   UNL d   1     -39.274  15.729  22.458  0.00  0.00     0.002 A 
ATOM      9  C   UNL d   1     -38.516  15.903  22.201  0.00  0.00     0.002 A 
ENDROOT
BRANCH   1  10
ATOM     10  C   UNL d   1     -39.763  14.842  19.047  0.00  0.00     0.057 A 
ATOM     11  C   UNL d   1     -40.135  15.312  18.480  0.00  0.00     0.086 A 
ATOM     12  N   UNL d   1     -40.232  14.855  17.798  0.00  0.00    -0.272 N 
ATOM     13  C   UNL d   1     -39.920  14.104  17.946  0.00  0.00     0.265 A 
ATOM     14  C   UNL d   1     -39.631  14.102  18.719  0.00  0.00     0.066 A 
ATOM     15  O   UNL d   1     -39.902  13.476  17.413  0.00  0.00    -0.267 OA
BRANCH  12  16
ATOM     16  C   UNL d   1     -40.583  15.115  17.095  0.00  0.00     0.083 C 
BRANCH  16  17
ATOM     17  C   UNL d   1     -41.221  15.640  17.107  0.00  0.00     0.019 C 
ATOM     18  C   UNL d   1     -41.547  15.916  16.399  0.00  0.00     0.002 C 
ENDBRANCH  16  17
ENDBRANCH  12  16
ENDBRANCH   1  10
BRANCH   3  19
ATOM     19  C   UNL d   1     -40.827  14.795  20.311  0.00  0.00     0.108 C 
BRANCH  19  20
ATOM     20  C   UNL d   1     -41.252  14.388  20.887  0.00  0.00     0.142 C 
BRANCH  20  21
ATOM     21  O   UNL d   1     -42.070  14.373  20.861  0.00  0.00    -0.304 OA
BRANCH  21  22
ATOM     22  C   UNL d   1     -42.481  13.715  21.137  0.00  0.00     0.100 A 
ATOM     23  C   UNL d   1     -42.075  13.039  21.337  0.00  0.00     0.025 A 
ATOM     24  C   UNL d   1     -42.488  12.385  21.612  0.00  0.00     0.002 A 
ATOM     25  C   UNL d   1     -43.302  12.414  21.684  0.00  0.00     0.000 A 
ATOM     26  C   UNL d   1     -43.703  13.107  21.478  0.00  0.00     0.002 A 
ATOM     27  C   UNL d   1     -43.296  13.754  21.206  0.00  0.00     0.025 A 
ENDBRANCH  21  22
ENDBRANCH  20  21
ENDBRANCH  19  20
ENDBRANCH   3  19
TORSDOF 7
ENDMDL
MODEL 3
REMARK VINA RESULT:      -4.5      5.866      8.677
REMARK  7 active torsions:
REMARK  status: ('A' for Active; 'I' for Inactive)
REMARK    1  A    between atoms: C_4  and  C_1 
REMARK    2  A    between atoms: C_13  and  N_3 
REMARK    3  A    between atoms: C_15  and  N_5 
REMARK    4  A    between atoms: C_12  and  C_15 
REMARK    5  A    between atoms: C_18  and  C_13 
REMARK    6  A    between atoms: O_16  and  C_18 
REMARK    7  A    between atoms: C_17  and  O_16 
ROOT
ATOM      1  C   UNL d   1     -39.202  14.712  20.052  0.00  0.00     0.149 A 
ATOM      2  N   UNL d   1     -38.765  14.663  19.352  0.00  0.00    -0.227 NA
ATOM      3  N   UNL d   1     -40.006  14.652  19.858  0.00  0.00    -0.287 N 
ATOM      4  C   UNL d   1     -40.066  14.566  19.029  0.00  0.00     0.083 A 
ATOM      5  C   UNL d   1     -39.297  14.574  18.724  0.00  0.00     0.099 A 
ATOM      6  C   UNL d   1     -40.711  14.483  18.522  0.00  0.00     0.019 A 
ATOM      7  C   UNL d   1     -39.174  14.499  17.912  0.00  0.00     0.021 A 
ATOM      8  C   UNL d   1     -40.588  14.408  17.709  0.00  0.00     0.002 A 
ATOM      9  C   UNL d   1     -39.827  14.416  17.407  0.00  0.00     0.002 A 
ENDROOT
BRANCH   1  10
ATOM     10  C   UNL d   1     -38.900  14.804  20.816  0.00  0.00     0.057 A 
ATOM     11  C   UNL d   1     -38.637  14.201  21.313  0.00  0.00     0.086 A 
ATOM     12  N   UNL d   1     -38.383  14.548  22.020  0.00  0.00    -0.272 N 
ATOM     13  C   UNL d   1     -38.491  15.365  21.956  0.00  0.00     0.265 A 
ATOM     14  C   UNL d   1     -38.811  15.517  21.210  0.00  0.00     0.066 A 
ATOM     15  O   UNL d   1     -38.310  15.922  22.536  0.00  0.00    -0.267 OA
BRANCH  12  16
ATOM     16  C   UNL d   1     -38.077  14.139  22.670  0.00  0.00     0.083 C 
BRANCH  16  17
ATOM     17  C   UNL d   1     -38.199  13.326  22.757  0.00  0.00     0.019 C 
ATOM     18  C   UNL d   1     -38.103  12.967  23.496  0.00  0.00     0.002 C 
ENDBRANCH  16  17
ENDBRANCH  12  16
ENDBRANCH   1  10
BRANCH   3  19
ATOM     19  C   UNL d   1     -40.519  14.692  20.503  0.00  0.00     0.108 C 
BRANCH  19  20
ATOM     20  C   UNL d   1     -41.182  14.205  20.534  0.00  0.00     0.142 C 
BRANCH  20  21
ATOM     21  O   UNL d   1     -41.694  14.246  21.172  0.00  0.00    -0.304 OA
BRANCH  21  22
ATOM     22  C   UNL d   1     -42.272  13.670  21.278  0.00  0.00     0.100 A 
ATOM     23  C   UNL d   1     -43.050  13.841  21.109  0.00  0.00     0.025 A 
ATOM     24  C   UNL d   1     -43.624  13.264  21.215  0.00  0.00     0.002 A 
ATOM     25  C   UNL d   1     -43.414  12.522  21.489  0.00  0.00     0.000 A 
ATOM     26  C   UNL d   1     -42.620  12.360  21.657  0.00  0.00     0.002 A 
ATOM     27  C   UNL d   1     -42.052  12.931  21.552  0.00  0.00     0.025 A 
ENDBRANCH  21  22
ENDBRANCH  20  21
ENDBRANCH  19  20
ENDBRANCH   3  19
TORSDOF 7
ENDMDL
MODEL 4
REMARK VINA RESULT:      -4.5      1.508      3.209
REMARK  7 active torsions:
REMARK  status: ('A' for Active; 'I' for Inactive)
REMARK    1  A    between atoms: C_4  and  C_1 
REMARK    2  A    between atoms: C_13  and  N_3 
REMARK    3  A    between atoms: C_15  and  N_5 
REMARK    4  A    between atoms: C_12  and  C_15 
REMARK    5  A    between atoms: C_18  and  C_13 
REMARK    6  A    between atoms: O_16  and  C_18 
REMARK    7  A    between atoms: C_17  and  O_16 
ROOT
ATOM      1  C   UNL d   1     -46.413  12.824  23.114  0.00  0.00     0.149 A 
ATOM      2  N   UNL d   1     -45.616  12.623  23.205  0.00  0.00    -0.227 NA
ATOM      3  N   UNL d   1     -46.865  12.139  23.230  0.00  0.00    -0.287 N 
ATOM      4  C   UNL d   1     -46.342  11.509  23.394  0.00  0.00     0.083 A 
ATOM      5  C   UNL d   1     -45.574  11.815  23.377  0.00  0.00     0.099 A 
ATOM      6  C   UNL d   1     -46.465  10.709  23.554  0.00  0.00     0.019 A 
ATOM      7  C   UNL d   1     -44.930  11.320  23.520  0.00  0.00     0.021 A 
ATOM      8  C   UNL d   1     -45.821  10.215  23.698  0.00  0.00     0.002 A 
ATOM      9  C   UNL d   1     -45.060  10.517  23.681  0.00  0.00     0.002 A 
ENDROOT
BRANCH   1  10
ATOM     10  C   UNL d   1     -46.715  13.574  22.938  0.00  0.00     0.057 A 
ATOM     11  C   UNL d   1     -47.387  13.919  23.267  0.00  0.00     0.086 A 
ATOM     12  N   UNL d   1     -47.478  14.668  22.928  0.00  0.00    -0.272 N 
ATOM     13  C   UNL d   1     -46.859  14.783  22.391  0.00  0.00     0.265 A 
ATOM     14  C   UNL d   1     -46.391  14.103  22.401  0.00  0.00     0.066 A 
ATOM     15  O   UNL d   1     -46.739  15.456  21.932  0.00  0.00    -0.267 OA
BRANCH  12  16
ATOM     16  C   UNL d   1     -48.085  15.202  23.104  0.00  0.00     0.083 C 
BRANCH  16  17
ATOM     17  C   UNL d   1     -48.778  15.220  22.656  0.00  0.00     0.019 C 
ATOM     18  C   UNL d   1     -49.474  15.531  22.975  0.00  0.00     0.002 C 
ENDBRANCH  16  17
ENDBRANCH  12  16
ENDBRANCH   1  10
BRANCH   3  19
ATOM     19  C   UNL d   1     -47.680  12.250  23.156  0.00  0.00     0.108 C 
BRANCH  19  20
ATOM     20  C   UNL d   1     -48.200  11.655  23.386  0.00  0.00     0.142 C 
BRANCH  20  21
ATOM     21  O   UNL d   1     -48.782  11.394  22.871  0.00  0.00    -0.304 OA
BRANCH  21  22
ATOM     22  C   UNL d   1     -49.546  11.693  22.924  0.00  0.00     0.100 A 
ATOM     23  C   UNL d   1     -49.903  12.012  22.265  0.00  0.00     0.025 A 
ATOM     24  C   UNL d   1     -50.666  12.310  22.321  0.00  0.00     0.002 A 
ATOM     25  C   UNL d   1     -51.064  12.285  23.035  0.00  0.00     0.000 A 
ATOM     26  C   UNL d   1     -50.691  11.959  23.698  0.00  0.00     0.002 A 
ATOM     27  C   UNL d   1     -49.937  11.664  23.643  0.00  0.00     0.025 A 
ENDBRANCH  21  22
ENDBRANCH  20  21
ENDBRANCH  19  20
ENDBRANCH   3  19
TORSDOF 7
ENDMDL
