MODEL 1
REMARK VINA RESULT:      48.2      0.000      0.000
REMARK  4 active torsions:
REMARK  status: ('A' for Active; 'I' for Inactive)
REMARK       I    between atoms: N_2  and  C_1 
REMARK       I    between atoms: N_3  and  C_1 
REMARK    1  A    between atoms: C_7  and  N_3 
REMARK    2  A    between atoms: C_8  and  C_12 
REMARK    3  A    between atoms: C_17  and  C_8 
REMARK    4  A    between atoms: O_18  and  C_9 
ROOT
ATOM      1  C   UNL d   1      13.484  14.333  -4.418  0.00  0.00     0.354 C 
ATOM      2  N   UNL d   1      13.500  13.696  -3.894  0.00  0.00    -0.256 N 
ATOM      3  N   UNL d   1      13.984  14.975  -4.294  0.00  0.00    -0.192 NA
ATOM      4  O   UNL d   1      12.970  14.326  -5.064  0.00  0.00    -0.244 OA
ATOM      5  C   UNL d   1      12.996  13.050  -4.020  0.00  0.00     0.085 A 
ATOM      6  C   UNL d   1      14.013  13.699  -3.247  0.00  0.00     0.085 A 
ATOM      7  C   UNL d   1      13.012  12.406  -3.490  0.00  0.00     0.019 A 
ATOM      8  C   UNL d   1      14.026  13.066  -2.730  0.00  0.00     0.019 A 
ATOM      9  C   UNL d   1      13.524  12.420  -2.854  0.00  0.00     0.003 A 
ENDROOT
BRANCH   3  10
ATOM     10  C   UNL d   1      13.971  15.619  -4.821  0.00  0.00     0.086 A 
ATOM     11  C   UNL d   1      13.552  15.561  -5.524  0.00  0.00     0.021 A 
ATOM     12  C   UNL d   1      13.536  16.197  -6.049  0.00  0.00     0.026 A 
ATOM     13  C   UNL d   1      13.944  16.888  -5.859  0.00  0.00     0.094 A 
ATOM     14  C   UNL d   1      14.368  16.945  -5.144  0.00  0.00     0.026 A 
ATOM     15  C   UNL d   1      14.376  16.302  -4.629  0.00  0.00     0.021 A 
BRANCH  13  16
ATOM     16  O   UNL d   1      13.934  17.535  -6.381  0.00  0.00    -0.328 OA
ATOM     17  C   UNL d   1      13.326  18.090  -6.340  0.00  0.00     0.181 C 
ENDBRANCH  13  16
ENDBRANCH   3  10
BRANCH   9  18
ATOM     18  C   UNL d   1      13.539  11.779  -2.328  0.00  0.00     0.000 C 
BRANCH  18  19
ATOM     19  C   UNL d   1      13.861  11.861  -1.578  0.00  0.00     0.000 A 
ATOM     20  C   UNL d   1      14.679  11.865  -1.478  0.00  0.00     0.000 A 
ATOM     21  C   UNL d   1      15.002  11.947  -0.721  0.00  0.00     0.000 A 
ATOM     22  C   UNL d   1      14.503  12.025  -0.064  0.00  0.00     0.000 A 
ATOM     23  C   UNL d   1      13.682  12.020  -0.166  0.00  0.00     0.000 A 
ATOM     24  C   UNL d   1      13.362  11.938  -0.921  0.00  0.00     0.000 A 
ENDBRANCH  18  19
ENDBRANCH   9  18
TORSDOF 4
ENDMDL
