MODEL 1
REMARK VINA RESULT:      53.6      0.000      0.000
REMARK  4 active torsions:
REMARK  status: ('A' for Active; 'I' for Inactive)
REMARK       I    between atoms: C_2  and  N_1 
REMARK       I    between atoms: N_8  and  C_2 
REMARK    1  A    between atoms: C_14  and  N_8 
REMARK    2  A    between atoms: C_15  and  N_8 
REMARK    3  A    between atoms: C_17  and  C_14 
REMARK    4  A    between atoms: C_16  and  C_15 
ROOT
ATOM      1  N   UNL d   1      59.321  49.652  50.973  0.00  0.00    -0.259 N 
ATOM      2  C   UNL d   1      59.718  49.628  51.695  0.00  0.00     0.339 C 
ATOM      3  S   UNL d   1      58.528  49.700  49.519  0.00  0.00    -0.084 SA
ATOM      4  C   UNL d   1      58.497  49.667  50.947  0.00  0.00     0.074 A 
ATOM      5  C   UNL d   1      59.756  49.662  50.266  0.00  0.00     0.074 A 
ATOM      6  C   UNL d   1      58.093  49.691  50.229  0.00  0.00     0.046 A 
ATOM      7  C   UNL d   1      59.352  49.686  49.543  0.00  0.00     0.046 A 
ATOM      8  N   UNL d   1      60.543  49.614  51.721  0.00  0.00    -0.258 N 
ATOM      9  O   UNL d   1      59.287  49.618  52.404  0.00  0.00    -0.245 OA
ATOM     10  C   UNL d   1      58.064  49.657  51.656  0.00  0.00     0.018 A 
ATOM     11  C   UNL d   1      60.571  49.648  50.282  0.00  0.00     0.018 A 
ATOM     12  C   UNL d   1      59.779  49.696  48.836  0.00  0.00     0.008 A 
ATOM     13  C   UNL d   1      57.274  49.705  50.194  0.00  0.00     0.008 A 
ATOM     14  C   UNL d   1      61.005  49.658  49.575  0.00  0.00     0.002 A 
ATOM     15  C   UNL d   1      57.245  49.671  51.623  0.00  0.00     0.002 A 
ATOM     16  C   UNL d   1      56.850  49.695  50.909  0.00  0.00     0.001 A 
ATOM     17  C   UNL d   1      60.603  49.682  48.861  0.00  0.00     0.001 A 
ENDROOT
BRANCH   8  18
ATOM     18  C   UNL d   1      60.977  49.624  51.011  0.00  0.00     0.085 C 
BRANCH  18  19
ATOM     19  C   UNL d   1      61.784  49.707  51.045  0.00  0.00     0.019 C 
ATOM     20  C   UNL d   1      62.206  49.243  51.584  0.00  0.00     0.002 C 
ENDBRANCH  18  19
ENDBRANCH   8  18
BRANCH   8  21
ATOM     21  C   UNL d   1      60.932  49.590  52.445  0.00  0.00     0.085 C 
BRANCH  21  22
ATOM     22  C   UNL d   1      60.498  49.610  53.155  0.00  0.00     0.019 C 
ATOM     23  C   UNL d   1      60.879  49.677  53.871  0.00  0.00     0.002 C 
ENDBRANCH  21  22
ENDBRANCH   8  21
TORSDOF 4
ENDMDL
