MODEL 1
REMARK VINA RESULT:      -7.0      0.000      0.000
REMARK  6 active torsions:
REMARK  status: ('A' for Active; 'I' for Inactive)
REMARK    1  A    between atoms: N_2  and  S_1 
REMARK    2  A    between atoms: C_3  and  S_1 
REMARK    3  A    between atoms: C_7  and  N_2 
REMARK    4  A    between atoms: C_10  and  C_7 
REMARK    5  A    between atoms: O_14  and  C_11 
REMARK    6  A    between atoms: C_17  and  O_14 
ROOT
ATOM      1  S   UNL d   1     -48.001  13.148  22.917  0.00  0.00     0.285 S 
ATOM      2  O   UNL d   1     -47.635  13.577  22.314  0.00  0.00    -0.198 OA
ATOM      3  O   UNL d   1     -48.366  12.719  23.519  0.00  0.00    -0.198 OA
ENDROOT
BRANCH   1   4
ATOM      4  N   UNL d   1     -48.701  13.564  22.788  0.00  0.00    -0.155 NA
BRANCH   4   5
ATOM      5  C   UNL d   1     -48.747  14.365  22.977  0.00  0.00     0.131 C 
BRANCH   5   6
ATOM      6  C   UNL d   1     -49.480  14.743  23.001  0.00  0.00     0.101 A 
ATOM      7  N   UNL d   1     -50.067  14.537  22.462  0.00  0.00    -0.242 NA
ATOM      8  C   UNL d   1     -50.800  14.915  22.486  0.00  0.00     0.099 A 
ATOM      9  C   UNL d   1     -50.945  15.499  23.049  0.00  0.00     0.021 A 
ATOM     10  C   UNL d   1     -50.354  15.709  23.594  0.00  0.00     0.003 A 
ATOM     11  C   UNL d   1     -49.622  15.330  23.569  0.00  0.00     0.021 A 
ENDBRANCH   5   6
ENDBRANCH   4   5
ENDBRANCH   1   4
BRANCH   1  12
ATOM     12  C   UNL d   1     -47.300  12.732  23.045  0.00  0.00     0.105 A 
ATOM     13  C   UNL d   1     -46.586  13.030  22.763  0.00  0.00     0.015 A 
ATOM     14  C   UNL d   1     -45.886  12.614  22.892  0.00  0.00     0.025 A 
ATOM     15  C   UNL d   1     -45.898  11.900  23.302  0.00  0.00     0.100 A 
ATOM     16  C   UNL d   1     -46.613  11.602  23.584  0.00  0.00     0.025 A 
ATOM     17  C   UNL d   1     -47.320  12.022  23.454  0.00  0.00     0.015 A 
BRANCH  15  18
ATOM     18  O   UNL d   1     -45.197  11.484  23.430  0.00  0.00    -0.305 OA
BRANCH  18  19
ATOM     19  C   UNL d   1     -45.221  10.679  23.595  0.00  0.00     0.123 C 
ATOM     20  C   UNL d   1     -44.519  10.258  23.698  0.00  0.00     0.029 C 
ENDBRANCH  18  19
ENDBRANCH  15  18
ENDBRANCH   1  12
TORSDOF 6
ENDMDL
MODEL 2
REMARK VINA RESULT:      -6.7      1.771      5.160
REMARK  6 active torsions:
REMARK  status: ('A' for Active; 'I' for Inactive)
REMARK    1  A    between atoms: N_2  and  S_1 
REMARK    2  A    between atoms: C_3  and  S_1 
REMARK    3  A    between atoms: C_7  and  N_2 
REMARK    4  A    between atoms: C_10  and  C_7 
REMARK    5  A    between atoms: O_14  and  C_11 
REMARK    6  A    between atoms: C_17  and  O_14 
ROOT
ATOM      1  S   UNL d   1     -46.613  12.526  23.456  0.00  0.00     0.285 S 
ATOM      2  O   UNL d   1     -46.188  13.193  23.689  0.00  0.00    -0.198 OA
ATOM      3  O   UNL d   1     -47.039  11.858  23.222  0.00  0.00    -0.198 OA
ENDROOT
BRANCH   1   4
ATOM      4  N   UNL d   1     -45.961  12.050  23.626  0.00  0.00    -0.155 NA
BRANCH   4   5
ATOM      5  C   UNL d   1     -45.671  11.528  23.058  0.00  0.00     0.131 C 
BRANCH   5   6
ATOM      6  C   UNL d   1     -44.986  11.093  23.207  0.00  0.00     0.101 A 
ATOM      7  N   UNL d   1     -44.249  11.407  23.019  0.00  0.00    -0.242 NA
ATOM      8  C   UNL d   1     -43.564  10.972  23.168  0.00  0.00     0.099 A 
ATOM      9  C   UNL d   1     -43.617  10.222  23.507  0.00  0.00     0.021 A 
ATOM     10  C   UNL d   1     -44.359   9.903  23.698  0.00  0.00     0.003 A 
ATOM     11  C   UNL d   1     -45.044  10.339  23.548  0.00  0.00     0.021 A 
ENDBRANCH   5   6
ENDBRANCH   4   5
ENDBRANCH   1   4
BRANCH   1  12
ATOM     12  C   UNL d   1     -47.265  13.001  23.286  0.00  0.00     0.105 A 
ATOM     13  C   UNL d   1     -48.025  12.732  23.449  0.00  0.00     0.015 A 
ATOM     14  C   UNL d   1     -48.678  13.207  23.279  0.00  0.00     0.025 A 
ATOM     15  C   UNL d   1     -48.570  13.952  22.946  0.00  0.00     0.100 A 
ATOM     16  C   UNL d   1     -47.809  14.222  22.783  0.00  0.00     0.025 A 
ATOM     17  C   UNL d   1     -47.150  13.742  22.954  0.00  0.00     0.015 A 
BRANCH  15  18
ATOM     18  O   UNL d   1     -49.223  14.428  22.776  0.00  0.00    -0.305 OA
BRANCH  18  19
ATOM     19  C   UNL d   1     -49.738  14.218  22.170  0.00  0.00     0.123 C 
ATOM     20  C   UNL d   1     -50.346  14.731  21.949  0.00  0.00     0.029 C 
ENDBRANCH  18  19
ENDBRANCH  15  18
ENDBRANCH   1  12
TORSDOF 6
ENDMDL
MODEL 3
REMARK VINA RESULT:      -6.6      1.097      1.465
REMARK  6 active torsions:
REMARK  status: ('A' for Active; 'I' for Inactive)
REMARK    1  A    between atoms: N_2  and  S_1 
REMARK    2  A    between atoms: C_3  and  S_1 
REMARK    3  A    between atoms: C_7  and  N_2 
REMARK    4  A    between atoms: C_10  and  C_7 
REMARK    5  A    between atoms: O_14  and  C_11 
REMARK    6  A    between atoms: C_17  and  O_14 
ROOT
ATOM      1  S   UNL d   1     -47.678  13.832  23.109  0.00  0.00     0.285 S 
ATOM      2  O   UNL d   1     -47.397  14.598  22.991  0.00  0.00    -0.198 OA
ATOM      3  O   UNL d   1     -47.959  13.065  23.226  0.00  0.00    -0.198 OA
ENDROOT
BRANCH   1   4
ATOM      4  N   UNL d   1     -48.423  14.133  23.295  0.00  0.00    -0.155 NA
BRANCH   4   5
ATOM      5  C   UNL d   1     -48.798  14.654  22.779  0.00  0.00     0.131 C 
BRANCH   5   6
ATOM      6  C   UNL d   1     -49.552  14.939  22.955  0.00  0.00     0.101 A 
ATOM      7  N   UNL d   1     -49.644  15.556  23.493  0.00  0.00    -0.242 NA
ATOM      8  C   UNL d   1     -50.398  15.841  23.670  0.00  0.00     0.099 A 
ATOM      9  C   UNL d   1     -51.060  15.509  23.308  0.00  0.00     0.021 A 
ATOM     10  C   UNL d   1     -50.970  14.888  22.766  0.00  0.00     0.003 A 
ATOM     11  C   UNL d   1     -50.216  14.603  22.589  0.00  0.00     0.021 A 
ENDBRANCH   5   6
ENDBRANCH   4   5
ENDBRANCH   1   4
BRANCH   1  12
ATOM     12  C   UNL d   1     -46.933  13.530  22.922  0.00  0.00     0.105 A 
ATOM     13  C   UNL d   1     -46.393  13.992  22.508  0.00  0.00     0.015 A 
ATOM     14  C   UNL d   1     -45.648  13.691  22.322  0.00  0.00     0.025 A 
ATOM     15  C   UNL d   1     -45.443  12.926  22.549  0.00  0.00     0.100 A 
ATOM     16  C   UNL d   1     -45.985  12.463  22.963  0.00  0.00     0.025 A 
ATOM     17  C   UNL d   1     -46.737  12.768  23.152  0.00  0.00     0.015 A 
BRANCH  15  18
ATOM     18  O   UNL d   1     -44.699  12.625  22.362  0.00  0.00    -0.305 OA
BRANCH  18  19
ATOM     19  C   UNL d   1     -44.258  12.962  21.755  0.00  0.00     0.123 C 
ATOM     20  C   UNL d   1     -43.525  12.642  21.549  0.00  0.00     0.029 C 
ENDBRANCH  18  19
ENDBRANCH  15  18
ENDBRANCH   1  12
TORSDOF 6
ENDMDL
MODEL 4
REMARK VINA RESULT:      -6.0      1.958      5.076
REMARK  6 active torsions:
REMARK  status: ('A' for Active; 'I' for Inactive)
REMARK    1  A    between atoms: N_2  and  S_1 
REMARK    2  A    between atoms: C_3  and  S_1 
REMARK    3  A    between atoms: C_7  and  N_2 
REMARK    4  A    between atoms: C_10  and  C_7 
REMARK    5  A    between atoms: O_14  and  C_11 
REMARK    6  A    between atoms: C_17  and  O_14 
ROOT
ATOM      1  S   UNL d   1     -46.562  13.721  22.765  0.00  0.00     0.285 S 
ATOM      2  O   UNL d   1     -46.233  14.468  22.883  0.00  0.00    -0.198 OA
ATOM      3  O   UNL d   1     -46.892  12.974  22.648  0.00  0.00    -0.198 OA
ENDROOT
BRANCH   1   4
ATOM      4  N   UNL d   1     -45.807  13.391  22.738  0.00  0.00    -0.155 NA
BRANCH   4   5
ATOM      5  C   UNL d   1     -45.528  13.053  22.040  0.00  0.00     0.131 C 
BRANCH   5   6
ATOM      6  C   UNL d   1     -44.754  12.770  21.998  0.00  0.00     0.101 A 
ATOM      7  N   UNL d   1     -44.512  12.157  22.491  0.00  0.00    -0.242 NA
ATOM      8  C   UNL d   1     -43.738  11.874  22.449  0.00  0.00     0.099 A 
ATOM      9  C   UNL d   1     -43.207  12.204  21.913  0.00  0.00     0.021 A 
ATOM     10  C   UNL d   1     -43.449  12.822  21.414  0.00  0.00     0.003 A 
ATOM     11  C   UNL d   1     -44.222  13.105  21.457  0.00  0.00     0.021 A 
ENDBRANCH   5   6
ENDBRANCH   4   5
ENDBRANCH   1   4
BRANCH   1  12
ATOM     12  C   UNL d   1     -47.318  14.050  22.792  0.00  0.00     0.105 A 
ATOM     13  C   UNL d   1     -47.436  14.831  22.563  0.00  0.00     0.015 A 
ATOM     14  C   UNL d   1     -48.192  15.161  22.590  0.00  0.00     0.025 A 
ATOM     15  C   UNL d   1     -48.830  14.709  22.847  0.00  0.00     0.100 A 
ATOM     16  C   UNL d   1     -48.712  13.926  23.076  0.00  0.00     0.025 A 
ATOM     17  C   UNL d   1     -47.949  13.594  23.049  0.00  0.00     0.015 A 
BRANCH  15  18
ATOM     18  O   UNL d   1     -49.586  15.038  22.874  0.00  0.00    -0.305 OA
BRANCH  18  19
ATOM     19  C   UNL d   1     -49.809  15.505  23.513  0.00  0.00     0.123 C 
ATOM     20  C   UNL d   1     -50.592  15.755  23.589  0.00  0.00     0.029 C 
ENDBRANCH  18  19
ENDBRANCH  15  18
ENDBRANCH   1  12
TORSDOF 6
ENDMDL
MODEL 5
REMARK VINA RESULT:      -4.9      9.040     10.370
REMARK  6 active torsions:
REMARK  status: ('A' for Active; 'I' for Inactive)
REMARK    1  A    between atoms: N_2  and  S_1 
REMARK    2  A    between atoms: C_3  and  S_1 
REMARK    3  A    between atoms: C_7  and  N_2 
REMARK    4  A    between atoms: C_10  and  C_7 
REMARK    5  A    between atoms: O_14  and  C_11 
REMARK    6  A    between atoms: C_17  and  O_14 
ROOT
ATOM      1  S   UNL d   1     -39.190  14.197  18.382  0.00  0.00     0.285 S 
ATOM      2  O   UNL d   1     -38.537  14.685  18.507  0.00  0.00    -0.198 OA
ATOM      3  O   UNL d   1     -39.843  13.708  18.256  0.00  0.00    -0.198 OA
ENDROOT
BRANCH   1   4
ATOM      4  N   UNL d   1     -39.502  14.427  19.110  0.00  0.00    -0.155 NA
BRANCH   4   5
ATOM      5  C   UNL d   1     -39.620  15.226  19.275  0.00  0.00     0.131 C 
BRANCH   5   6
ATOM      6  C   UNL d   1     -40.047  15.451  19.944  0.00  0.00     0.101 A 
ATOM      7  N   UNL d   1     -39.651  15.634  20.643  0.00  0.00    -0.242 NA
ATOM      8  C   UNL d   1     -40.077  15.859  21.312  0.00  0.00     0.099 A 
ATOM      9  C   UNL d   1     -40.900  15.902  21.283  0.00  0.00     0.021 A 
ATOM     10  C   UNL d   1     -41.301  15.718  20.580  0.00  0.00     0.003 A 
ATOM     11  C   UNL d   1     -40.875  15.493  19.910  0.00  0.00     0.021 A 
ENDBRANCH   5   6
ENDBRANCH   4   5
ENDBRANCH   1   4
BRANCH   1  12
ATOM     12  C   UNL d   1     -38.878  13.967  17.654  0.00  0.00     0.105 A 
ATOM     13  C   UNL d   1     -39.009  14.427  16.985  0.00  0.00     0.015 A 
ATOM     14  C   UNL d   1     -38.697  14.197  16.257  0.00  0.00     0.025 A 
ATOM     15  C   UNL d   1     -38.254  13.506  16.197  0.00  0.00     0.100 A 
ATOM     16  C   UNL d   1     -38.122  13.045  16.867  0.00  0.00     0.025 A 
ATOM     17  C   UNL d   1     -38.437  13.278  17.603  0.00  0.00     0.015 A 
BRANCH  15  18
ATOM     18  O   UNL d   1     -37.941  13.276  15.469  0.00  0.00    -0.305 OA
BRANCH  18  19
ATOM     19  C   UNL d   1     -38.121  13.705  14.790  0.00  0.00     0.123 C 
ATOM     20  C   UNL d   1     -37.940  13.396  14.047  0.00  0.00     0.029 C 
ENDBRANCH  18  19
ENDBRANCH  15  18
ENDBRANCH   1  12
TORSDOF 6
ENDMDL
MODEL 6
REMARK VINA RESULT:      -4.8      8.887      9.732
REMARK  6 active torsions:
REMARK  status: ('A' for Active; 'I' for Inactive)
REMARK    1  A    between atoms: N_2  and  S_1 
REMARK    2  A    between atoms: C_3  and  S_1 
REMARK    3  A    between atoms: C_7  and  N_2 
REMARK    4  A    between atoms: C_10  and  C_7 
REMARK    5  A    between atoms: O_14  and  C_11 
REMARK    6  A    between atoms: C_17  and  O_14 
ROOT
ATOM      1  S   UNL d   1     -39.546  14.738  19.910  0.00  0.00     0.285 S 
ATOM      2  O   UNL d   1     -38.935  15.274  19.769  0.00  0.00    -0.198 OA
ATOM      3  O   UNL d   1     -40.157  14.202  20.050  0.00  0.00    -0.198 OA
ENDROOT
BRANCH   1   4
ATOM      4  N   UNL d   1     -39.223  14.564  20.649  0.00  0.00    -0.155 NA
BRANCH   4   5
ATOM      5  C   UNL d   1     -39.614  14.797  21.336  0.00  0.00     0.131 C 
BRANCH   5   6
ATOM      6  C   UNL d   1     -39.286  14.632  22.074  0.00  0.00     0.101 A 
ATOM      7  N   UNL d   1     -39.203  13.852  22.323  0.00  0.00    -0.242 NA
ATOM      8  C   UNL d   1     -38.875  13.687  23.062  0.00  0.00     0.099 A 
ATOM      9  C   UNL d   1     -38.629  14.302  23.552  0.00  0.00     0.021 A 
ATOM     10  C   UNL d   1     -38.712  15.090  23.303  0.00  0.00     0.003 A 
ATOM     11  C   UNL d   1     -39.040  15.255  22.564  0.00  0.00     0.021 A 
ENDBRANCH   5   6
ENDBRANCH   4   5
ENDBRANCH   1   4
BRANCH   1  12
ATOM     12  C   UNL d   1     -39.869  14.912  19.171  0.00  0.00     0.105 A 
ATOM     13  C   UNL d   1     -40.191  14.312  18.710  0.00  0.00     0.015 A 
ATOM     14  C   UNL d   1     -40.514  14.486  17.971  0.00  0.00     0.025 A 
ATOM     15  C   UNL d   1     -40.515  15.261  17.693  0.00  0.00     0.100 A 
ATOM     16  C   UNL d   1     -40.193  15.862  18.155  0.00  0.00     0.025 A 
ATOM     17  C   UNL d   1     -39.866  15.686  18.901  0.00  0.00     0.015 A 
BRANCH  15  18
ATOM     18  O   UNL d   1     -40.838  15.435  16.954  0.00  0.00    -0.305 OA
BRANCH  18  19
ATOM     19  C   UNL d   1     -41.653  15.508  16.868  0.00  0.00     0.123 C 
ATOM     20  C   UNL d   1     -41.965  15.922  16.226  0.00  0.00     0.029 C 
ENDBRANCH  18  19
ENDBRANCH  15  18
ENDBRANCH   1  12
TORSDOF 6
ENDMDL
MODEL 7
REMARK VINA RESULT:      -4.6      8.638      9.256
REMARK  6 active torsions:
REMARK  status: ('A' for Active; 'I' for Inactive)
REMARK    1  A    between atoms: N_2  and  S_1 
REMARK    2  A    between atoms: C_3  and  S_1 
REMARK    3  A    between atoms: C_7  and  N_2 
REMARK    4  A    between atoms: C_10  and  C_7 
REMARK    5  A    between atoms: O_14  and  C_11 
REMARK    6  A    between atoms: C_17  and  O_14 
ROOT
ATOM      1  S   UNL d   1     -39.951  15.319  19.936  0.00  0.00     0.285 S 
ATOM      2  O   UNL d   1     -39.162  15.320  19.695  0.00  0.00    -0.198 OA
ATOM      3  O   UNL d   1     -40.740  15.318  20.177  0.00  0.00    -0.198 OA
ENDROOT
BRANCH   1   4
ATOM      4  N   UNL d   1     -40.180  15.587  19.190  0.00  0.00    -0.155 NA
BRANCH   4   5
ATOM      5  C   UNL d   1     -40.167  15.073  18.545  0.00  0.00     0.131 C 
BRANCH   5   6
ATOM      6  C   UNL d   1     -40.397  15.341  17.799  0.00  0.00     0.101 A 
ATOM      7  N   UNL d   1     -41.186  15.295  17.570  0.00  0.00    -0.242 NA
ATOM      8  C   UNL d   1     -41.416  15.563  16.824  0.00  0.00     0.099 A 
ATOM      9  C   UNL d   1     -40.855  15.875  16.307  0.00  0.00     0.021 A 
ATOM     10  C   UNL d   1     -40.059  15.922  16.536  0.00  0.00     0.003 A 
ATOM     11  C   UNL d   1     -39.829  15.655  17.282  0.00  0.00     0.021 A 
ENDBRANCH   5   6
ENDBRANCH   4   5
ENDBRANCH   1   4
BRANCH   1  12
ATOM     12  C   UNL d   1     -39.723  15.051  20.682  0.00  0.00     0.105 A 
ATOM     13  C   UNL d   1     -39.952  14.304  20.940  0.00  0.00     0.015 A 
ATOM     14  C   UNL d   1     -39.724  14.037  21.686  0.00  0.00     0.025 A 
ATOM     15  C   UNL d   1     -39.266  14.516  22.175  0.00  0.00     0.100 A 
ATOM     16  C   UNL d   1     -39.037  15.264  21.916  0.00  0.00     0.025 A 
ATOM     17  C   UNL d   1     -39.268  15.534  21.163  0.00  0.00     0.015 A 
BRANCH  15  18
ATOM     18  O   UNL d   1     -39.038  14.248  22.921  0.00  0.00    -0.305 OA
BRANCH  18  19
ATOM     19  C   UNL d   1     -38.312  13.874  23.020  0.00  0.00     0.123 C 
ATOM     20  C   UNL d   1     -38.171  13.417  23.692  0.00  0.00     0.029 C 
ENDBRANCH  18  19
ENDBRANCH  15  18
ENDBRANCH   1  12
TORSDOF 6
ENDMDL
