MODEL 1
REMARK VINA RESULT:      32.9      0.000      0.000
REMARK  6 active torsions:
REMARK  status: ('A' for Active; 'I' for Inactive)
REMARK    1  A    between atoms: N_2  and  S_1 
REMARK    2  A    between atoms: C_4  and  S_1 
REMARK    3  A    between atoms: C_3  and  N_2 
REMARK    4  A    between atoms: N_7  and  C_3 
REMARK    5  A    between atoms: C_11  and  N_7 
REMARK    6  A    between atoms: C_15  and  C_14 
ROOT
ATOM      1  S   UNL d   1     -56.469 -99.155 -44.212  0.00  0.00     0.287 S 
ATOM      2  O   UNL d   1     -56.665 -99.551 -43.515  0.00  0.00    -0.198 OA
ATOM      3  O   UNL d   1     -56.274 -98.757 -44.913  0.00  0.00    -0.198 OA
ENDROOT
BRANCH   1   4
ATOM      4  N   UNL d   1     -55.664 -99.251 -44.040  0.00  0.00    -0.128 NA
BRANCH   4   5
ATOM      5  C   UNL d   1     -55.033 -99.756 -43.876  0.00  0.00     0.232 C 
ATOM      6  S   UNL d   1     -54.721 -99.799 -43.113  0.00  0.00    -0.036 SA
BRANCH   5   7
ATOM      7  N   UNL d   1     -54.714-100.219 -44.478  0.00  0.00    -0.217 NA
BRANCH   7   8
ATOM      8  C   UNL d   1     -54.888-101.027 -44.503  0.00  0.00     0.084 A 
ATOM      9  C   UNL d   1     -54.713-101.498 -43.851  0.00  0.00     0.019 A 
ATOM     10  C   UNL d   1     -54.882-102.303 -43.868  0.00  0.00     0.002 A 
ATOM     11  C   UNL d   1     -55.225-102.635 -44.532  0.00  0.00     0.000 A 
ATOM     12  C   UNL d   1     -55.399-102.159 -45.182  0.00  0.00     0.002 A 
ATOM     13  C   UNL d   1     -55.231-101.359 -45.166  0.00  0.00     0.019 A 
ENDBRANCH   7   8
ENDBRANCH   5   7
ENDBRANCH   4   5
ENDBRANCH   1   4
BRANCH   1  14
ATOM     14  C   UNL d   1     -57.280 -99.060 -44.384  0.00  0.00     0.105 A 
ATOM     15  C   UNL d   1     -57.530 -99.053 -45.170  0.00  0.00     0.013 A 
ATOM     16  C   UNL d   1     -58.340 -98.957 -45.342  0.00  0.00     0.001 A 
ATOM     17  C   UNL d   1     -58.895 -98.869 -44.725  0.00  0.00     0.000 A 
ATOM     18  C   UNL d   1     -58.637 -98.877 -43.937  0.00  0.00     0.001 A 
ATOM     19  C   UNL d   1     -57.835 -98.972 -43.768  0.00  0.00     0.013 A 
BRANCH  17  20
ATOM     20  C   UNL d   1     -59.695 -98.776 -44.907  0.00  0.00     0.000 C 
ATOM     21  C   UNL d   1     -59.942 -98.762 -45.688  0.00  0.00     0.000 C 
ENDBRANCH  17  20
ENDBRANCH   1  14
TORSDOF 6
ENDMDL
