MODEL 1
REMARK VINA RESULT:      50.7      0.000      0.000
REMARK  4 active torsions:
REMARK  status: ('A' for Active; 'I' for Inactive)
REMARK    1  A    between atoms: N_2  and  S_1 
REMARK    2  A    between atoms: C_3  and  S_1 
REMARK    3  A    between atoms: O_15  and  C_13 
REMARK    4  A    between atoms: C_19  and  O_15 
ROOT
ATOM      1  C   UNL d   1     -54.943-101.219 -38.675  0.00  0.00     0.105 A 
ATOM      2  C   UNL d   1     -55.021-101.644 -37.960  0.00  0.00     0.014 A 
ATOM      3  C   UNL d   1     -54.945-101.254 -37.240  0.00  0.00     0.024 A 
ATOM      4  C   UNL d   1     -54.788-100.403 -38.641  0.00  0.00     0.015 A 
ATOM      5  C   UNL d   1     -54.791-100.447 -37.214  0.00  0.00     0.100 A 
ATOM      6  C   UNL d   1     -54.713-100.020 -37.916  0.00  0.00     0.025 A 
ATOM      7  C   UNL d   1     -55.175-102.454 -37.984  0.00  0.00     0.001 A 
ATOM      8  C   UNL d   1     -55.023-101.677 -36.540  0.00  0.00     0.002 A 
ATOM      9  C   UNL d   1     -55.253-102.877 -37.284  0.00  0.00     0.000 A 
ATOM     10  C   UNL d   1     -55.176-102.487 -36.554  0.00  0.00     0.000 A 
ENDROOT
BRANCH   1  11
ATOM     11  S   UNL d   1     -55.018-101.602 -39.399  0.00  0.00     0.286 S 
ATOM     12  O   UNL d   1     -55.126-102.322 -39.007  0.00  0.00    -0.198 OA
ATOM     13  O   UNL d   1     -54.909-100.878 -39.794  0.00  0.00    -0.198 OA
BRANCH  11  14
ATOM     14  N   UNL d   1     -55.094-101.992 -40.135  0.00  0.00    -0.150 N 
ATOM     15  N   UNL d   1     -55.563-101.738 -40.773  0.00  0.00    -0.155 NA
ATOM     16  C   UNL d   1     -55.475-102.285 -41.386  0.00  0.00     0.104 A 
ATOM     17  C   UNL d   1     -55.842-102.253 -42.129  0.00  0.00     0.022 C 
ATOM     18  C   UNL d   1     -54.951-102.877 -41.127  0.00  0.00     0.042 A 
ATOM     19  C   UNL d   1     -54.720-102.691 -40.356  0.00  0.00     0.115 A 
ENDBRANCH  11  14
ENDBRANCH   1  11
BRANCH   5  20
ATOM     20  O   UNL d   1     -54.716-100.063 -36.490  0.00  0.00    -0.305 OA
BRANCH  20  21
ATOM     21  C   UNL d   1     -54.984 -99.292 -36.404  0.00  0.00     0.123 C 
ATOM     22  C   UNL d   1     -54.926 -98.907 -35.678  0.00  0.00     0.029 C 
ENDBRANCH  20  21
ENDBRANCH   5  20
TORSDOF 4
ENDMDL
