MODEL 1
REMARK VINA RESULT:      86.8      0.000      0.000
REMARK  7 active torsions:
REMARK  status: ('A' for Active; 'I' for Inactive)
REMARK    1  A    between atoms: C_14  and  C_4 
REMARK    2  A    between atoms: N_17  and  C_5 
REMARK    3  A    between atoms: C_13  and  C_8 
REMARK    4  A    between atoms: N_11  and  C_18 
REMARK    5  A    between atoms: C_20  and  N_17 
REMARK    6  A    between atoms: C_18  and  C_19 
REMARK    7  A    between atoms: C_19  and  C_20 
ROOT
ATOM      1  C   UNL d   1     -55.198-101.331 -43.487  0.00  0.00     0.168 A 
ATOM      2  N   UNL d   1     -55.030-101.109 -42.697  0.00  0.00    -0.184 N 
ATOM      3  N   UNL d   1     -55.419-100.763 -44.030  0.00  0.00    -0.231 NA
ATOM      4  C   UNL d   1     -55.143-102.106 -43.712  0.00  0.00     0.057 A 
ATOM      5  C   UNL d   1     -55.093-100.331 -42.495  0.00  0.00     0.217 A 
ATOM      6  N   UNL d   1     -54.758-102.447 -42.392  0.00  0.00    -0.160 NA
ATOM      7  C   UNL d   1     -55.313 -99.752 -43.032  0.00  0.00     0.067 A 
ATOM      8  C   UNL d   1     -55.479 -99.971 -43.810  0.00  0.00     0.064 A 
ATOM      9  C   UNL d   1     -54.923-102.666 -43.170  0.00  0.00     0.124 A 
ENDROOT
BRANCH   5  10
ATOM     10  N   UNL d   1     -54.922-100.105 -41.692  0.00  0.00    -0.380 NA
BRANCH  10  11
ATOM     11  C   UNL d   1     -54.726 -99.815 -40.918  0.00  0.00     0.164 C 
BRANCH  11  12
ATOM     12  C   UNL d   1     -55.241 -99.975 -40.273  0.00  0.00     0.054 C 
BRANCH  12  13
ATOM     13  C   UNL d   1     -54.922-100.098 -39.499  0.00  0.00     0.084 C 
BRANCH  13  14
ATOM     14  N   UNL d   1     -54.863-100.890 -39.189  0.00  0.00    -0.285 N 
ATOM     15  C   UNL d   1     -54.743-101.095 -38.379  0.00  0.00     0.183 A 
ATOM     16  N   UNL d   1     -54.721-101.941 -38.327  0.00  0.00    -0.222 NA
ATOM     17  C   UNL d   1     -54.828-102.254 -39.107  0.00  0.00     0.120 A 
ATOM     18  C   UNL d   1     -54.916-101.604 -39.640  0.00  0.00     0.102 A 
ENDBRANCH  13  14
ENDBRANCH  12  13
ENDBRANCH  11  12
ENDBRANCH  10  11
ENDBRANCH   5  10
BRANCH   8  19
ATOM     19  C   UNL d   1     -55.710 -99.380 -44.381  0.00  0.00     0.036 C 
ATOM     20  C   UNL d   1     -56.505 -99.068 -44.371  0.00  0.00     0.006 C 
ATOM     21  C   UNL d   1     -55.942 -98.797 -44.942  0.00  0.00     0.006 C 
ATOM     22  C   UNL d   1     -55.146 -99.107 -44.956  0.00  0.00     0.006 C 
ENDBRANCH   8  19
BRANCH   4  23
ATOM     23  C   UNL d   1     -55.308-102.325 -44.490  0.00  0.00     0.004 A 
ATOM     24  C   UNL d   1     -54.726-102.645 -44.940  0.00  0.00     0.000 A 
ATOM     25  C   UNL d   1     -54.892-102.864 -45.718  0.00  0.00     0.000 A 
ATOM     26  C   UNL d   1     -55.634-102.755 -46.021  0.00  0.00     0.000 A 
ATOM     27  C   UNL d   1     -56.221-102.429 -45.557  0.00  0.00     0.000 A 
ATOM     28  C   UNL d   1     -56.056-102.211 -44.779  0.00  0.00     0.000 A 
ENDBRANCH   4  23
TORSDOF 7
ENDMDL
MODEL 2
REMARK VINA RESULT:      88.8      2.134      3.178
REMARK  7 active torsions:
REMARK  status: ('A' for Active; 'I' for Inactive)
REMARK    1  A    between atoms: C_14  and  C_4 
REMARK    2  A    between atoms: N_17  and  C_5 
REMARK    3  A    between atoms: C_13  and  C_8 
REMARK    4  A    between atoms: N_11  and  C_18 
REMARK    5  A    between atoms: C_20  and  N_17 
REMARK    6  A    between atoms: C_18  and  C_19 
REMARK    7  A    between atoms: C_19  and  C_20 
ROOT
ATOM      1  C   UNL d   1     -57.377 -98.952 -43.533  0.00  0.00     0.168 A 
ATOM      2  N   UNL d   1     -56.873 -98.897 -42.866  0.00  0.00    -0.184 N 
ATOM      3  N   UNL d   1     -57.058 -98.928 -44.285  0.00  0.00    -0.231 NA
ATOM      4  C   UNL d   1     -58.175 -99.028 -43.434  0.00  0.00     0.057 A 
ATOM      5  C   UNL d   1     -56.080 -98.822 -42.988  0.00  0.00     0.217 A 
ATOM      6  N   UNL d   1     -57.991 -98.997 -42.031  0.00  0.00    -0.160 NA
ATOM      7  C   UNL d   1     -55.749 -98.797 -43.737  0.00  0.00     0.067 A 
ATOM      8  C   UNL d   1     -56.245 -98.851 -44.395  0.00  0.00     0.064 A 
ATOM      9  C   UNL d   1     -58.487 -99.051 -42.688  0.00  0.00     0.124 A 
ENDROOT
BRANCH   5  10
ATOM     10  N   UNL d   1     -55.568 -98.766 -42.309  0.00  0.00    -0.380 NA
BRANCH  10  11
ATOM     11  C   UNL d   1     -55.080 -98.779 -41.614  0.00  0.00     0.164 C 
BRANCH  11  12
ATOM     12  C   UNL d   1     -55.022 -99.484 -41.160  0.00  0.00     0.054 C 
BRANCH  12  13
ATOM     13  C   UNL d   1     -54.815-100.212 -41.537  0.00  0.00     0.084 C 
BRANCH  13  14
ATOM     14  N   UNL d   1     -54.800-100.933 -41.081  0.00  0.00    -0.285 N 
ATOM     15  C   UNL d   1     -54.728-100.984 -40.243  0.00  0.00     0.183 A 
ATOM     16  N   UNL d   1     -54.739-101.806 -40.032  0.00  0.00    -0.222 NA
ATOM     17  C   UNL d   1     -54.817-102.258 -40.745  0.00  0.00     0.120 A 
ATOM     18  C   UNL d   1     -54.855-101.718 -41.394  0.00  0.00     0.102 A 
ENDBRANCH  13  14
ENDBRANCH  12  13
ENDBRANCH  11  12
ENDBRANCH  10  11
ENDBRANCH   5  10
BRANCH   8  19
ATOM     19  C   UNL d   1     -55.916 -98.827 -45.182  0.00  0.00     0.036 C 
ATOM     20  C   UNL d   1     -56.436 -98.789 -45.859  0.00  0.00     0.006 C 
ATOM     21  C   UNL d   1     -55.596 -98.802 -45.961  0.00  0.00     0.006 C 
ATOM     22  C   UNL d   1     -55.072 -98.840 -45.286  0.00  0.00     0.006 C 
ENDBRANCH   8  19
BRANCH   4  23
ATOM     23  C   UNL d   1     -58.671 -99.082 -44.092  0.00  0.00     0.004 A 
ATOM     24  C   UNL d   1     -58.408 -99.455 -44.752  0.00  0.00     0.000 A 
ATOM     25  C   UNL d   1     -58.904 -99.509 -45.410  0.00  0.00     0.000 A 
ATOM     26  C   UNL d   1     -59.646 -99.188 -45.386  0.00  0.00     0.000 A 
ATOM     27  C   UNL d   1     -59.907 -98.811 -44.711  0.00  0.00     0.000 A 
ATOM     28  C   UNL d   1     -59.411 -98.757 -44.054  0.00  0.00     0.000 A 
ENDBRANCH   4  23
TORSDOF 7
ENDMDL
