MODEL 1
REMARK VINA RESULT:      -3.2      0.000      0.000
REMARK  4 active torsions:
REMARK  status: ('A' for Active; 'I' for Inactive)
REMARK    1  A    between atoms: S_4  and  C_8 
REMARK    2  A    between atoms: N_9  and  S_4 
REMARK    3  A    between atoms: C_16  and  N_9 
REMARK    4  A    between atoms: C_12  and  C_16 
ROOT
ATOM      1  C   UNL d   1      32.963  22.834 -21.230  0.00  0.00     0.339 A 
ATOM      2  N   UNL d   1      32.953  22.453 -21.956  0.00  0.00    -0.256 N 
ATOM      3  N   UNL d   1      33.047  22.266 -20.637  0.00  0.00    -0.256 N 
ATOM      4  C   UNL d   1      33.032  21.636 -21.810  0.00  0.00     0.085 A 
ATOM      5  C   UNL d   1      33.091  21.525 -20.994  0.00  0.00     0.085 A 
ATOM      6  C   UNL d   1      33.059  20.979 -22.324  0.00  0.00     0.033 A 
ATOM      7  C   UNL d   1      33.143  20.218 -22.018  0.00  0.00     0.118 A 
ATOM      8  C   UNL d   1      33.175  20.757 -20.695  0.00  0.00     0.020 A 
ATOM      9  O   UNL d   1      32.898  23.660 -21.110  0.00  0.00    -0.245 OA
ATOM     10  C   UNL d   1      33.201  20.107 -21.204  0.00  0.00     0.016 A 
ATOM     11  C   UNL d   1      32.876  22.831 -22.694  0.00  0.00     0.104 C 
ATOM     12  C   UNL d   1      33.082  22.423 -19.827  0.00  0.00     0.104 C 
ENDROOT
BRANCH   7  13
ATOM     13  S   UNL d   1      33.169  19.567 -22.528  0.00  0.00     0.327 S 
ATOM     14  O   UNL d   1      33.098  19.057 -21.880  0.00  0.00    -0.186 OA
ATOM     15  O   UNL d   1      33.241  20.076 -23.174  0.00  0.00    -0.186 OA
BRANCH  13  16
ATOM     16  N   UNL d   1      33.196  18.917 -23.037  0.00  0.00    -0.312 NA
BRANCH  16  17
ATOM     17  C   UNL d   1      33.222  18.267 -23.546  0.00  0.00     0.200 C 
BRANCH  17  18
ATOM     18  C   UNL d   1      32.527  17.869 -23.745  0.00  0.00     0.133 A 
ATOM     19  O   UNL d   1      31.980  18.098 -24.326  0.00  0.00    -0.302 OA
ATOM     20  C   UNL d   1      31.370  17.553 -24.347  0.00  0.00     0.123 A 
ATOM     21  C   UNL d   1      31.533  16.973 -23.775  0.00  0.00     0.029 A 
ATOM     22  C   UNL d   1      32.244  17.172 -23.409  0.00  0.00     0.029 A 
ENDBRANCH  17  18
ENDBRANCH  16  17
ENDBRANCH  13  16
ENDBRANCH   7  13
TORSDOF 4
ENDMDL
MODEL 2
REMARK VINA RESULT:      -2.5      2.322      5.518
REMARK  4 active torsions:
REMARK  status: ('A' for Active; 'I' for Inactive)
REMARK    1  A    between atoms: S_4  and  C_8 
REMARK    2  A    between atoms: N_9  and  S_4 
REMARK    3  A    between atoms: C_16  and  N_9 
REMARK    4  A    between atoms: C_12  and  C_16 
ROOT
ATOM      1  C   UNL d   1      28.604  16.646 -24.282  0.00  0.00     0.339 A 
ATOM      2  N   UNL d   1      29.009  17.286 -23.966  0.00  0.00    -0.256 N 
ATOM      3  N   UNL d   1      29.146  16.156 -24.666  0.00  0.00    -0.256 N 
ATOM      4  C   UNL d   1      29.815  17.190 -24.159  0.00  0.00     0.085 A 
ATOM      5  C   UNL d   1      29.895  16.492 -24.590  0.00  0.00     0.085 A 
ATOM      6  C   UNL d   1      30.486  17.657 -23.991  0.00  0.00     0.033 A 
ATOM      7  C   UNL d   1      31.230  17.422 -24.257  0.00  0.00     0.118 A 
ATOM      8  C   UNL d   1      30.646  16.262 -24.854  0.00  0.00     0.020 A 
ATOM      9  O   UNL d   1      27.780  16.513 -24.224  0.00  0.00    -0.245 OA
ATOM     10  C   UNL d   1      31.310  16.724 -24.688  0.00  0.00     0.016 A 
ATOM     11  C   UNL d   1      28.661  17.907 -23.536  0.00  0.00     0.104 C 
ATOM     12  C   UNL d   1      28.960  15.453 -25.056  0.00  0.00     0.104 C 
ENDROOT
BRANCH   7  13
ATOM     13  S   UNL d   1      31.895  17.885 -24.090  0.00  0.00     0.327 S 
ATOM     14  O   UNL d   1      32.138  17.333 -23.524  0.00  0.00    -0.186 OA
ATOM     15  O   UNL d   1      31.653  18.436 -24.656  0.00  0.00    -0.186 OA
BRANCH  13  16
ATOM     16  N   UNL d   1      32.559  18.347 -23.924  0.00  0.00    -0.312 NA
BRANCH  16  17
ATOM     17  C   UNL d   1      33.223  18.810 -23.758  0.00  0.00     0.200 C 
BRANCH  17  18
ATOM     18  C   UNL d   1      33.228  19.304 -23.098  0.00  0.00     0.133 A 
ATOM     19  O   UNL d   1      33.237  19.062 -22.304  0.00  0.00    -0.302 OA
ATOM     20  C   UNL d   1      33.240  19.723 -21.823  0.00  0.00     0.123 A 
ATOM     21  C   UNL d   1      33.233  20.392 -22.318  0.00  0.00     0.029 A 
ATOM     22  C   UNL d   1      33.226  20.128 -23.098  0.00  0.00     0.029 A 
ENDBRANCH  17  18
ENDBRANCH  16  17
ENDBRANCH  13  16
ENDBRANCH   7  13
TORSDOF 4
ENDMDL
MODEL 3
REMARK VINA RESULT:      -1.9      1.400      4.969
REMARK  4 active torsions:
REMARK  status: ('A' for Active; 'I' for Inactive)
REMARK    1  A    between atoms: S_4  and  C_8 
REMARK    2  A    between atoms: N_9  and  S_4 
REMARK    3  A    between atoms: C_16  and  N_9 
REMARK    4  A    between atoms: C_12  and  C_16 
ROOT
ATOM      1  C   UNL d   1      32.496  16.288 -23.875  0.00  0.00     0.339 A 
ATOM      2  N   UNL d   1      32.794  16.626 -23.189  0.00  0.00    -0.256 N 
ATOM      3  N   UNL d   1      32.199  16.890 -24.356  0.00  0.00    -0.256 N 
ATOM      4  C   UNL d   1      32.679  17.450 -23.248  0.00  0.00     0.085 A 
ATOM      5  C   UNL d   1      32.312  17.608 -23.969  0.00  0.00     0.085 A 
ATOM      6  C   UNL d   1      32.866  18.075 -22.728  0.00  0.00     0.033 A 
ATOM      7  C   UNL d   1      32.684  18.853 -22.934  0.00  0.00     0.118 A 
ATOM      8  C   UNL d   1      32.132  18.392 -24.169  0.00  0.00     0.020 A 
ATOM      9  O   UNL d   1      32.494  15.471 -24.056  0.00  0.00    -0.245 OA
ATOM     10  C   UNL d   1      32.317  19.011 -23.655  0.00  0.00     0.016 A 
ATOM     11  C   UNL d   1      33.143  16.206 -22.561  0.00  0.00     0.104 C 
ATOM     12  C   UNL d   1      31.850  16.780 -25.097  0.00  0.00     0.104 C 
ENDROOT
BRANCH   7  13
ATOM     13  S   UNL d   1      32.870  19.473 -22.419  0.00  0.00     0.327 S 
ATOM     14  O   UNL d   1      32.683  18.991 -21.773  0.00  0.00    -0.186 OA
ATOM     15  O   UNL d   1      33.057  19.953 -23.064  0.00  0.00    -0.186 OA
BRANCH  13  16
ATOM     16  N   UNL d   1      33.055  20.091 -21.904  0.00  0.00    -0.312 NA
BRANCH  16  17
ATOM     17  C   UNL d   1      33.241  20.710 -21.390  0.00  0.00     0.200 C 
BRANCH  17  18
ATOM     18  C   UNL d   1      32.672  21.278 -21.203  0.00  0.00     0.133 A 
ATOM     19  O   UNL d   1      31.893  21.128 -20.956  0.00  0.00    -0.302 OA
ATOM     20  C   UNL d   1      31.513  21.841 -20.827  0.00  0.00     0.123 A 
ATOM     21  C   UNL d   1      32.056  22.448 -20.995  0.00  0.00     0.029 A 
ATOM     22  C   UNL d   1      32.765  22.096 -21.225  0.00  0.00     0.029 A 
ENDBRANCH  17  18
ENDBRANCH  16  17
ENDBRANCH  13  16
ENDBRANCH   7  13
TORSDOF 4
ENDMDL
