MODEL 1
REMARK VINA RESULT:      95.5      0.000      0.000
REMARK  4 active torsions:
REMARK  status: ('A' for Active; 'I' for Inactive)
REMARK    1  A    between atoms: C_14  and  N_3 
REMARK    2  A    between atoms: C_13  and  N_7 
REMARK       I    between atoms: N_9  and  C_10 
REMARK    3  A    between atoms: C_10  and  C_13 
REMARK    4  A    between atoms: C_19  and  C_14 
ROOT
ATOM      1  C   UNL d   1      61.240  47.646  50.263  0.00  0.00     0.191 A 
ATOM      2  C   UNL d   1      61.324  48.377  49.890  0.00  0.00     0.196 A 
ATOM      3  N   UNL d   1      61.908  47.200  50.104  0.00  0.00    -0.191 N 
ATOM      4  N   UNL d   1      60.553  47.481  50.707  0.00  0.00    -0.204 NA
ATOM      5  N   UNL d   1      62.055  48.370  49.500  0.00  0.00    -0.122 NA
ATOM      6  N   UNL d   1      62.408  47.641  49.637  0.00  0.00    -0.058 NA
ATOM      7  N   UNL d   1      60.052  48.791  50.389  0.00  0.00    -0.249 N 
ATOM      8  C   UNL d   1      60.742  48.948  49.947  0.00  0.00     0.289 A 
ATOM      9  C   UNL d   1      59.954  48.057  50.771  0.00  0.00     0.187 A 
ATOM     10  O   UNL d   1      60.826  49.678  49.574  0.00  0.00    -0.265 OA
ENDROOT
BRANCH   7  11
ATOM     11  C   UNL d   1      59.459  49.351  50.457  0.00  0.00     0.146 C 
BRANCH  11  12
ATOM     12  C   UNL d   1      59.014  49.434  51.139  0.00  0.00     0.283 C 
ATOM     13  N   UNL d   1      58.186  49.526  51.110  0.00  0.00    -0.272 N 
ATOM     14  C   UNL d   1      57.803  49.534  50.371  0.00  0.00     0.067 A 
ATOM     15  C   UNL d   1      57.760  49.607  51.794  0.00  0.00     0.083 A 
ATOM     16  C   UNL d   1      56.975  49.627  50.343  0.00  0.00     0.016 A 
ATOM     17  C   UNL d   1      58.226  49.454  49.676  0.00  0.00     0.018 A 
ATOM     18  C   UNL d   1      56.591  49.635  49.604  0.00  0.00     0.001 A 
ATOM     19  C   UNL d   1      56.562  49.706  51.035  0.00  0.00     0.003 A 
ATOM     20  C   UNL d   1      57.022  49.554  48.913  0.00  0.00     0.000 A 
ATOM     21  C   UNL d   1      57.850  49.461  48.941  0.00  0.00     0.002 A 
ATOM     22  C   UNL d   1      56.932  49.699  51.767  0.00  0.00     0.019 A 
ATOM     23  O   UNL d   1      59.398  49.425  51.878  0.00  0.00    -0.265 OA
ENDBRANCH  11  12
ENDBRANCH   7  11
BRANCH   3  24
ATOM     24  C   UNL d   1      62.047  46.430  50.374  0.00  0.00     0.104 C 
BRANCH  24  25
ATOM     25  C   UNL d   1      61.829  45.791  49.925  0.00  0.00     0.019 A 
ATOM     26  C   UNL d   1      62.119  45.040  50.105  0.00  0.00     0.002 A 
ATOM     27  C   UNL d   1      61.896  44.404  49.650  0.00  0.00     0.000 A 
ATOM     28  C   UNL d   1      61.387  44.495  49.013  0.00  0.00     0.000 A 
ATOM     29  C   UNL d   1      61.098  45.246  48.834  0.00  0.00     0.000 A 
ATOM     30  C   UNL d   1      61.315  45.885  49.283  0.00  0.00     0.002 A 
ENDBRANCH  24  25
ENDBRANCH   3  24
TORSDOF 4
ENDMDL
