MODEL 1
REMARK VINA RESULT:      15.7      0.000      0.000
REMARK  2 active torsions:
REMARK  status: ('A' for Active; 'I' for Inactive)
REMARK    1  A    between atoms: CA_3  and  C_1 
REMARK    2  A    between atoms: C_2  and  CA_3 
ROOT
ATOM      1  C   UNL d   1     -55.233-100.268 -44.290  0.00  0.00     0.026 A 
ATOM      2  C   UNL d   1     -56.051-100.149 -44.376  0.00  0.00     0.013 A 
ATOM      3  C   UNL d   1     -56.344 -99.396 -44.535  0.00  0.00     0.058 A 
ATOM      4 CL   UNL d   1     -57.156 -99.282 -44.620  0.00  0.00    -0.082 Cl
ATOM      5  C   UNL d   1     -54.716 -99.629 -44.363  0.00  0.00     0.002 A 
ATOM      6  C   UNL d   1     -55.017 -98.872 -44.523  0.00  0.00     0.001 A 
ATOM      7  C   UNL d   1     -55.827 -98.758 -44.608  0.00  0.00     0.011 A 
ENDROOT
BRANCH   1   8
ATOM      8  CA  UNL d   1     -54.942-101.024 -44.131  0.00  0.00     0.167 C 
ATOM      9  N   UNL d   1     -54.714-101.228 -43.368  0.00  0.00    -0.142 N 
BRANCH   8  10
ATOM     10  C   UNL d   1     -54.881-101.575 -44.742  0.00  0.00     0.231 C 
ATOM     11  O   UNL d   1     -54.722-101.334 -45.512  0.00  0.00    -0.643 OA
ATOM     12  OXT UNL d   1     -54.979-102.382 -44.582  0.00  0.00    -0.643 OA
ENDBRANCH   8  10
ENDBRANCH   1   8
TORSDOF 2
ENDMDL
MODEL 2
REMARK VINA RESULT:      16.2      2.331      2.823
REMARK  2 active torsions:
REMARK  status: ('A' for Active; 'I' for Inactive)
REMARK    1  A    between atoms: CA_3  and  C_1 
REMARK    2  A    between atoms: C_2  and  CA_3 
ROOT
ATOM      1  C   UNL d   1     -56.242 -99.288 -44.564  0.00  0.00     0.026 A 
ATOM      2  C   UNL d   1     -56.110-100.106 -44.500  0.00  0.00     0.013 A 
ATOM      3  C   UNL d   1     -55.350-100.392 -44.367  0.00  0.00     0.058 A 
ATOM      4 CL   UNL d   1     -55.223-101.204 -44.304  0.00  0.00    -0.082 Cl
ATOM      5  C   UNL d   1     -55.608 -98.764 -44.495  0.00  0.00     0.002 A 
ATOM      6  C   UNL d   1     -54.843 -99.058 -44.361  0.00  0.00     0.001 A 
ATOM      7  C   UNL d   1     -54.716 -99.868 -44.298  0.00  0.00     0.011 A 
ENDROOT
BRANCH   1   8
ATOM      8  CA  UNL d   1     -57.006 -99.003 -44.697  0.00  0.00     0.167 C 
ATOM      9  N   UNL d   1     -57.231 -98.757 -45.449  0.00  0.00    -0.142 N 
BRANCH   8  10
ATOM     10  C   UNL d   1     -57.543 -98.967 -44.072  0.00  0.00     0.231 C 
ATOM     11  O   UNL d   1     -57.295 -98.755 -43.316  0.00  0.00    -0.643 OA
ATOM     12  OXT UNL d   1     -58.341 -99.144 -44.203  0.00  0.00    -0.643 OA
ENDBRANCH   8  10
ENDBRANCH   1   8
TORSDOF 2
ENDMDL
MODEL 3
REMARK VINA RESULT:      16.7      1.951      2.594
REMARK  2 active torsions:
REMARK  status: ('A' for Active; 'I' for Inactive)
REMARK    1  A    between atoms: CA_3  and  C_1 
REMARK    2  A    between atoms: C_2  and  CA_3 
ROOT
ATOM      1  C   UNL d   1     -55.045-100.177 -44.325  0.00  0.00     0.026 A 
ATOM      2  C   UNL d   1     -54.960-100.686 -43.674  0.00  0.00     0.013 A 
ATOM      3  C   UNL d   1     -54.794-101.483 -43.793  0.00  0.00     0.058 A 
ATOM      4 CL   UNL d   1     -54.711-101.986 -43.145  0.00  0.00    -0.082 Cl
ATOM      5  C   UNL d   1     -54.962-100.472 -45.091  0.00  0.00     0.002 A 
ATOM      6  C   UNL d   1     -54.795-101.277 -45.206  0.00  0.00     0.001 A 
ATOM      7  C   UNL d   1     -54.712-101.779 -44.559  0.00  0.00     0.011 A 
ENDROOT
BRANCH   1   8
ATOM      8  CA  UNL d   1     -55.211 -99.377 -44.203  0.00  0.00     0.167 C 
ATOM      9  N   UNL d   1     -54.725 -98.922 -43.720  0.00  0.00    -0.142 N 
BRANCH   8  10
ATOM     10  C   UNL d   1     -55.868 -99.035 -44.567  0.00  0.00     0.231 C 
ATOM     11  O   UNL d   1     -55.827 -98.772 -45.346  0.00  0.00    -0.643 OA
ATOM     12  OXT UNL d   1     -56.577 -98.955 -44.149  0.00  0.00    -0.643 OA
ENDBRANCH   8  10
ENDBRANCH   1   8
TORSDOF 2
ENDMDL
