MODEL 1
REMARK VINA RESULT:      57.1      0.000      0.000
REMARK  5 active torsions:
REMARK  status: ('A' for Active; 'I' for Inactive)
REMARK    1  A    between atoms: C_4  and  C_1 
REMARK       I    between atoms: N_2  and  C_3 
REMARK    2  A    between atoms: C_6  and  N_2 
REMARK    3  A    between atoms: C_3  and  C_5 
REMARK    4  A    between atoms: C_5  and  C_7 
REMARK    5  A    between atoms: C_7  and  C_14 
ROOT
ATOM      1  C   UNL d   1      61.074  48.812  51.103  0.00  0.00     0.062 C 
ENDROOT
BRANCH   1   2
ATOM      2  C   UNL d   1      61.096  48.003  51.052  0.00  0.00     0.279 C 
ATOM      3  N   UNL d   1      61.233  47.650  50.323  0.00  0.00    -0.208 NA
ATOM      4  O   UNL d   1      60.986  47.549  51.714  0.00  0.00    -0.265 OA
BRANCH   3   5
ATOM      5  C   UNL d   1      61.257  46.821  50.266  0.00  0.00     0.085 A 
ATOM      6  C   UNL d   1      61.673  46.474  49.636  0.00  0.00     0.018 A 
ATOM      7  C   UNL d   1      62.053  46.950  49.080  0.00  0.00     0.002 C 
ATOM      8  C   UNL d   1      61.704  45.649  49.570  0.00  0.00     0.002 A 
ATOM      9  C   UNL d   1      61.326  45.177  50.123  0.00  0.00     0.000 A 
ATOM     10  C   UNL d   1      60.917  45.525  50.742  0.00  0.00     0.002 A 
ATOM     11  C   UNL d   1      60.879  46.349  50.819  0.00  0.00     0.019 A 
ENDBRANCH   3   5
ENDBRANCH   1   2
BRANCH   1  12
ATOM     12  C   UNL d   1      60.551  49.243  50.620  0.00  0.00     0.005 C 
BRANCH  12  13
ATOM     13  C   UNL d   1      59.776  49.398  50.863  0.00  0.00     0.000 A 
ATOM     14  C   UNL d   1      59.184  49.440  50.306  0.00  0.00     0.004 A 
ATOM     15  C   UNL d   1      58.416  49.595  50.572  0.00  0.00     0.071 A 
ATOM     16  C   UNL d   1      58.235  49.705  51.345  0.00  0.00     0.004 A 
ATOM     17  C   UNL d   1      58.827  49.663  51.901  0.00  0.00    -0.000 A 
ATOM     18  C   UNL d   1      59.588  49.513  51.676  0.00  0.00    -0.000 A 
BRANCH  15  19
ATOM     19  C   UNL d   1      57.828  49.634  49.989  0.00  0.00     0.419 C 
ATOM     20  F   UNL d   1      57.208  49.671  49.415  0.00  0.00    -0.166 F 
ATOM     21  F   UNL d   1      58.375  49.667  49.405  0.00  0.00    -0.166 F 
ATOM     22  F   UNL d   1      57.235  49.599  50.596  0.00  0.00    -0.166 F 
ENDBRANCH  15  19
ENDBRANCH  12  13
ENDBRANCH   1  12
TORSDOF 5
ENDMDL
