MODEL 1
REMARK VINA RESULT:      -7.6      0.000      0.000
REMARK  4 active torsions:
REMARK  status: ('A' for Active; 'I' for Inactive)
REMARK    1  A    between atoms: C_11  and  C_4 
REMARK    2  A    between atoms: C_9  and  C_5 
REMARK    3  A    between atoms: O_21  and  C_16 
REMARK    4  A    between atoms: O_22  and  C_17 
ROOT
ATOM      1  N   UNL d   1     -46.945  13.589  22.886  0.00  0.00    -0.185 N 
ATOM      2  C   UNL d   1     -46.149  13.802  22.791  0.00  0.00     0.219 A 
ATOM      3  N   UNL d   1     -46.970  12.798  23.101  0.00  0.00    -0.153 NA
ATOM      4  C   UNL d   1     -47.409  14.252  22.729  0.00  0.00     0.187 A 
ATOM      5  C   UNL d   1     -46.191  12.513  23.142  0.00  0.00     0.156 A 
ATOM      6  S   UNL d   1     -45.684  13.138  22.949  0.00  0.00    -0.024 SA
ATOM      7  N   UNL d   1     -46.900  14.874  22.537  0.00  0.00    -0.127 NA
ATOM      8  N   UNL d   1     -46.124  14.603  22.573  0.00  0.00    -0.120 NA
ENDROOT
BRANCH   4   9
ATOM      9  C   UNL d   1     -48.230  14.291  22.757  0.00  0.00     0.040 A 
ATOM     10  C   UNL d   1     -48.671  13.982  22.134  0.00  0.00     0.029 A 
ATOM     11  C   UNL d   1     -49.488  14.018  22.156  0.00  0.00     0.116 A 
ATOM     12  C   UNL d   1     -49.876  14.362  22.802  0.00  0.00     0.116 A 
ATOM     13  C   UNL d   1     -49.429  14.671  23.429  0.00  0.00     0.026 A 
ATOM     14  C   UNL d   1     -48.607  14.633  23.402  0.00  0.00     0.005 A 
BRANCH  11  15
ATOM     15  O   UNL d   1     -49.939  13.711  21.534  0.00  0.00    -0.326 OA
ATOM     16  C   UNL d   1     -49.865  12.924  21.309  0.00  0.00     0.181 C 
ENDBRANCH  11  15
BRANCH  12  17
ATOM     17  O   UNL d   1     -50.705  14.402  22.834  0.00  0.00    -0.326 OA
ATOM     18  C   UNL d   1     -51.064  14.742  23.492  0.00  0.00     0.181 C 
ENDBRANCH  12  17
ENDBRANCH   4   9
BRANCH   5  19
ATOM     19  C   UNL d   1     -45.963  11.746  23.338  0.00  0.00     0.126 A 
ATOM     20  O   UNL d   1     -45.195  11.458  23.365  0.00  0.00    -0.298 OA
ATOM     21  C   UNL d   1     -45.225  10.664  23.587  0.00  0.00     0.134 A 
ATOM     22 BR   UNL d   1     -44.574  10.164  23.681  0.00  0.00    -0.022 Br
ATOM     23  C   UNL d   1     -46.013  10.458  23.698  0.00  0.00     0.034 A 
ATOM     24  C   UNL d   1     -46.473  11.130  23.544  0.00  0.00     0.029 A 
ENDBRANCH   5  19
TORSDOF 4
ENDMDL
MODEL 2
REMARK VINA RESULT:      -7.4      2.415      4.896
REMARK  4 active torsions:
REMARK  status: ('A' for Active; 'I' for Inactive)
REMARK    1  A    between atoms: C_11  and  C_4 
REMARK    2  A    between atoms: C_9  and  C_5 
REMARK    3  A    between atoms: O_21  and  C_16 
REMARK    4  A    between atoms: O_22  and  C_17 
ROOT
ATOM      1  N   UNL d   1     -48.583  12.355  23.193  0.00  0.00    -0.185 N 
ATOM      2  C   UNL d   1     -49.252  11.912  23.401  0.00  0.00     0.219 A 
ATOM      3  N   UNL d   1     -48.825  13.124  23.043  0.00  0.00    -0.153 NA
ATOM      4  C   UNL d   1     -47.927  11.855  23.215  0.00  0.00     0.187 A 
ATOM      5  C   UNL d   1     -49.646  13.166  23.157  0.00  0.00     0.156 A 
ATOM      6  S   UNL d   1     -49.909  12.412  23.379  0.00  0.00    -0.024 SA
ATOM      7  N   UNL d   1     -48.192  11.104  23.437  0.00  0.00    -0.127 NA
ATOM      8  N   UNL d   1     -49.006  11.134  23.553  0.00  0.00    -0.120 NA
ENDROOT
BRANCH   4   9
ATOM      9  C   UNL d   1     -47.149  12.063  23.048  0.00  0.00     0.040 A 
ATOM     10  C   UNL d   1     -46.534  11.624  23.376  0.00  0.00     0.029 A 
ATOM     11  C   UNL d   1     -45.758  11.826  23.213  0.00  0.00     0.116 A 
ATOM     12  C   UNL d   1     -45.586  12.469  22.720  0.00  0.00     0.116 A 
ATOM     13  C   UNL d   1     -46.208  12.909  22.392  0.00  0.00     0.026 A 
ATOM     14  C   UNL d   1     -46.986  12.702  22.558  0.00  0.00     0.005 A 
BRANCH  11  15
ATOM     15  O   UNL d   1     -45.133  11.391  23.538  0.00  0.00    -0.326 OA
ATOM     16  C   UNL d   1     -45.215  10.587  23.691  0.00  0.00     0.181 C 
ENDBRANCH  11  15
BRANCH  12  17
ATOM     17  O   UNL d   1     -44.801  12.682  22.549  0.00  0.00    -0.326 OA
ATOM     18  C   UNL d   1     -44.646  13.137  21.882  0.00  0.00     0.181 C 
ENDBRANCH  12  17
ENDBRANCH   4   9
BRANCH   5  19
ATOM     19  C   UNL d   1     -50.117  13.836  23.065  0.00  0.00     0.126 A 
ATOM     20  O   UNL d   1     -50.275  14.402  23.639  0.00  0.00    -0.298 OA
ATOM     21  C   UNL d   1     -50.769  14.973  23.307  0.00  0.00     0.134 A 
ATOM     22 BR   UNL d   1     -51.062  15.642  23.694  0.00  0.00    -0.022 Br
ATOM     23  C   UNL d   1     -50.918  14.763  22.527  0.00  0.00     0.034 A 
ATOM     24  C   UNL d   1     -50.513  14.055  22.375  0.00  0.00     0.029 A 
ENDBRANCH   5  19
TORSDOF 4
ENDMDL
MODEL 3
REMARK VINA RESULT:      -6.8      1.450      2.015
REMARK  4 active torsions:
REMARK  status: ('A' for Active; 'I' for Inactive)
REMARK    1  A    between atoms: C_11  and  C_4 
REMARK    2  A    between atoms: C_9  and  C_5 
REMARK    3  A    between atoms: O_21  and  C_16 
REMARK    4  A    between atoms: O_22  and  C_17 
ROOT
ATOM      1  N   UNL d   1     -47.922  12.781  23.122  0.00  0.00    -0.185 N 
ATOM      2  C   UNL d   1     -47.621  12.044  23.354  0.00  0.00     0.219 A 
ATOM      3  N   UNL d   1     -47.310  13.208  22.782  0.00  0.00    -0.153 NA
ATOM      4  C   UNL d   1     -48.722  12.806  23.321  0.00  0.00     0.187 A 
ATOM      5  C   UNL d   1     -46.624  12.741  22.799  0.00  0.00     0.156 A 
ATOM      6  S   UNL d   1     -46.820  12.019  23.155  0.00  0.00    -0.024 SA
ATOM      7  N   UNL d   1     -48.914  12.084  23.675  0.00  0.00    -0.127 NA
ATOM      8  N   UNL d   1     -48.240  11.612  23.698  0.00  0.00    -0.120 NA
ENDROOT
BRANCH   4   9
ATOM      9  C   UNL d   1     -49.238  13.433  23.192  0.00  0.00     0.040 A 
ATOM     10  C   UNL d   1     -49.777  13.391  22.570  0.00  0.00     0.029 A 
ATOM     11  C   UNL d   1     -50.292  14.012  22.436  0.00  0.00     0.116 A 
ATOM     12  C   UNL d   1     -50.277  14.683  22.922  0.00  0.00     0.116 A 
ATOM     13  C   UNL d   1     -49.733  14.721  23.547  0.00  0.00     0.026 A 
ATOM     14  C   UNL d   1     -49.217  14.095  23.678  0.00  0.00     0.005 A 
BRANCH  11  15
ATOM     15  O   UNL d   1     -50.837  13.979  21.814  0.00  0.00    -0.326 OA
ATOM     16  C   UNL d   1     -50.905  13.305  21.350  0.00  0.00     0.181 C 
ENDBRANCH  11  15
BRANCH  12  17
ATOM     17  O   UNL d   1     -50.797  15.318  22.794  0.00  0.00    -0.326 OA
ATOM     18  C   UNL d   1     -50.876  15.894  23.376  0.00  0.00     0.181 C 
ENDBRANCH  12  17
ENDBRANCH   4   9
BRANCH   5  19
ATOM     19  C   UNL d   1     -45.881  12.957  22.514  0.00  0.00     0.126 A 
ATOM     20  O   UNL d   1     -45.254  12.451  22.360  0.00  0.00    -0.298 OA
ATOM     21  C   UNL d   1     -44.621  12.903  22.084  0.00  0.00     0.134 A 
ATOM     22 BR   UNL d   1     -43.880  12.612  21.863  0.00  0.00    -0.022 Br
ATOM     23  C   UNL d   1     -44.855  13.690  22.066  0.00  0.00     0.034 A 
ATOM     24  C   UNL d   1     -45.639  13.725  22.334  0.00  0.00     0.029 A 
ENDBRANCH   5  19
TORSDOF 4
ENDMDL
MODEL 4
REMARK VINA RESULT:      -6.1      8.800      9.923
REMARK  4 active torsions:
REMARK  status: ('A' for Active; 'I' for Inactive)
REMARK    1  A    between atoms: C_11  and  C_4 
REMARK    2  A    between atoms: C_9  and  C_5 
REMARK    3  A    between atoms: O_21  and  C_16 
REMARK    4  A    between atoms: O_22  and  C_17 
ROOT
ATOM      1  N   UNL d   1     -39.917  14.434  18.835  0.00  0.00    -0.185 N 
ATOM      2  C   UNL d   1     -40.477  14.133  18.302  0.00  0.00     0.219 A 
ATOM      3  N   UNL d   1     -39.263  14.677  18.404  0.00  0.00    -0.153 NA
ATOM      4  C   UNL d   1     -40.230  14.375  19.596  0.00  0.00     0.187 A 
ATOM      5  C   UNL d   1     -39.410  14.529  17.601  0.00  0.00     0.156 A 
ATOM      6  S   UNL d   1     -40.163  14.191  17.540  0.00  0.00    -0.024 SA
ATOM      7  N   UNL d   1     -40.982  14.038  19.532  0.00  0.00    -0.127 NA
ATOM      8  N   UNL d   1     -41.138  13.887  18.739  0.00  0.00    -0.120 NA
ENDROOT
BRANCH   4   9
ATOM      9  C   UNL d   1     -39.863  14.609  20.294  0.00  0.00     0.040 A 
ATOM     10  C   UNL d   1     -39.345  14.092  20.671  0.00  0.00     0.029 A 
ATOM     11  C   UNL d   1     -38.977  14.319  21.365  0.00  0.00     0.116 A 
ATOM     12  C   UNL d   1     -39.122  15.066  21.693  0.00  0.00     0.116 A 
ATOM     13  C   UNL d   1     -39.645  15.585  21.310  0.00  0.00     0.026 A 
ATOM     14  C   UNL d   1     -40.012  15.352  20.612  0.00  0.00     0.005 A 
BRANCH  11  15
ATOM     15  O   UNL d   1     -38.455  13.806  21.752  0.00  0.00    -0.326 OA
ATOM     16  C   UNL d   1     -38.132  13.160  21.359  0.00  0.00     0.181 C 
ENDBRANCH  11  15
BRANCH  12  17
ATOM     17  O   UNL d   1     -38.753  15.306  22.398  0.00  0.00    -0.326 OA
ATOM     18  C   UNL d   1     -39.089  15.914  22.839  0.00  0.00     0.181 C 
ENDBRANCH  12  17
ENDBRANCH   4   9
BRANCH   5  19
ATOM     19  C   UNL d   1     -38.898  14.690  16.975  0.00  0.00     0.126 A 
ATOM     20  O   UNL d   1     -38.782  15.418  16.615  0.00  0.00    -0.298 OA
ATOM     21  C   UNL d   1     -38.223  15.323  16.017  0.00  0.00     0.134 A 
ATOM     22 BR   UNL d   1     -37.945  15.919  15.516  0.00  0.00    -0.022 Br
ATOM     23  C   UNL d   1     -37.990  14.535  16.004  0.00  0.00     0.034 A 
ATOM     24  C   UNL d   1     -38.409  14.139  16.600  0.00  0.00     0.029 A 
ENDBRANCH   5  19
TORSDOF 4
ENDMDL
MODEL 5
REMARK VINA RESULT:      -5.9      9.044      9.871
REMARK  4 active torsions:
REMARK  status: ('A' for Active; 'I' for Inactive)
REMARK    1  A    between atoms: C_11  and  C_4 
REMARK    2  A    between atoms: C_9  and  C_5 
REMARK    3  A    between atoms: O_21  and  C_16 
REMARK    4  A    between atoms: O_22  and  C_17 
ROOT
ATOM      1  N   UNL d   1     -38.640  13.709  18.937  0.00  0.00    -0.185 N 
ATOM      2  C   UNL d   1     -38.112  13.085  19.074  0.00  0.00     0.219 A 
ATOM      3  N   UNL d   1     -38.807  14.062  19.658  0.00  0.00    -0.153 NA
ATOM      4  C   UNL d   1     -38.798  13.739  18.127  0.00  0.00     0.187 A 
ATOM      5  C   UNL d   1     -38.384  13.660  20.249  0.00  0.00     0.156 A 
ATOM      6  S   UNL d   1     -37.954  13.054  19.884  0.00  0.00    -0.024 SA
ATOM      7  N   UNL d   1     -38.367  13.133  17.766  0.00  0.00    -0.127 NA
ATOM      8  N   UNL d   1     -37.944  12.728  18.343  0.00  0.00    -0.120 NA
ENDROOT
BRANCH   4   9
ATOM      9  C   UNL d   1     -39.293  14.274  17.746  0.00  0.00     0.040 A 
ATOM     10  C   UNL d   1     -38.969  14.827  17.230  0.00  0.00     0.029 A 
ATOM     11  C   UNL d   1     -39.456  15.361  16.848  0.00  0.00     0.116 A 
ATOM     12  C   UNL d   1     -40.275  15.350  16.977  0.00  0.00     0.116 A 
ATOM     13  C   UNL d   1     -40.598  14.791  17.497  0.00  0.00     0.026 A 
ATOM     14  C   UNL d   1     -40.104  14.255  17.879  0.00  0.00     0.005 A 
BRANCH  11  15
ATOM     15  O   UNL d   1     -39.140  15.922  16.327  0.00  0.00    -0.326 OA
ATOM     16  C   UNL d   1     -38.340  15.919  16.142  0.00  0.00     0.181 C 
ENDBRANCH  11  15
BRANCH  12  17
ATOM     17  O   UNL d   1     -40.778  15.889  16.593  0.00  0.00    -0.326 OA
ATOM     18  C   UNL d   1     -41.587  15.853  16.738  0.00  0.00     0.181 C 
ENDBRANCH  12  17
ENDBRANCH   4   9
BRANCH   5  19
ATOM     19  C   UNL d   1     -38.392  13.833  21.055  0.00  0.00     0.126 A 
ATOM     20  O   UNL d   1     -38.608  13.322  21.660  0.00  0.00    -0.298 OA
ATOM     21  C   UNL d   1     -38.532  13.726  22.376  0.00  0.00     0.134 A 
ATOM     22 BR   UNL d   1     -38.694  13.415  23.125  0.00  0.00    -0.022 Br
ATOM     23  C   UNL d   1     -38.268  14.487  22.216  0.00  0.00     0.034 A 
ATOM     24  C   UNL d   1     -38.180  14.556  21.394  0.00  0.00     0.029 A 
ENDBRANCH   5  19
TORSDOF 4
ENDMDL
