MODEL 1
REMARK VINA RESULT:      13.8      0.000      0.000
REMARK  4 active torsions:
REMARK  status: ('A' for Active; 'I' for Inactive)
REMARK    1  A    between atoms: C_2  and  N_1 
REMARK    2  A    between atoms: C_4  and  C_2 
REMARK    3  A    between atoms: C_10  and  C_4 
REMARK    4  A    between atoms: N_7  and  C_6 
ROOT
ATOM      1  C   UNL d   1      43.740 -15.908  36.562  0.00  0.00     0.064 A 
ATOM      2  C   UNL d   1      44.426 -16.341  36.409  0.00  0.00     0.018 A 
ATOM      3  C   UNL d   1      43.774 -15.087  36.641  0.00  0.00     0.018 A 
ATOM      4  C   UNL d   1      45.179 -15.123  36.414  0.00  0.00     0.002 A 
ATOM      5  C   UNL d   1      44.493 -14.694  36.567  0.00  0.00     0.002 A 
ATOM      6  C   UNL d   1      45.146 -15.947  36.335  0.00  0.00     0.002 A 
ENDROOT
BRANCH   4   7
ATOM      7  C   UNL d   1      45.902 -14.728  36.340  0.00  0.00     0.025 C 
BRANCH   7   8
ATOM      8  C   UNL d   1      46.438 -14.742  36.960  0.00  0.00     0.148 C 
BRANCH   8   9
ATOM      9  N   UNL d   1      46.559 -14.058  37.406  0.00  0.00    -0.112 N 
ATOM     10  O   UNL d   1      46.647 -13.343  37.025  0.00  0.00    -0.532 OA
ATOM     11  O   UNL d   1      46.588 -14.120  38.219  0.00  0.00    -0.532 OA
ENDBRANCH   8   9
ENDBRANCH   7   8
ENDBRANCH   4   7
BRANCH   1  12
ATOM     12  N   UNL d   1      43.018 -16.313  36.635  0.00  0.00    -0.301 N 
ATOM     13  C   UNL d   1      42.323 -15.970  36.342  0.00  0.00     0.100 C 
ATOM     14  C   UNL d   1      42.985 -17.057  36.998  0.00  0.00     0.100 C 
ENDBRANCH   1  12
TORSDOF 4
ENDMDL
MODEL 2
REMARK VINA RESULT:      15.5      0.816      1.350
REMARK  4 active torsions:
REMARK  status: ('A' for Active; 'I' for Inactive)
REMARK    1  A    between atoms: C_2  and  N_1 
REMARK    2  A    between atoms: C_4  and  C_2 
REMARK    3  A    between atoms: C_10  and  C_4 
REMARK    4  A    between atoms: N_7  and  C_6 
ROOT
ATOM      1  C   UNL d   1      42.973 -15.470  36.897  0.00  0.00     0.064 A 
ATOM      2  C   UNL d   1      43.205 -14.831  37.366  0.00  0.00     0.018 A 
ATOM      3  C   UNL d   1      43.514 -15.828  36.386  0.00  0.00     0.018 A 
ATOM      4  C   UNL d   1      44.520 -14.914  36.807  0.00  0.00     0.002 A 
ATOM      5  C   UNL d   1      44.286 -15.552  36.341  0.00  0.00     0.002 A 
ATOM      6  C   UNL d   1      43.979 -14.553  37.320  0.00  0.00     0.002 A 
ENDROOT
BRANCH   4   7
ATOM      7  C   UNL d   1      45.298 -14.636  36.762  0.00  0.00     0.025 C 
BRANCH   7   8
ATOM      8  C   UNL d   1      45.896 -15.035  37.154  0.00  0.00     0.148 C 
BRANCH   8   9
ATOM      9  N   UNL d   1      46.354 -14.634  37.711  0.00  0.00    -0.112 N 
ATOM     10  O   UNL d   1      46.647 -15.040  38.354  0.00  0.00    -0.532 OA
ATOM     11  O   UNL d   1      46.499 -13.838  37.601  0.00  0.00    -0.532 OA
ENDBRANCH   8   9
ENDBRANCH   7   8
ENDBRANCH   4   7
BRANCH   1  12
ATOM     12  N   UNL d   1      42.190 -15.743  36.949  0.00  0.00    -0.301 N 
ATOM     13  C   UNL d   1      42.012 -16.523  36.732  0.00  0.00     0.100 C 
ATOM     14  C   UNL d   1      41.585 -15.244  37.214  0.00  0.00     0.100 C 
ENDBRANCH   1  12
TORSDOF 4
ENDMDL
