MODEL 1
REMARK VINA RESULT:      76.3      0.000      0.000
REMARK  5 active torsions:
REMARK  status: ('A' for Active; 'I' for Inactive)
REMARK    1  A    between atoms: S_2  and  C_10 
REMARK    2  A    between atoms: N_7  and  S_2 
REMARK    3  A    between atoms: C_9  and  N_7 
REMARK    4  A    between atoms: O_23  and  C_16 
REMARK    5  A    between atoms: O_24  and  C_19 
ROOT
ATOM      1  S   UNL d   1      61.025  48.738  50.387  0.00  0.00     0.285 S 
ATOM      2  O   UNL d   1      61.336  48.630  51.141  0.00  0.00    -0.198 OA
ATOM      3  O   UNL d   1      60.714  48.845  49.632  0.00  0.00    -0.198 OA
ENDROOT
BRANCH   1   4
ATOM      4  C   UNL d   1      61.306  47.997  50.165  0.00  0.00     0.107 A 
ATOM      5  C   UNL d   1      60.969  47.318  50.480  0.00  0.00     0.032 A 
ATOM      6  C   UNL d   1      61.251  46.573  50.258  0.00  0.00     0.085 A 
ATOM      7  N   UNL d   1      61.031  45.806  50.474  0.00  0.00    -0.256 N 
ATOM      8  C   UNL d   1      61.869  46.511  49.720  0.00  0.00     0.085 A 
ATOM      9  C   UNL d   1      61.504  45.282  50.078  0.00  0.00     0.339 A 
ATOM     10  C   UNL d   1      60.430  45.600  51.004  0.00  0.00     0.104 C 
ATOM     11  N   UNL d   1      62.027  45.709  49.608  0.00  0.00    -0.256 N 
ATOM     12  O   UNL d   1      61.464  44.451  50.138  0.00  0.00    -0.245 OA
ATOM     13  C   UNL d   1      62.609  45.386  49.110  0.00  0.00     0.104 C 
ATOM     14  C   UNL d   1      62.209  47.192  49.402  0.00  0.00     0.020 A 
ATOM     15  C   UNL d   1      61.927  47.937  49.625  0.00  0.00     0.015 A 
ENDBRANCH   1   4
BRANCH   1  16
ATOM     16  N   UNL d   1      60.744  49.479  50.608  0.00  0.00    -0.156 NA
BRANCH  16  17
ATOM     17  C   UNL d   1      59.994  49.555  50.934  0.00  0.00     0.118 A 
ATOM     18  C   UNL d   1      59.334  49.592  50.444  0.00  0.00     0.046 A 
ATOM     19  C   UNL d   1      58.583  49.668  50.770  0.00  0.00     0.096 A 
ATOM     20  C   UNL d   1      58.487  49.708  51.597  0.00  0.00     0.026 A 
ATOM     21  C   UNL d   1      59.147  49.671  52.086  0.00  0.00     0.028 A 
ATOM     22  C   UNL d   1      59.903  49.594  51.753  0.00  0.00     0.113 A 
BRANCH  19  23
ATOM     23  O   UNL d   1      57.927  49.704  50.275  0.00  0.00    -0.328 OA
ATOM     24  C   UNL d   1      57.240  49.295  50.468  0.00  0.00     0.181 C 
ENDBRANCH  19  23
BRANCH  22  25
ATOM     25  O   UNL d   1      60.564  49.557  52.242  0.00  0.00    -0.327 OA
ATOM     26  C   UNL d   1      60.488  49.706  53.046  0.00  0.00     0.181 C 
ENDBRANCH  22  25
ENDBRANCH  16  17
ENDBRANCH   1  16
TORSDOF 5
ENDMDL
