MODEL 1
REMARK VINA RESULT:      -5.4      0.000      0.000
REMARK  2 active torsions:
REMARK  status: ('A' for Active; 'I' for Inactive)
REMARK    1  A    between atoms: C_4  and  C_1 
REMARK    2  A    between atoms: N_2  and  C_9 
REMARK       I    between atoms: N_7  and  C_4 
ROOT
ATOM      1  C   UNL d   1      57.269   0.089  31.141  0.00  0.00     0.086 A 
ATOM      2  S   UNL d   1      57.102  -0.627  31.450  0.00  0.00    -0.082 SA
ATOM      3  C   UNL d   1      56.908   0.682  31.565  0.00  0.00     0.012 A 
ATOM      4  C   UNL d   1      56.485   0.321  32.179  0.00  0.00     0.008 A 
ATOM      5  C   UNL d   1      56.606  -0.492  32.108  0.00  0.00     0.030 A 
ATOM      6  C   UNL d   1      55.659   0.098  33.325  0.00  0.00     0.127 A 
ATOM      7  C   UNL d   1      56.018   0.607  32.780  0.00  0.00     0.024 A 
ATOM      8  C   UNL d   1      56.259  -1.019  32.638  0.00  0.00     0.008 A 
ATOM      9  C   UNL d   1      55.779  -0.715  33.254  0.00  0.00     0.024 A 
ENDROOT
BRANCH   1  10
ATOM     10  C   UNL d   1      57.760   0.203  30.463  0.00  0.00     0.271 C 
ATOM     11  N   UNL d   1      58.554   0.361  30.546  0.00  0.00    -0.272 N 
ATOM     12  C   UNL d   1      58.884   0.410  31.300  0.00  0.00     0.083 A 
ATOM     13  C   UNL d   1      59.038   0.475  29.876  0.00  0.00     0.083 A 
ATOM     14  C   UNL d   1      59.686   0.569  31.399  0.00  0.00     0.019 A 
ATOM     15  C   UNL d   1      60.168   0.682  30.738  0.00  0.00     0.003 A 
ATOM     16  C   UNL d   1      59.843   0.634  29.977  0.00  0.00     0.019 A 
ATOM     17  O   UNL d   1      57.415   0.151  29.714  0.00  0.00    -0.266 OA
ENDBRANCH   1  10
BRANCH   6  18
ATOM     18  N   UNL d   1      55.178   0.401  33.942  0.00  0.00    -0.114 N 
ATOM     19  O   UNL d   1      54.388   0.628  33.778  0.00  0.00    -0.532 OA
ATOM     20  O   UNL d   1      55.479   0.475  34.701  0.00  0.00    -0.532 OA
ENDBRANCH   6  18
TORSDOF 2
ENDMDL
MODEL 2
REMARK VINA RESULT:      -5.0      1.105      1.423
REMARK  2 active torsions:
REMARK  status: ('A' for Active; 'I' for Inactive)
REMARK    1  A    between atoms: C_4  and  C_1 
REMARK    2  A    between atoms: N_2  and  C_9 
REMARK       I    between atoms: N_7  and  C_4 
ROOT
ATOM      1  C   UNL d   1      57.768   0.081  30.421  0.00  0.00     0.086 A 
ATOM      2  S   UNL d   1      57.494   0.681  30.868  0.00  0.00    -0.082 SA
ATOM      3  C   UNL d   1      57.527  -0.638  30.719  0.00  0.00     0.012 A 
ATOM      4  C   UNL d   1      57.074  -0.483  31.394  0.00  0.00     0.008 A 
ATOM      5  C   UNL d   1      57.053   0.337  31.486  0.00  0.00     0.030 A 
ATOM      6  C   UNL d   1      56.266  -0.636  32.565  0.00  0.00     0.127 A 
ATOM      7  C   UNL d   1      56.685  -0.958  31.927  0.00  0.00     0.024 A 
ATOM      8  C   UNL d   1      56.643   0.681  32.113  0.00  0.00     0.008 A 
ATOM      9  C   UNL d   1      56.245   0.184  32.658  0.00  0.00     0.024 A 
ENDROOT
BRANCH   1  10
ATOM     10  C   UNL d   1      58.244   0.188  29.731  0.00  0.00     0.271 C 
ATOM     11  N   UNL d   1      59.038   0.351  29.797  0.00  0.00    -0.272 N 
ATOM     12  C   UNL d   1      59.383   0.412  30.543  0.00  0.00     0.083 A 
ATOM     13  C   UNL d   1      59.509   0.456  29.115  0.00  0.00     0.083 A 
ATOM     14  C   UNL d   1      60.186   0.577  30.624  0.00  0.00     0.019 A 
ATOM     15  C   UNL d   1      60.654   0.682  29.952  0.00  0.00     0.003 A 
ATOM     16  C   UNL d   1      60.315   0.622  29.198  0.00  0.00     0.019 A 
ATOM     17  O   UNL d   1      57.885   0.123  28.990  0.00  0.00    -0.266 OA
ENDBRANCH   1  10
BRANCH   6  18
ATOM     18  N   UNL d   1      55.867  -1.132  33.111  0.00  0.00    -0.114 N 
ATOM     19  O   UNL d   1      55.459  -0.791  33.758  0.00  0.00    -0.532 OA
ATOM     20  O   UNL d   1      55.878  -1.945  33.012  0.00  0.00    -0.532 OA
ENDBRANCH   6  18
TORSDOF 2
ENDMDL
MODEL 3
REMARK VINA RESULT:      -3.3      1.330      4.412
REMARK  2 active torsions:
REMARK  status: ('A' for Active; 'I' for Inactive)
REMARK    1  A    between atoms: C_4  and  C_1 
REMARK    2  A    between atoms: N_2  and  C_9 
REMARK       I    between atoms: N_7  and  C_4 
ROOT
ATOM      1  C   UNL d   1      56.776   0.129  33.166  0.00  0.00     0.086 A 
ATOM      2  S   UNL d   1      57.300   0.653  32.871  0.00  0.00    -0.082 SA
ATOM      3  C   UNL d   1      56.643  -0.478  32.641  0.00  0.00     0.012 A 
ATOM      4  C   UNL d   1      57.109  -0.330  31.974  0.00  0.00     0.008 A 
ATOM      5  C   UNL d   1      57.517   0.372  32.116  0.00  0.00     0.030 A 
ATOM      6  C   UNL d   1      57.737  -0.434  30.692  0.00  0.00     0.127 A 
ATOM      7  C   UNL d   1      57.221  -0.724  31.271  0.00  0.00     0.024 A 
ATOM      8  C   UNL d   1      58.037   0.681  31.556  0.00  0.00     0.008 A 
ATOM      9  C   UNL d   1      58.145   0.268  30.835  0.00  0.00     0.024 A 
ENDROOT
BRANCH   1  10
ATOM     10  C   UNL d   1      56.414   0.205  33.926  0.00  0.00     0.271 C 
ATOM     11  N   UNL d   1      55.618   0.361  33.993  0.00  0.00    -0.272 N 
ATOM     12  C   UNL d   1      55.159   0.446  33.314  0.00  0.00     0.083 A 
ATOM     13  C   UNL d   1      55.260   0.436  34.744  0.00  0.00     0.083 A 
ATOM     14  C   UNL d   1      54.353   0.603  33.367  0.00  0.00     0.019 A 
ATOM     15  C   UNL d   1      53.996   0.678  34.107  0.00  0.00     0.003 A 
ATOM     16  C   UNL d   1      54.451   0.594  34.795  0.00  0.00     0.019 A 
ATOM     17  O   UNL d   1      56.886   0.118  34.598  0.00  0.00    -0.266 OA
ENDBRANCH   1  10
BRANCH   6  18
ATOM     18  N   UNL d   1      57.846  -0.846  29.969  0.00  0.00    -0.114 N 
ATOM     19  O   UNL d   1      57.870  -0.419  29.249  0.00  0.00    -0.532 OA
ATOM     20  O   UNL d   1      57.930  -1.661  29.968  0.00  0.00    -0.532 OA
ENDBRANCH   6  18
TORSDOF 2
ENDMDL
