MODEL 1
REMARK VINA RESULT:      59.0      0.000      0.000
REMARK  5 active torsions:
REMARK  status: ('A' for Active; 'I' for Inactive)
REMARK    1  A    between atoms: S_2  and  C_12 
REMARK    2  A    between atoms: N_7  and  S_2 
REMARK    3  A    between atoms: C_5  and  N_7 
REMARK    4  A    between atoms: O_26  and  C_22 
REMARK    5  A    between atoms: C_27  and  O_26 
ROOT
ATOM      1  S   UNL d   1     -55.187-102.196 -42.082  0.00  0.00     0.287 S 
ATOM      2  O   UNL d   1     -54.772-102.634 -42.653  0.00  0.00    -0.198 OA
ATOM      3  O   UNL d   1     -55.605-101.750 -41.507  0.00  0.00    -0.198 OA
ENDROOT
BRANCH   1   4
ATOM      4  C   UNL d   1     -55.087-101.504 -42.542  0.00  0.00     0.107 A 
ATOM      5  C   UNL d   1     -55.055-101.555 -43.367  0.00  0.00     0.032 A 
ATOM      6  C   UNL d   1     -54.956-100.875 -43.818  0.00  0.00     0.085 A 
ATOM      7  N   UNL d   1     -54.905-100.751 -44.633  0.00  0.00    -0.256 N 
ATOM      8  C   UNL d   1     -54.889-100.136 -43.448  0.00  0.00     0.085 A 
ATOM      9  C   UNL d   1     -54.806 -99.939 -44.759  0.00  0.00     0.339 A 
ATOM     10  C   UNL d   1     -54.943-101.325 -45.217  0.00  0.00     0.104 C 
ATOM     11  N   UNL d   1     -54.797 -99.564 -44.039  0.00  0.00    -0.256 N 
ATOM     12  O   UNL d   1     -54.730 -99.562 -45.493  0.00  0.00    -0.245 OA
ATOM     13  C   UNL d   1     -54.711 -98.757 -43.914  0.00  0.00     0.104 C 
ATOM     14  C   UNL d   1     -54.923-100.093 -42.622  0.00  0.00     0.020 A 
ATOM     15  C   UNL d   1     -55.021-100.773 -42.171  0.00  0.00     0.015 A 
ENDBRANCH   1   4
BRANCH   1  16
ATOM     16  N   UNL d   1     -55.290-102.880 -41.619  0.00  0.00    -0.132 NA
BRANCH  16  17
ATOM     17  C   UNL d   1     -55.318-102.827 -40.797  0.00  0.00     0.206 A 
ATOM     18  N   UNL d   1     -56.041-102.832 -40.405  0.00  0.00    -0.220 NA
ATOM     19  C   UNL d   1     -55.890-102.772 -39.592  0.00  0.00     0.090 A 
ATOM     20  C   UNL d   1     -56.383-102.749 -38.932  0.00  0.00     0.022 A 
ATOM     21  C   UNL d   1     -55.069-102.730 -39.495  0.00  0.00     0.052 A 
ATOM     22  C   UNL d   1     -56.064-102.686 -38.184  0.00  0.00     0.026 A 
ATOM     23  C   UNL d   1     -55.248-102.645 -38.079  0.00  0.00     0.101 A 
ATOM     24  C   UNL d   1     -54.750-102.667 -38.739  0.00  0.00     0.033 A 
ATOM     25  S   UNL d   1     -54.711-102.763 -40.221  0.00  0.00    -0.046 SA
BRANCH  23  26
ATOM     26  O   UNL d   1     -54.920-102.581 -37.323  0.00  0.00    -0.305 OA
BRANCH  26  27
ATOM     27  C   UNL d   1     -55.413-102.671 -36.660  0.00  0.00     0.123 C 
ATOM     28  C   UNL d   1     -55.088-102.682 -35.902  0.00  0.00     0.029 C 
ENDBRANCH  26  27
ENDBRANCH  23  26
ENDBRANCH  16  17
ENDBRANCH   1  16
TORSDOF 5
ENDMDL
