MODEL 1
REMARK VINA RESULT:      23.0      0.000      0.000
REMARK  3 active torsions:
REMARK  status: ('A' for Active; 'I' for Inactive)
REMARK    1  A    between atoms: S_7  and  C_4 
REMARK    2  A    between atoms: C_9  and  S_7 
REMARK    3  A    between atoms: C_10  and  C_9 
ROOT
ATOM      1  S   UNL d   1     -56.315 -98.759 -44.388  0.00  0.00    -0.046 SA
ENDROOT
BRANCH   1   2
ATOM      2  C   UNL d   1     -57.126 -98.758 -44.541  0.00  0.00     0.217 A 
ATOM      3  N   UNL d   1     -57.666 -98.759 -43.914  0.00  0.00    -0.180 NA
ATOM      4  C   UNL d   1     -58.476 -98.758 -44.067  0.00  0.00     0.300 A 
ATOM      5  C   UNL d   1     -58.747 -98.756 -44.845  0.00  0.00     0.161 A 
ATOM      6  O   UNL d   1     -59.016 -98.759 -43.440  0.00  0.00    -0.263 OA
ATOM      7  C   UNL d   1     -59.558 -98.755 -44.998  0.00  0.00     0.028 C 
ATOM      8  N   UNL d   1     -58.208 -98.755 -45.472  0.00  0.00    -0.141 NA
ATOM      9  N   UNL d   1     -57.398 -98.756 -45.320  0.00  0.00    -0.121 NA
ENDBRANCH   1   2
BRANCH   1  10
ATOM     10  C   UNL d   1     -55.805 -99.201 -44.865  0.00  0.00     0.038 C 
BRANCH  10  11
ATOM     11  C   UNL d   1     -55.533 -99.937 -44.608  0.00  0.00     0.007 A 
ATOM     12  C   UNL d   1     -55.741-100.622 -45.020  0.00  0.00     0.001 A 
ATOM     13  C   UNL d   1     -55.469-101.358 -44.763  0.00  0.00     0.000 A 
ATOM     14  C   UNL d   1     -54.988-101.407 -44.094  0.00  0.00     0.000 A 
ATOM     15  C   UNL d   1     -54.780-100.722 -43.682  0.00  0.00     0.000 A 
ATOM     16  C   UNL d   1     -54.716-102.143 -43.838  0.00  0.00     0.000 C 
ATOM     17  C   UNL d   1     -55.052 -99.986 -43.939  0.00  0.00     0.001 A 
ENDBRANCH  10  11
ENDBRANCH   1  10
TORSDOF 3
ENDMDL
MODEL 2
REMARK VINA RESULT:      23.7      1.841      3.864
REMARK  3 active torsions:
REMARK  status: ('A' for Active; 'I' for Inactive)
REMARK    1  A    between atoms: S_7  and  C_4 
REMARK    2  A    between atoms: C_9  and  S_7 
REMARK    3  A    between atoms: C_10  and  C_9 
ROOT
ATOM      1  S   UNL d   1     -55.773 -98.944 -44.329  0.00  0.00    -0.046 SA
ENDROOT
BRANCH   1   2
ATOM      2  C   UNL d   1     -55.509 -99.723 -44.271  0.00  0.00     0.217 A 
ATOM      3  N   UNL d   1     -55.297-100.141 -44.953  0.00  0.00    -0.180 NA
ATOM      4  C   UNL d   1     -55.034-100.920 -44.895  0.00  0.00     0.300 A 
ATOM      5  C   UNL d   1     -54.981-101.282 -44.156  0.00  0.00     0.161 A 
ATOM      6  O   UNL d   1     -54.822-101.337 -45.576  0.00  0.00    -0.263 OA
ATOM      7  C   UNL d   1     -54.718-102.062 -44.097  0.00  0.00     0.028 C 
ATOM      8  N   UNL d   1     -55.193-100.865 -43.474  0.00  0.00    -0.141 NA
ATOM      9  N   UNL d   1     -55.457-100.086 -43.532  0.00  0.00    -0.121 NA
ENDBRANCH   1   2
BRANCH   1  10
ATOM     10  C   UNL d   1     -56.403 -98.756 -44.830  0.00  0.00     0.038 C 
BRANCH  10  11
ATOM     11  C   UNL d   1     -57.176 -98.759 -44.541  0.00  0.00     0.007 A 
ATOM     12  C   UNL d   1     -57.314 -98.756 -43.726  0.00  0.00     0.001 A 
ATOM     13  C   UNL d   1     -58.088 -98.758 -43.438  0.00  0.00     0.000 A 
ATOM     14  C   UNL d   1     -58.722 -98.764 -43.965  0.00  0.00     0.000 A 
ATOM     15  C   UNL d   1     -58.584 -98.768 -44.779  0.00  0.00     0.000 A 
ATOM     16  C   UNL d   1     -59.496 -98.767 -43.676  0.00  0.00     0.000 C 
ATOM     17  C   UNL d   1     -57.811 -98.765 -45.068  0.00  0.00     0.001 A 
ENDBRANCH  10  11
ENDBRANCH   1  10
TORSDOF 3
ENDMDL
