MODEL 1
REMARK VINA RESULT:      66.2      0.000      0.000
REMARK  4 active torsions:
REMARK  status: ('A' for Active; 'I' for Inactive)
REMARK    1  A    between atoms: N_11  and  C_4 
REMARK    2  A    between atoms: C_22  and  N_15 
REMARK    3  A    between atoms: O_29  and  C_17 
REMARK    4  A    between atoms: C_21  and  C_22 
ROOT
ATOM      1  N   UNL d   1     -51.268  25.593  33.355  0.00  0.00    -0.195 N 
ATOM      2  C   UNL d   1     -51.277  24.787  33.340  0.00  0.00     0.168 A 
ATOM      3  C   UNL d   1     -51.964  24.389  33.333  0.00  0.00     0.073 A 
ATOM      4  C   UNL d   1     -50.572  25.973  33.362  0.00  0.00     0.153 A 
ATOM      5  N   UNL d   1     -52.635  25.607  33.355  0.00  0.00    -0.143 NA
ATOM      6  C   UNL d   1     -52.644  24.801  33.340  0.00  0.00     0.185 A 
ATOM      7  N   UNL d   1     -50.589  24.384  33.333  0.00  0.00    -0.227 NA
ATOM      8  C   UNL d   1     -51.973  23.592  33.318  0.00  0.00     0.007 A 
ATOM      9  N   UNL d   1     -53.348  24.413  33.333  0.00  0.00    -0.225 NA
ATOM     10  C   UNL d   1     -49.889  25.578  33.355  0.00  0.00     0.057 A 
ATOM     11  C   UNL d   1     -52.661  23.195  33.310  0.00  0.00     0.019 A 
ATOM     12  C   UNL d   1     -49.898  24.772  33.340  0.00  0.00     0.086 A 
ATOM     13  C   UNL d   1     -53.356  23.607  33.318  0.00  0.00     0.083 A 
ATOM     14  C   UNL d   1     -51.282  23.188  33.310  0.00  0.00     0.000 C 
ATOM     15  C   UNL d   1     -49.180  24.356  33.332  0.00  0.00     0.021 C 
ATOM     16  C   UNL d   1     -54.045  23.217  33.311  0.00  0.00     0.021 C 
ENDROOT
BRANCH   4  17
ATOM     17  N   UNL d   1     -50.572  26.804  33.378  0.00  0.00    -0.286 N 
ATOM     18  C   UNL d   1     -51.092  27.450  33.310  0.00  0.00     0.101 A 
ATOM     19  C   UNL d   1     -50.813  28.224  33.367  0.00  0.00     0.100 A 
ATOM     20  N   UNL d   1     -50.001  28.353  33.495  0.00  0.00    -0.300 N 
ATOM     21  C   UNL d   1     -49.482  27.724  33.563  0.00  0.00     0.100 A 
ATOM     22  C   UNL d   1     -49.762  26.942  33.506  0.00  0.00     0.101 A 
BRANCH  20  23
ATOM     23  C   UNL d   1     -49.722  29.118  33.553  0.00  0.00     0.080 C 
BRANCH  23  24
ATOM     24  C   UNL d   1     -49.088  29.307  34.067  0.00  0.00     0.020 A 
ATOM     25  C   UNL d   1     -48.808  28.759  34.617  0.00  0.00     0.033 A 
ATOM     26  C   UNL d   1     -48.176  28.949  35.129  0.00  0.00     0.162 A 
ATOM     27  F   UNL d   1     -47.899  28.398  35.679  0.00  0.00    -0.202 F 
ATOM     28  C   UNL d   1     -47.827  29.705  35.078  0.00  0.00     0.121 A 
ATOM     29  C   UNL d   1     -48.100  30.263  34.529  0.00  0.00     0.027 A 
ATOM     30  C   UNL d   1     -48.729  30.071  34.021  0.00  0.00     0.004 A 
BRANCH  28  31
ATOM     31  O   UNL d   1     -47.200  29.897  35.584  0.00  0.00    -0.326 OA
ATOM     32  C   UNL d   1     -47.279  30.500  36.141  0.00  0.00     0.181 C 
ENDBRANCH  28  31
ENDBRANCH  23  24
ENDBRANCH  20  23
ENDBRANCH   4  17
TORSDOF 4
ENDMDL
