MODEL 1
REMARK VINA RESULT:      -5.9      0.000      0.000
REMARK  7 active torsions:
REMARK  status: ('A' for Active; 'I' for Inactive)
REMARK    1  A    between atoms: C_2  and  S_1 
REMARK    2  A    between atoms: N_3  and  S_1 
REMARK    3  A    between atoms: C_5  and  C_7 
REMARK       I    between atoms: N_9  and  C_5 
REMARK    4  A    between atoms: C_8  and  N_6 
REMARK    5  A    between atoms: C_21  and  N_9 
REMARK    6  A    between atoms: O_28  and  C_23 
REMARK    7  A    between atoms: C_31  and  O_28 
ROOT
ATOM      1  C   UNL d   1     -44.755  12.704  22.228  0.00  0.00     0.132 A 
ATOM      2  C   UNL d   1     -44.198  13.094  21.770  0.00  0.00     0.020 A 
ATOM      3  C   UNL d   1     -43.450  12.761  21.668  0.00  0.00     0.059 A 
ATOM      4  C   UNL d   1     -44.569  11.978  22.587  0.00  0.00     0.152 A 
ATOM      5  C   UNL d   1     -43.264  12.035  22.027  0.00  0.00     0.007 A 
ATOM      6  C   UNL d   1     -43.827  11.645  22.487  0.00  0.00     0.030 A 
ATOM      7  F   UNL d   1     -45.131  11.587  23.047  0.00  0.00    -0.203 F 
ENDROOT
BRANCH   1   8
ATOM      8  S   UNL d   1     -45.503  13.042  22.328  0.00  0.00     0.274 S 
ATOM      9  O   UNL d   1     -45.690  12.877  21.541  0.00  0.00    -0.200 OA
ATOM     10  O   UNL d   1     -45.318  13.207  23.114  0.00  0.00    -0.200 OA
BRANCH   8  11
ATOM     11  N   UNL d   1     -46.249  13.380  22.432  0.00  0.00    -0.226 N 
ATOM     12  C   UNL d   1     -46.916  13.000  22.141  0.00  0.00     0.111 A 
ATOM     13  C   UNL d   1     -47.660  13.342  22.249  0.00  0.00     0.101 A 
ATOM     14  N   UNL d   1     -47.731  14.062  22.646  0.00  0.00    -0.286 N 
ATOM     15  C   UNL d   1     -47.059  14.431  22.931  0.00  0.00     0.101 A 
ATOM     16  C   UNL d   1     -46.320  14.100  22.830  0.00  0.00     0.111 A 
BRANCH  14  17
ATOM     17  C   UNL d   1     -48.474  14.398  22.749  0.00  0.00     0.148 A 
ATOM     18  N   UNL d   1     -49.055  13.995  23.167  0.00  0.00    -0.227 NA
ATOM     19  C   UNL d   1     -49.801  14.334  23.270  0.00  0.00     0.101 A 
ATOM     20  C   UNL d   1     -49.957  15.079  22.949  0.00  0.00     0.021 A 
ATOM     21  C   UNL d   1     -49.372  15.485  22.528  0.00  0.00     0.005 A 
ATOM     22  C   UNL d   1     -48.634  15.142  22.430  0.00  0.00     0.037 A 
ENDBRANCH  14  17
ENDBRANCH   8  11
ENDBRANCH   1   8
BRANCH   3  23
ATOM     23  C   UNL d   1     -42.878  13.142  21.209  0.00  0.00     0.279 C 
ATOM     24  N   UNL d   1     -42.358  13.674  21.573  0.00  0.00    -0.208 NA
ATOM     25  O   UNL d   1     -42.822  13.001  20.409  0.00  0.00    -0.265 OA
BRANCH  24  26
ATOM     26  C   UNL d   1     -41.784  14.059  21.121  0.00  0.00     0.085 A 
ATOM     27  C   UNL d   1     -41.113  13.655  20.870  0.00  0.00     0.021 A 
ATOM     28  C   UNL d   1     -40.541  14.040  20.419  0.00  0.00     0.026 A 
ATOM     29  C   UNL d   1     -40.634  14.846  20.211  0.00  0.00     0.100 A 
ATOM     30  C   UNL d   1     -41.315  15.248  20.469  0.00  0.00     0.026 A 
ATOM     31  C   UNL d   1     -41.886  14.866  20.918  0.00  0.00     0.021 A 
BRANCH  29  32
ATOM     32  O   UNL d   1     -40.065  15.225  19.764  0.00  0.00    -0.305 OA
BRANCH  32  33
ATOM     33  C   UNL d   1     -40.172  15.328  18.953  0.00  0.00     0.123 C 
ATOM     34  C   UNL d   1     -39.596  15.720  18.506  0.00  0.00     0.029 C 
ENDBRANCH  32  33
ENDBRANCH  29  32
ENDBRANCH  24  26
ENDBRANCH   3  23
TORSDOF 7
ENDMDL
MODEL 2
REMARK VINA RESULT:      -4.0      1.358      6.617
REMARK  7 active torsions:
REMARK  status: ('A' for Active; 'I' for Inactive)
REMARK    1  A    between atoms: C_2  and  S_1 
REMARK    2  A    between atoms: N_3  and  S_1 
REMARK    3  A    between atoms: C_5  and  C_7 
REMARK       I    between atoms: N_9  and  C_5 
REMARK    4  A    between atoms: C_8  and  N_6 
REMARK    5  A    between atoms: C_21  and  N_9 
REMARK    6  A    between atoms: O_28  and  C_23 
REMARK    7  A    between atoms: C_31  and  O_28 
ROOT
ATOM      1  C   UNL d   1     -43.376  12.837  21.673  0.00  0.00     0.132 A 
ATOM      2  C   UNL d   1     -44.129  13.157  21.645  0.00  0.00     0.020 A 
ATOM      3  C   UNL d   1     -44.746  12.781  22.044  0.00  0.00     0.059 A 
ATOM      4  C   UNL d   1     -43.231  12.139  22.100  0.00  0.00     0.152 A 
ATOM      5  C   UNL d   1     -44.602  12.083  22.471  0.00  0.00     0.007 A 
ATOM      6  C   UNL d   1     -43.842  11.763  22.497  0.00  0.00     0.030 A 
ATOM      7  F   UNL d   1     -42.472  11.819  22.126  0.00  0.00    -0.203 F 
ENDROOT
BRANCH   1   8
ATOM      8  S   UNL d   1     -42.761  13.218  21.271  0.00  0.00     0.274 S 
ATOM      9  O   UNL d   1     -42.792  12.651  20.673  0.00  0.00    -0.200 OA
ATOM     10  O   UNL d   1     -42.729  13.786  21.868  0.00  0.00    -0.200 OA
BRANCH   8  11
ATOM     11  N   UNL d   1     -42.147  13.602  20.874  0.00  0.00    -0.226 N 
ATOM     12  C   UNL d   1     -42.109  13.574  20.055  0.00  0.00     0.111 A 
ATOM     13  C   UNL d   1     -41.494  13.960  19.662  0.00  0.00     0.101 A 
ATOM     14  N   UNL d   1     -40.921  14.370  20.092  0.00  0.00    -0.286 N 
ATOM     15  C   UNL d   1     -40.970  14.390  20.907  0.00  0.00     0.101 A 
ATOM     16  C   UNL d   1     -41.574  14.012  21.304  0.00  0.00     0.111 A 
BRANCH  14  17
ATOM     17  C   UNL d   1     -40.311  14.752  19.695  0.00  0.00     0.148 A 
ATOM     18  N   UNL d   1     -39.605  14.360  19.547  0.00  0.00    -0.227 NA
ATOM     19  C   UNL d   1     -38.993  14.745  19.148  0.00  0.00     0.101 A 
ATOM     20  C   UNL d   1     -39.097  15.527  18.900  0.00  0.00     0.021 A 
ATOM     21  C   UNL d   1     -39.809  15.921  19.049  0.00  0.00     0.005 A 
ATOM     22  C   UNL d   1     -40.411  15.532  19.445  0.00  0.00     0.037 A 
ENDBRANCH  14  17
ENDBRANCH   8  11
ENDBRANCH   1   8
BRANCH   3  23
ATOM     23  C   UNL d   1     -45.511  13.092  22.025  0.00  0.00     0.279 C 
ATOM     24  N   UNL d   1     -45.842  13.394  22.722  0.00  0.00    -0.208 NA
ATOM     25  O   UNL d   1     -45.941  13.102  21.333  0.00  0.00    -0.265 OA
BRANCH  24  26
ATOM     26  C   UNL d   1     -46.606  13.706  22.711  0.00  0.00     0.085 A 
ATOM     27  C   UNL d   1     -47.259  13.209  22.777  0.00  0.00     0.021 A 
ATOM     28  C   UNL d   1     -48.020  13.522  22.767  0.00  0.00     0.026 A 
ATOM     29  C   UNL d   1     -48.142  14.347  22.688  0.00  0.00     0.100 A 
ATOM     30  C   UNL d   1     -47.478  14.842  22.621  0.00  0.00     0.026 A 
ATOM     31  C   UNL d   1     -46.717  14.533  22.632  0.00  0.00     0.021 A 
BRANCH  29  32
ATOM     32  O   UNL d   1     -48.899  14.653  22.677  0.00  0.00    -0.305 OA
BRANCH  32  33
ATOM     33  C   UNL d   1     -49.126  15.222  23.229  0.00  0.00     0.123 C 
ATOM     34  C   UNL d   1     -49.910  15.487  23.252  0.00  0.00     0.029 C 
ENDBRANCH  32  33
ENDBRANCH  29  32
ENDBRANCH  24  26
ENDBRANCH   3  23
TORSDOF 7
ENDMDL
