MODEL 1
REMARK VINA RESULT:      64.5      0.000      0.000
REMARK  3 active torsions:
REMARK  status: ('A' for Active; 'I' for Inactive)
REMARK    1  A    between atoms: N_2  and  C_1 
REMARK    2  A    between atoms: C_4  and  C_1 
REMARK       I    between atoms: C_3  and  N_2 
REMARK       I    between atoms: N_5  and  C_3 
REMARK       I    between atoms: C_6  and  N_5 
REMARK    3  A    between atoms: C_11  and  C_6 
ROOT
ATOM      1  N   UNL d   1      60.642  48.728  50.860  0.00  0.00    -0.159 NA
ATOM      2  C   UNL d   1      61.009  48.967  50.148  0.00  0.00     0.371 C 
ATOM      3  N   UNL d   1      61.496  48.441  49.735  0.00  0.00    -0.152 NA
ATOM      4  C   UNL d   1      61.622  47.670  50.029  0.00  0.00     0.283 C 
ATOM      5  O   UNL d   1      60.875  49.708  49.884  0.00  0.00    -0.243 OA
ATOM      6  O   UNL d   1      62.100  47.153  49.624  0.00  0.00    -0.265 OA
ENDROOT
BRANCH   1   7
ATOM      7  C   UNL d   1      60.155  49.251  51.274  0.00  0.00     0.386 A 
ATOM      8  O   UNL d   1      59.975  48.890  50.547  0.00  0.00    -0.281 OA
ATOM      9  C   UNL d   1      59.230  49.145  50.315  0.00  0.00     0.147 A 
ATOM     10  C   UNL d   1      58.950  49.654  50.883  0.00  0.00     0.147 A 
ATOM     11  O   UNL d   1      59.543  49.707  51.474  0.00  0.00    -0.281 OA
BRANCH   7  12
ATOM     12  C   UNL d   1      60.555  49.472  51.966  0.00  0.00     0.470 C 
ATOM     13  F   UNL d   1      59.899  49.236  52.418  0.00  0.00    -0.164 F 
ATOM     14  F   UNL d   1      61.206  49.706  51.499  0.00  0.00    -0.164 F 
ATOM     15  F   UNL d   1      60.968  49.699  52.661  0.00  0.00    -0.164 F 
ENDBRANCH   7  12
ENDBRANCH   1   7
BRANCH   4  16
ATOM     16  C   UNL d   1      61.268  47.425  50.726  0.00  0.00     0.058 A 
ATOM     17  C   UNL d   1      61.617  47.598  51.452  0.00  0.00     0.005 A 
ATOM     18  C   UNL d   1      61.269  47.356  52.158  0.00  0.00     0.000 A 
ATOM     19  C   UNL d   1      60.556  46.933  52.125  0.00  0.00     0.000 A 
ATOM     20  C   UNL d   1      60.204  46.758  51.401  0.00  0.00     0.000 A 
ATOM     21  C   UNL d   1      60.557  47.002  50.711  0.00  0.00     0.005 A 
ENDBRANCH   4  16
TORSDOF 3
ENDMDL
MODEL 2
REMARK VINA RESULT:      67.2      9.879     10.718
REMARK  3 active torsions:
REMARK  status: ('A' for Active; 'I' for Inactive)
REMARK    1  A    between atoms: N_2  and  C_1 
REMARK    2  A    between atoms: C_4  and  C_1 
REMARK       I    between atoms: C_3  and  N_2 
REMARK       I    between atoms: N_5  and  C_3 
REMARK       I    between atoms: C_6  and  N_5 
REMARK    3  A    between atoms: C_11  and  C_6 
ROOT
ATOM      1  N   UNL d   1      57.812  39.493  55.180  0.00  0.00    -0.159 NA
ATOM      2  C   UNL d   1      57.929  39.783  55.954  0.00  0.00     0.371 C 
ATOM      3  N   UNL d   1      57.336  40.221  56.328  0.00  0.00    -0.152 NA
ATOM      4  C   UNL d   1      56.617  40.374  55.932  0.00  0.00     0.283 C 
ATOM      5  O   UNL d   1      58.624  39.627  56.315  0.00  0.00    -0.243 OA
ATOM      6  O   UNL d   1      56.033  40.804  56.298  0.00  0.00    -0.265 OA
ENDROOT
BRANCH   1   7
ATOM      7  C   UNL d   1      58.403  39.055  54.804  0.00  0.00     0.386 A 
ATOM      8  O   UNL d   1      58.458  39.853  55.032  0.00  0.00    -0.281 OA
ATOM      9  C   UNL d   1      59.201  40.127  54.818  0.00  0.00     0.147 A 
ATOM     10  C   UNL d   1      59.604  39.516  54.465  0.00  0.00     0.147 A 
ATOM     11  O   UNL d   1      59.088  38.855  54.466  0.00  0.00    -0.281 OA
BRANCH   7  12
ATOM     12  C   UNL d   1      58.111  38.289  54.683  0.00  0.00     0.470 C 
ATOM     13  F   UNL d   1      58.289  38.350  53.874  0.00  0.00    -0.164 F 
ATOM     14  F   UNL d   1      57.937  38.241  55.498  0.00  0.00    -0.164 F 
ATOM     15  F   UNL d   1      57.812  37.512  54.570  0.00  0.00    -0.164 F 
ENDBRANCH   7  12
ENDBRANCH   1   7
BRANCH   4  16
ATOM     16  C   UNL d   1      56.490  40.094  55.173  0.00  0.00     0.058 A 
ATOM     17  C   UNL d   1      56.686  40.559  54.520  0.00  0.00     0.005 A 
ATOM     18  C   UNL d   1      56.563  40.286  53.753  0.00  0.00     0.000 A 
ATOM     19  C   UNL d   1      56.236  39.531  53.647  0.00  0.00     0.000 A 
ATOM     20  C   UNL d   1      56.039  39.064  54.298  0.00  0.00     0.000 A 
ATOM     21  C   UNL d   1      56.165  39.343  55.049  0.00  0.00     0.005 A 
ENDBRANCH   4  16
TORSDOF 3
ENDMDL
