MODEL 1
REMARK VINA RESULT:      -3.2      0.000      0.000
REMARK  3 active torsions:
REMARK  status: ('A' for Active; 'I' for Inactive)
REMARK    1  A    between atoms: S_10  and  C_6 
REMARK    2  A    between atoms: C_13  and  S_10 
REMARK    3  A    between atoms: C_14  and  C_13 
ROOT
ATOM      1  C   UNL d   1      32.806  22.264 -20.082  0.00  0.00     0.141 A 
ATOM      2  O   UNL d   1      33.090  21.509 -19.911  0.00  0.00    -0.303 OA
ATOM      3  C   UNL d   1      32.579  22.280 -20.878  0.00  0.00     0.110 A 
ATOM      4  C   UNL d   1      32.724  21.536 -21.196  0.00  0.00     0.043 A 
ATOM      5  C   UNL d   1      33.039  21.055 -20.604  0.00  0.00     0.102 A 
ATOM      6  C   UNL d   1      32.725  22.934 -19.618  0.00  0.00     0.137 A 
ATOM      7  N   UNL d   1      32.415  23.632 -19.945  0.00  0.00    -0.215 NA
ATOM      8  N   UNL d   1      32.273  22.974 -21.198  0.00  0.00    -0.222 NA
ATOM      9  C   UNL d   1      32.192  23.645 -20.733  0.00  0.00     0.200 A 
ATOM     10  C   UNL d   1      32.607  21.233 -21.959  0.00  0.00     0.004 A 
ATOM     11  C   UNL d   1      33.240  20.269 -20.767  0.00  0.00     0.025 A 
ATOM     12  C   UNL d   1      32.808  20.447 -22.122  0.00  0.00     0.000 A 
ATOM     13  C   UNL d   1      33.122  19.970 -21.528  0.00  0.00     0.002 A 
ENDROOT
BRANCH   6  14
ATOM     14  S   UNL d   1      32.950  22.926 -18.818  0.00  0.00    -0.065 SA
BRANCH  14  15
ATOM     15  C   UNL d   1      32.754  23.565 -18.333  0.00  0.00     0.037 C 
BRANCH  15  16
ATOM     16  C   UNL d   1      33.107  23.646 -17.593  0.00  0.00     0.007 C 
ATOM     17  C   UNL d   1      32.632  23.701 -16.923  0.00  0.00     0.001 C 
ENDBRANCH  15  16
ENDBRANCH  14  15
ENDBRANCH   6  14
TORSDOF 3
ENDMDL
MODEL 2
REMARK VINA RESULT:      -2.8      4.098      5.554
REMARK  3 active torsions:
REMARK  status: ('A' for Active; 'I' for Inactive)
REMARK    1  A    between atoms: S_10  and  C_6 
REMARK    2  A    between atoms: C_13  and  S_10 
REMARK    3  A    between atoms: C_14  and  C_13 
ROOT
ATOM      1  C   UNL d   1      32.474  18.085 -23.626  0.00  0.00     0.141 A 
ATOM      2  O   UNL d   1      32.172  17.468 -23.169  0.00  0.00    -0.303 OA
ATOM      3  C   UNL d   1      32.321  17.917 -24.421  0.00  0.00     0.110 A 
ATOM      4  C   UNL d   1      31.925  17.197 -24.454  0.00  0.00     0.043 A 
ATOM      5  C   UNL d   1      31.830  16.915 -23.684  0.00  0.00     0.102 A 
ATOM      6  C   UNL d   1      32.867  18.775 -23.419  0.00  0.00     0.137 A 
ATOM      7  N   UNL d   1      33.112  19.306 -24.009  0.00  0.00    -0.215 NA
ATOM      8  N   UNL d   1      32.566  18.446 -25.002  0.00  0.00    -0.222 NA
ATOM      9  C   UNL d   1      32.959  19.136 -24.795  0.00  0.00     0.200 A 
ATOM     10  C   UNL d   1      31.637  16.758 -25.095  0.00  0.00     0.004 A 
ATOM     11  C   UNL d   1      31.447  16.195 -23.547  0.00  0.00     0.025 A 
ATOM     12  C   UNL d   1      31.253  16.037 -24.958  0.00  0.00     0.000 A 
ATOM     13  C   UNL d   1      31.161  15.760 -24.189  0.00  0.00     0.002 A 
ENDROOT
BRANCH   6  14
ATOM     14  S   UNL d   1      33.024  18.952 -22.623  0.00  0.00    -0.065 SA
BRANCH  14  15
ATOM     15  C   UNL d   1      33.069  19.741 -22.382  0.00  0.00     0.037 C 
BRANCH  15  16
ATOM     16  C   UNL d   1      33.240  19.923 -21.597  0.00  0.00     0.007 C 
ATOM     17  C   UNL d   1      32.933  20.612 -21.266  0.00  0.00     0.001 C 
ENDBRANCH  15  16
ENDBRANCH  14  15
ENDBRANCH   6  14
TORSDOF 3
ENDMDL
MODEL 3
REMARK VINA RESULT:      -2.5      2.901      5.047
REMARK  3 active torsions:
REMARK  status: ('A' for Active; 'I' for Inactive)
REMARK    1  A    between atoms: S_10  and  C_6 
REMARK    2  A    between atoms: C_13  and  S_10 
REMARK    3  A    between atoms: C_14  and  C_13 
ROOT
ATOM      1  C   UNL d   1      33.238  19.448 -22.606  0.00  0.00     0.141 A 
ATOM      2  O   UNL d   1      33.237  19.396 -21.783  0.00  0.00    -0.303 OA
ATOM      3  C   UNL d   1      33.239  20.250 -22.813  0.00  0.00     0.110 A 
ATOM      4  C   UNL d   1      33.239  20.689 -22.119  0.00  0.00     0.043 A 
ATOM      5  C   UNL d   1      33.237  20.167 -21.479  0.00  0.00     0.102 A 
ATOM      6  C   UNL d   1      33.238  18.872 -23.189  0.00  0.00     0.137 A 
ATOM      7  N   UNL d   1      33.239  19.092 -23.990  0.00  0.00    -0.215 NA
ATOM      8  N   UNL d   1      33.241  20.463 -23.608  0.00  0.00    -0.222 NA
ATOM      9  C   UNL d   1      33.241  19.886 -24.192  0.00  0.00     0.200 A 
ATOM     10  C   UNL d   1      33.240  21.508 -21.987  0.00  0.00     0.004 A 
ATOM     11  C   UNL d   1      33.237  20.457 -20.703  0.00  0.00     0.025 A 
ATOM     12  C   UNL d   1      33.239  21.797 -21.211  0.00  0.00     0.000 A 
ATOM     13  C   UNL d   1      33.238  21.273 -20.576  0.00  0.00     0.002 A 
ENDROOT
BRANCH   6  14
ATOM     14  S   UNL d   1      33.236  18.066 -22.990  0.00  0.00    -0.065 SA
BRANCH  14  15
ATOM     15  C   UNL d   1      32.849  17.525 -23.479  0.00  0.00     0.037 C 
BRANCH  15  16
ATOM     16  C   UNL d   1      32.870  16.721 -23.305  0.00  0.00     0.007 C 
ATOM     17  C   UNL d   1      32.290  16.225 -23.613  0.00  0.00     0.001 C 
ENDBRANCH  15  16
ENDBRANCH  14  15
ENDBRANCH   6  14
TORSDOF 3
ENDMDL
MODEL 4
REMARK VINA RESULT:      -2.4      6.615      7.647
REMARK  3 active torsions:
REMARK  status: ('A' for Active; 'I' for Inactive)
REMARK    1  A    between atoms: S_10  and  C_6 
REMARK    2  A    between atoms: C_13  and  S_10 
REMARK    3  A    between atoms: C_14  and  C_13 
ROOT
ATOM      1  C   UNL d   1      31.049  16.695 -24.157  0.00  0.00     0.141 A 
ATOM      2  O   UNL d   1      30.942  17.371 -24.618  0.00  0.00    -0.303 OA
ATOM      3  C   UNL d   1      31.842  16.665 -23.924  0.00  0.00     0.110 A 
ATOM      4  C   UNL d   1      32.223  17.321 -24.240  0.00  0.00     0.043 A 
ATOM      5  C   UNL d   1      31.672  17.761 -24.670  0.00  0.00     0.102 A 
ATOM      6  C   UNL d   1      30.528  16.108 -23.922  0.00  0.00     0.137 A 
ATOM      7  N   UNL d   1      30.796  15.480 -23.449  0.00  0.00    -0.215 NA
ATOM      8  N   UNL d   1      32.103  16.041 -23.455  0.00  0.00    -0.222 NA
ATOM      9  C   UNL d   1      31.581  15.453 -23.219  0.00  0.00     0.200 A 
ATOM     10  C   UNL d   1      33.010  17.576 -24.191  0.00  0.00     0.004 A 
ATOM     11  C   UNL d   1      31.901  18.458 -25.053  0.00  0.00     0.025 A 
ATOM     12  C   UNL d   1      33.240  18.273 -24.574  0.00  0.00     0.000 A 
ATOM     13  C   UNL d   1      32.687  18.709 -25.001  0.00  0.00     0.002 A 
ENDROOT
BRANCH   6  14
ATOM     14  S   UNL d   1      29.730  16.131 -24.152  0.00  0.00    -0.065 SA
BRANCH  14  15
ATOM     15  C   UNL d   1      29.187  15.622 -23.793  0.00  0.00     0.037 C 
BRANCH  15  16
ATOM     16  C   UNL d   1      28.430  15.538 -24.107  0.00  0.00     0.007 C 
ATOM     17  C   UNL d   1      27.789  15.453 -23.597  0.00  0.00     0.001 C 
ENDBRANCH  15  16
ENDBRANCH  14  15
ENDBRANCH   6  14
TORSDOF 3
ENDMDL
MODEL 5
REMARK VINA RESULT:      -2.4      2.474      3.395
REMARK  3 active torsions:
REMARK  status: ('A' for Active; 'I' for Inactive)
REMARK    1  A    between atoms: S_10  and  C_6 
REMARK    2  A    between atoms: C_13  and  S_10 
REMARK    3  A    between atoms: C_14  and  C_13 
ROOT
ATOM      1  C   UNL d   1      33.239  20.527 -22.345  0.00  0.00     0.141 A 
ATOM      2  O   UNL d   1      33.239  20.496 -23.169  0.00  0.00    -0.303 OA
ATOM      3  C   UNL d   1      33.237  19.751 -22.057  0.00  0.00     0.110 A 
ATOM      4  C   UNL d   1      33.237  19.243 -22.704  0.00  0.00     0.043 A 
ATOM      5  C   UNL d   1      33.238  19.697 -23.393  0.00  0.00     0.102 A 
ATOM      6  C   UNL d   1      33.239  21.159 -21.823  0.00  0.00     0.137 A 
ATOM      7  N   UNL d   1      33.239  21.022 -21.004  0.00  0.00    -0.215 NA
ATOM      8  N   UNL d   1      33.237  19.620 -21.245  0.00  0.00    -0.222 NA
ATOM      9  C   UNL d   1      33.238  20.253 -20.722  0.00  0.00     0.200 A 
ATOM     10  C   UNL d   1      33.236  18.415 -22.752  0.00  0.00     0.004 A 
ATOM     11  C   UNL d   1      33.238  19.330 -24.135  0.00  0.00     0.025 A 
ATOM     12  C   UNL d   1      33.236  18.048 -23.493  0.00  0.00     0.000 A 
ATOM     13  C   UNL d   1      33.237  18.505 -24.179  0.00  0.00     0.002 A 
ENDROOT
BRANCH   6  14
ATOM     14  S   UNL d   1      33.241  21.941 -22.104  0.00  0.00    -0.065 SA
BRANCH  14  15
ATOM     15  C   UNL d   1      32.811  22.520 -21.701  0.00  0.00     0.037 C 
BRANCH  15  16
ATOM     16  C   UNL d   1      32.772  23.287 -21.998  0.00  0.00     0.007 C 
ATOM     17  C   UNL d   1      32.043  23.667 -22.040  0.00  0.00     0.001 C 
ENDBRANCH  15  16
ENDBRANCH  14  15
ENDBRANCH   6  14
TORSDOF 3
ENDMDL
MODEL 6
REMARK VINA RESULT:      -1.2      2.054      4.214
REMARK  3 active torsions:
REMARK  status: ('A' for Active; 'I' for Inactive)
REMARK    1  A    between atoms: S_10  and  C_6 
REMARK    2  A    between atoms: C_13  and  S_10 
REMARK    3  A    between atoms: C_14  and  C_13 
ROOT
ATOM      1  C   UNL d   1      32.852  21.077 -21.721  0.00  0.00     0.141 A 
ATOM      2  O   UNL d   1      32.640  21.688 -22.232  0.00  0.00    -0.303 OA
ATOM      3  C   UNL d   1      32.846  21.373 -20.948  0.00  0.00     0.110 A 
ATOM      4  C   UNL d   1      32.631  22.166 -20.984  0.00  0.00     0.043 A 
ATOM      5  C   UNL d   1      32.502  22.366 -21.775  0.00  0.00     0.102 A 
ATOM      6  C   UNL d   1      33.048  20.293 -21.859  0.00  0.00     0.137 A 
ATOM      7  N   UNL d   1      33.241  19.795 -21.224  0.00  0.00    -0.215 NA
ATOM      8  N   UNL d   1      33.038  20.876 -20.322  0.00  0.00    -0.222 NA
ATOM      9  C   UNL d   1      33.235  20.091 -20.460  0.00  0.00     0.200 A 
ATOM     10  C   UNL d   1      32.535  22.737 -20.390  0.00  0.00     0.004 A 
ATOM     11  C   UNL d   1      32.277  23.136 -21.980  0.00  0.00     0.025 A 
ATOM     12  C   UNL d   1      32.310  23.506 -20.595  0.00  0.00     0.000 A 
ATOM     13  C   UNL d   1      32.183  23.702 -21.385  0.00  0.00     0.002 A 
ENDROOT
BRANCH   6  14
ATOM     14  S   UNL d   1      33.056  19.988 -22.632  0.00  0.00    -0.065 SA
BRANCH  14  15
ATOM     15  C   UNL d   1      32.968  19.175 -22.750  0.00  0.00     0.037 C 
BRANCH  15  16
ATOM     16  C   UNL d   1      33.050  18.856 -23.505  0.00  0.00     0.007 C 
ATOM     17  C   UNL d   1      32.735  18.113 -23.666  0.00  0.00     0.001 C 
ENDBRANCH  15  16
ENDBRANCH  14  15
ENDBRANCH   6  14
TORSDOF 3
ENDMDL
MODEL 7
REMARK VINA RESULT:      -0.5      1.867      2.636
REMARK  3 active torsions:
REMARK  status: ('A' for Active; 'I' for Inactive)
REMARK    1  A    between atoms: S_10  and  C_6 
REMARK    2  A    between atoms: C_13  and  S_10 
REMARK    3  A    between atoms: C_14  and  C_13 
ROOT
ATOM      1  C   UNL d   1      33.225  21.938 -22.125  0.00  0.00     0.141 A 
ATOM      2  O   UNL d   1      33.236  22.469 -22.756  0.00  0.00    -0.303 OA
ATOM      3  C   UNL d   1      33.212  21.170 -22.435  0.00  0.00     0.110 A 
ATOM      4  C   UNL d   1      33.216  21.230 -23.254  0.00  0.00     0.043 A 
ATOM      5  C   UNL d   1      33.231  22.029 -23.459  0.00  0.00     0.102 A 
ATOM      6  C   UNL d   1      33.224  22.054 -21.313  0.00  0.00     0.137 A 
ATOM      7  N   UNL d   1      33.211  21.402 -20.800  0.00  0.00    -0.215 NA
ATOM      8  N   UNL d   1      33.199  20.527 -21.922  0.00  0.00    -0.222 NA
ATOM      9  C   UNL d   1      33.198  20.643 -21.109  0.00  0.00     0.200 A 
ATOM     10  C   UNL d   1      33.207  20.650 -23.847  0.00  0.00     0.004 A 
ATOM     11  C   UNL d   1      33.238  22.257 -24.254  0.00  0.00     0.025 A 
ATOM     12  C   UNL d   1      33.214  20.878 -24.643  0.00  0.00     0.000 A 
ATOM     13  C   UNL d   1      33.229  21.676 -24.842  0.00  0.00     0.002 A 
ENDROOT
BRANCH   6  14
ATOM     14  S   UNL d   1      33.237  22.821 -20.995  0.00  0.00    -0.065 SA
BRANCH  14  15
ATOM     15  C   UNL d   1      32.788  22.991 -20.323  0.00  0.00     0.037 C 
BRANCH  15  16
ATOM     16  C   UNL d   1      33.145  23.329 -19.662  0.00  0.00     0.007 C 
ATOM     17  C   UNL d   1      32.673  23.655 -19.070  0.00  0.00     0.001 C 
ENDBRANCH  15  16
ENDBRANCH  14  15
ENDBRANCH   6  14
TORSDOF 3
ENDMDL
