MODEL 1
REMARK VINA RESULT:      -3.2      0.000      0.000
REMARK  2 active torsions:
REMARK  status: ('A' for Active; 'I' for Inactive)
REMARK    1  A    between atoms: N_2  and  S_1 
REMARK    2  A    between atoms: C_3  and  S_1 
ROOT
ATOM      1  N   UNL d   1      30.346  16.928 -24.381  0.00  0.00    -0.231 N 
ATOM      2  C   UNL d   1      29.798  16.494 -23.949  0.00  0.00     0.075 A 
ATOM      3  C   UNL d   1      28.993  16.655 -24.036  0.00  0.00     0.017 A 
ATOM      4  C   UNL d   1      30.102  17.527 -24.903  0.00  0.00     0.092 A 
ATOM      5  C   UNL d   1      30.039  15.894 -23.426  0.00  0.00     0.018 A 
ATOM      6  C   UNL d   1      29.301  17.685 -24.987  0.00  0.00     0.020 A 
ATOM      7  C   UNL d   1      28.742  17.247 -24.551  0.00  0.00     0.003 A 
ATOM      8  C   UNL d   1      28.438  16.211 -23.595  0.00  0.00     0.002 A 
ATOM      9  C   UNL d   1      29.493  15.453 -22.989  0.00  0.00     0.002 A 
ATOM     10  C   UNL d   1      28.688  15.611 -23.073  0.00  0.00     0.000 A 
ENDROOT
BRANCH   1  11
ATOM     11  S   UNL d   1      31.149  16.765 -24.293  0.00  0.00     0.277 S 
ATOM     12  O   UNL d   1      31.198  17.330 -23.693  0.00  0.00    -0.199 OA
ATOM     13  O   UNL d   1      31.101  16.208 -24.885  0.00  0.00    -0.199 OA
BRANCH  11  14
ATOM     14  C   UNL d   1      31.939  16.605 -24.207  0.00  0.00     0.133 A 
ATOM     15  S   UNL d   1      32.376  16.116 -24.704  0.00  0.00    -0.074 SA
ATOM     16  C   UNL d   1      33.177  16.107 -24.408  0.00  0.00     0.036 A 
ATOM     17  C   UNL d   1      33.182  16.592 -23.747  0.00  0.00     0.008 A 
ATOM     18  C   UNL d   1      32.462  16.906 -23.597  0.00  0.00     0.020 A 
ENDBRANCH  11  14
ENDBRANCH   1  11
TORSDOF 2
ENDMDL
MODEL 2
REMARK VINA RESULT:      -3.1      0.597      1.573
REMARK  2 active torsions:
REMARK  status: ('A' for Active; 'I' for Inactive)
REMARK    1  A    between atoms: N_2  and  S_1 
REMARK    2  A    between atoms: C_3  and  S_1 
ROOT
ATOM      1  N   UNL d   1      30.346  16.015 -23.651  0.00  0.00    -0.231 N 
ATOM      2  C   UNL d   1      29.843  16.570 -23.989  0.00  0.00     0.075 A 
ATOM      3  C   UNL d   1      29.043  16.570 -23.788  0.00  0.00     0.017 A 
ATOM      4  C   UNL d   1      30.060  15.453 -23.110  0.00  0.00     0.092 A 
ATOM      5  C   UNL d   1      30.126  17.134 -24.530  0.00  0.00     0.018 A 
ATOM      6  C   UNL d   1      29.264  15.455 -22.912  0.00  0.00     0.020 A 
ATOM      7  C   UNL d   1      28.751  16.016 -23.252  0.00  0.00     0.003 A 
ATOM      8  C   UNL d   1      28.534  17.136 -24.134  0.00  0.00     0.002 A 
ATOM      9  C   UNL d   1      29.627  17.696 -24.875  0.00  0.00     0.002 A 
ATOM     10  C   UNL d   1      28.826  17.698 -24.676  0.00  0.00     0.000 A 
ENDROOT
BRANCH   1  11
ATOM     11  S   UNL d   1      31.145  16.018 -23.853  0.00  0.00     0.277 S 
ATOM     12  O   UNL d   1      31.302  16.527 -23.224  0.00  0.00    -0.199 OA
ATOM     13  O   UNL d   1      30.989  15.515 -24.474  0.00  0.00    -0.199 OA
BRANCH  11  14
ATOM     14  C   UNL d   1      31.930  16.020 -24.052  0.00  0.00     0.133 A 
ATOM     15  S   UNL d   1      32.273  15.534 -24.621  0.00  0.00    -0.074 SA
ATOM     16  C   UNL d   1      33.105  15.723 -24.647  0.00  0.00     0.036 A 
ATOM     17  C   UNL d   1      33.223  16.314 -24.092  0.00  0.00     0.008 A 
ATOM     18  C   UNL d   1      32.545  16.517 -23.717  0.00  0.00     0.020 A 
ENDBRANCH  11  14
ENDBRANCH   1  11
TORSDOF 2
ENDMDL
MODEL 3
REMARK VINA RESULT:      -3.0      1.076      1.798
REMARK  2 active torsions:
REMARK  status: ('A' for Active; 'I' for Inactive)
REMARK    1  A    between atoms: N_2  and  S_1 
REMARK    2  A    between atoms: C_3  and  S_1 
ROOT
ATOM      1  N   UNL d   1      31.115  16.655 -23.890  0.00  0.00    -0.231 N 
ATOM      2  C   UNL d   1      30.331  16.805 -24.087  0.00  0.00     0.075 A 
ATOM      3  C   UNL d   1      29.745  16.274 -23.851  0.00  0.00     0.017 A 
ATOM      4  C   UNL d   1      31.325  15.978 -23.457  0.00  0.00     0.092 A 
ATOM      5  C   UNL d   1      30.118  17.481 -24.520  0.00  0.00     0.018 A 
ATOM      6  C   UNL d   1      30.740  15.453 -23.224  0.00  0.00     0.020 A 
ATOM      7  C   UNL d   1      29.945  15.601 -23.421  0.00  0.00     0.003 A 
ATOM      8  C   UNL d   1      28.948  16.430 -24.053  0.00  0.00     0.002 A 
ATOM      9  C   UNL d   1      29.332  17.639 -24.722  0.00  0.00     0.002 A 
ATOM     10  C   UNL d   1      28.742  17.111 -24.488  0.00  0.00     0.000 A 
ENDROOT
BRANCH   1  11
ATOM     11  S   UNL d   1      31.699  17.186 -24.127  0.00  0.00     0.277 S 
ATOM     12  O   UNL d   1      31.613  17.598 -23.417  0.00  0.00    -0.199 OA
ATOM     13  O   UNL d   1      31.784  16.780 -24.828  0.00  0.00    -0.199 OA
BRANCH  11  14
ATOM     14  C   UNL d   1      32.274  17.707 -24.361  0.00  0.00     0.133 A 
ATOM     15  S   UNL d   1      32.654  17.693 -25.090  0.00  0.00    -0.074 SA
ATOM     16  C   UNL d   1      33.213  18.339 -25.097  0.00  0.00     0.036 A 
ATOM     17  C   UNL d   1      33.142  18.710 -24.369  0.00  0.00     0.008 A 
ATOM     18  C   UNL d   1      32.592  18.362 -23.904  0.00  0.00     0.020 A 
ENDBRANCH  11  14
ENDBRANCH   1  11
TORSDOF 2
ENDMDL
MODEL 4
REMARK VINA RESULT:      -2.9      1.097      3.433
REMARK  2 active torsions:
REMARK  status: ('A' for Active; 'I' for Inactive)
REMARK    1  A    between atoms: N_2  and  S_1 
REMARK    2  A    between atoms: C_3  and  S_1 
ROOT
ATOM      1  N   UNL d   1      31.680  16.146 -23.733  0.00  0.00    -0.231 N 
ATOM      2  C   UNL d   1      32.067  16.870 -23.725  0.00  0.00     0.075 A 
ATOM      3  C   UNL d   1      32.850  16.911 -23.469  0.00  0.00     0.017 A 
ATOM      4  C   UNL d   1      32.067  15.453 -23.486  0.00  0.00     0.092 A 
ATOM      5  C   UNL d   1      31.683  17.566 -23.972  0.00  0.00     0.018 A 
ATOM      6  C   UNL d   1      32.845  15.495 -23.231  0.00  0.00     0.020 A 
ATOM      7  C   UNL d   1      33.241  16.228 -23.222  0.00  0.00     0.003 A 
ATOM      8  C   UNL d   1      33.241  17.650 -23.462  0.00  0.00     0.002 A 
ATOM      9  C   UNL d   1      32.065  18.299 -23.967  0.00  0.00     0.002 A 
ATOM     10  C   UNL d   1      32.848  18.343 -23.711  0.00  0.00     0.000 A 
ENDROOT
BRANCH   1  11
ATOM     11  S   UNL d   1      30.898  16.108 -23.990  0.00  0.00     0.277 S 
ATOM     12  O   UNL d   1      31.158  16.033 -24.769  0.00  0.00    -0.199 OA
ATOM     13  O   UNL d   1      30.642  16.181 -23.221  0.00  0.00    -0.199 OA
BRANCH  11  14
ATOM     14  C   UNL d   1      30.129  16.070 -24.241  0.00  0.00     0.133 A 
ATOM     15  S   UNL d   1      29.893  15.907 -25.012  0.00  0.00    -0.074 SA
ATOM     16  C   UNL d   1      29.040  15.924 -25.025  0.00  0.00     0.036 A 
ATOM     17  C   UNL d   1      28.803  16.097 -24.259  0.00  0.00     0.008 A 
ATOM     18  C   UNL d   1      29.425  16.191 -23.764  0.00  0.00     0.020 A 
ENDBRANCH  11  14
ENDBRANCH   1  11
TORSDOF 2
ENDMDL
MODEL 5
REMARK VINA RESULT:      -2.6      1.052      3.064
REMARK  2 active torsions:
REMARK  status: ('A' for Active; 'I' for Inactive)
REMARK    1  A    between atoms: N_2  and  S_1 
REMARK    2  A    between atoms: C_3  and  S_1 
ROOT
ATOM      1  N   UNL d   1      31.000  16.953 -24.313  0.00  0.00    -0.231 N 
ATOM      2  C   UNL d   1      31.646  16.591 -23.958  0.00  0.00     0.075 A 
ATOM      3  C   UNL d   1      32.377  16.974 -23.959  0.00  0.00     0.017 A 
ATOM      4  C   UNL d   1      31.072  17.699 -24.673  0.00  0.00     0.092 A 
ATOM      5  C   UNL d   1      31.578  15.845 -23.597  0.00  0.00     0.018 A 
ATOM      6  C   UNL d   1      31.800  18.077 -24.673  0.00  0.00     0.020 A 
ATOM      7  C   UNL d   1      32.458  17.713 -24.314  0.00  0.00     0.003 A 
ATOM      8  C   UNL d   1      33.034  16.602 -23.597  0.00  0.00     0.002 A 
ATOM      9  C   UNL d   1      32.224  15.474 -23.238  0.00  0.00     0.002 A 
ATOM     10  C   UNL d   1      32.956  15.854 -23.237  0.00  0.00     0.000 A 
ENDROOT
BRANCH   1  11
ATOM     11  S   UNL d   1      30.271  16.570 -24.311  0.00  0.00     0.277 S 
ATOM     12  O   UNL d   1      30.454  16.218 -25.034  0.00  0.00    -0.199 OA
ATOM     13  O   UNL d   1      30.090  16.917 -23.597  0.00  0.00    -0.199 OA
BRANCH  11  14
ATOM     14  C   UNL d   1      29.553  16.193 -24.308  0.00  0.00     0.133 A 
ATOM     15  S   UNL d   1      29.254  15.746 -24.930  0.00  0.00    -0.074 SA
ATOM     16  C   UNL d   1      28.489  15.455 -24.688  0.00  0.00     0.036 A 
ATOM     17  C   UNL d   1      28.364  15.742 -23.930  0.00  0.00     0.008 A 
ATOM     18  C   UNL d   1      28.978  16.186 -23.671  0.00  0.00     0.020 A 
ENDBRANCH  11  14
ENDBRANCH   1  11
TORSDOF 2
ENDMDL
MODEL 6
REMARK VINA RESULT:      -2.3      2.163      3.577
REMARK  2 active torsions:
REMARK  status: ('A' for Active; 'I' for Inactive)
REMARK    1  A    between atoms: N_2  and  S_1 
REMARK    2  A    between atoms: C_3  and  S_1 
ROOT
ATOM      1  N   UNL d   1      32.678  18.361 -24.279  0.00  0.00    -0.231 N 
ATOM      2  C   UNL d   1      32.837  18.795 -23.600  0.00  0.00     0.075 A 
ATOM      3  C   UNL d   1      33.080  19.581 -23.668  0.00  0.00     0.017 A 
ATOM      4  C   UNL d   1      32.758  18.702 -25.033  0.00  0.00     0.092 A 
ATOM      5  C   UNL d   1      32.758  18.457 -22.845  0.00  0.00     0.018 A 
ATOM      6  C   UNL d   1      32.999  19.483 -25.097  0.00  0.00     0.020 A 
ATOM      7  C   UNL d   1      33.162  19.927 -24.411  0.00  0.00     0.003 A 
ATOM      8  C   UNL d   1      33.241  20.020 -22.974  0.00  0.00     0.002 A 
ATOM      9  C   UNL d   1      32.916  18.887 -22.156  0.00  0.00     0.002 A 
ATOM     10  C   UNL d   1      33.159  19.673 -22.220  0.00  0.00     0.000 A 
ENDROOT
BRANCH   1  11
ATOM     11  S   UNL d   1      32.436  17.576 -24.210  0.00  0.00     0.277 S 
ATOM     12  O   UNL d   1      33.223  17.331 -24.236  0.00  0.00    -0.199 OA
ATOM     13  O   UNL d   1      31.659  17.818 -24.184  0.00  0.00    -0.199 OA
BRANCH  11  14
ATOM     14  C   UNL d   1      32.197  16.805 -24.142  0.00  0.00     0.133 A 
ATOM     15  S   UNL d   1      32.671  16.150 -24.292  0.00  0.00    -0.074 SA
ATOM     16  C   UNL d   1      32.196  15.455 -24.150  0.00  0.00     0.036 A 
ATOM     17  C   UNL d   1      31.456  15.727 -23.921  0.00  0.00     0.008 A 
ATOM     18  C   UNL d   1      31.420  16.526 -23.905  0.00  0.00     0.020 A 
ENDBRANCH  11  14
ENDBRANCH   1  11
TORSDOF 2
ENDMDL
MODEL 7
REMARK VINA RESULT:      -2.0      5.907      6.727
REMARK  2 active torsions:
REMARK  status: ('A' for Active; 'I' for Inactive)
REMARK    1  A    between atoms: N_2  and  S_1 
REMARK    2  A    between atoms: C_3  and  S_1 
ROOT
ATOM      1  N   UNL d   1      32.359  22.224 -21.323  0.00  0.00    -0.231 N 
ATOM      2  C   UNL d   1      32.570  22.469 -20.567  0.00  0.00     0.075 A 
ATOM      3  C   UNL d   1      32.329  23.210 -20.298  0.00  0.00     0.017 A 
ATOM      4  C   UNL d   1      31.906  22.713 -21.819  0.00  0.00     0.092 A 
ATOM      5  C   UNL d   1      33.024  21.982 -20.068  0.00  0.00     0.018 A 
ATOM      6  C   UNL d   1      31.667  23.449 -21.549  0.00  0.00     0.020 A 
ATOM      7  C   UNL d   1      31.879  23.701 -20.783  0.00  0.00     0.003 A 
ATOM      8  C   UNL d   1      32.545  23.456 -19.528  0.00  0.00     0.002 A 
ATOM      9  C   UNL d   1      33.240  22.220 -19.307  0.00  0.00     0.002 A 
ATOM     10  C   UNL d   1      33.001  22.961 -19.034  0.00  0.00     0.000 A 
ENDROOT
BRANCH   1  11
ATOM     11  S   UNL d   1      32.601  21.483 -21.590  0.00  0.00     0.277 S 
ATOM     12  O   UNL d   1      32.008  21.127 -21.140  0.00  0.00    -0.199 OA
ATOM     13  O   UNL d   1      33.187  21.834 -22.033  0.00  0.00    -0.199 OA
BRANCH  11  14
ATOM     14  C   UNL d   1      32.840  20.755 -21.853  0.00  0.00     0.133 A 
ATOM     15  S   UNL d   1      33.009  20.570 -22.637  0.00  0.00    -0.074 SA
ATOM     16  C   UNL d   1      33.237  19.748 -22.659  0.00  0.00     0.036 A 
ATOM     17  C   UNL d   1      33.195  19.477 -21.886  0.00  0.00     0.008 A 
ATOM     18  C   UNL d   1      32.962  20.050 -21.378  0.00  0.00     0.020 A 
ENDBRANCH  11  14
ENDBRANCH   1  11
TORSDOF 2
ENDMDL
MODEL 8
REMARK VINA RESULT:      -0.7      6.121      7.068
REMARK  2 active torsions:
REMARK  status: ('A' for Active; 'I' for Inactive)
REMARK    1  A    between atoms: N_2  and  S_1 
REMARK    2  A    between atoms: C_3  and  S_1 
ROOT
ATOM      1  N   UNL d   1      32.621  22.772 -21.522  0.00  0.00    -0.231 N 
ATOM      2  C   UNL d   1      32.807  21.994 -21.336  0.00  0.00     0.075 A 
ATOM      3  C   UNL d   1      32.826  21.759 -20.545  0.00  0.00     0.017 A 
ATOM      4  C   UNL d   1      32.452  23.326 -20.926  0.00  0.00     0.092 A 
ATOM      5  C   UNL d   1      32.978  21.438 -21.930  0.00  0.00     0.018 A 
ATOM      6  C   UNL d   1      32.471  23.089 -20.141  0.00  0.00     0.020 A 
ATOM      7  C   UNL d   1      32.659  22.301 -19.948  0.00  0.00     0.003 A 
ATOM      8  C   UNL d   1      33.016  20.966 -20.359  0.00  0.00     0.002 A 
ATOM      9  C   UNL d   1      33.166  20.653 -21.751  0.00  0.00     0.002 A 
ATOM     10  C   UNL d   1      33.185  20.414 -20.961  0.00  0.00     0.000 A 
ENDROOT
BRANCH   1  11
ATOM     11  S   UNL d   1      32.603  23.005 -22.312  0.00  0.00     0.277 S 
ATOM     12  O   UNL d   1      31.957  22.509 -22.444  0.00  0.00    -0.199 OA
ATOM     13  O   UNL d   1      33.241  23.495 -22.183  0.00  0.00    -0.199 OA
BRANCH  11  14
ATOM     14  C   UNL d   1      32.586  23.235 -23.089  0.00  0.00     0.133 A 
ATOM     15  S   UNL d   1      33.223  23.189 -23.608  0.00  0.00    -0.074 SA
ATOM     16  C   UNL d   1      32.958  23.488 -24.362  0.00  0.00     0.036 A 
ATOM     17  C   UNL d   1      32.172  23.700 -24.260  0.00  0.00     0.008 A 
ATOM     18  C   UNL d   1      31.916  23.563 -23.514  0.00  0.00     0.020 A 
ENDBRANCH  11  14
ENDBRANCH   1  11
TORSDOF 2
ENDMDL
