MODEL 1
REMARK VINA RESULT:      -8.8      0.000      0.000
REMARK  3 active torsions:
REMARK  status: ('A' for Active; 'I' for Inactive)
REMARK    1  A    between atoms: C_14  and  N_3 
REMARK    2  A    between atoms: O_17  and  C_12 
REMARK    3  A    between atoms: O_16  and  C_13 
ROOT
ATOM      1  C   UNL d   1     -48.413  13.230  22.703  0.00  0.00     0.166 A 
ATOM      2  C   UNL d   1     -48.565  12.519  23.137  0.00  0.00     0.117 A 
ATOM      3  N   UNL d   1     -49.144  13.601  22.564  0.00  0.00    -0.289 N 
ATOM      4  N   UNL d   1     -47.619  13.414  22.509  0.00  0.00    -0.225 NA
ATOM      5  N   UNL d   1     -47.946  12.030  23.357  0.00  0.00    -0.241 NA
ATOM      6  C   UNL d   1     -49.379  12.487  23.244  0.00  0.00     0.037 A 
ATOM      7  C   UNL d   1     -49.732  13.146  22.895  0.00  0.00     0.067 A 
ATOM      8  C   UNL d   1     -47.002  12.929  22.727  0.00  0.00     0.103 A 
ATOM      9  C   UNL d   1     -47.165  12.237  23.151  0.00  0.00     0.101 A 
ATOM     10  C   UNL d   1     -46.249  13.130  22.527  0.00  0.00     0.047 A 
ATOM     11  C   UNL d   1     -46.547  11.748  23.371  0.00  0.00     0.047 A 
ATOM     12  C   UNL d   1     -45.753  11.931  23.178  0.00  0.00     0.118 A 
ATOM     13  C   UNL d   1     -45.627  12.637  22.749  0.00  0.00     0.118 A 
ATOM     14  C   UNL d   1     -49.850  11.924  23.625  0.00  0.00     0.003 A 
ATOM     15  C   UNL d   1     -50.545  13.222  22.938  0.00  0.00     0.018 A 
ATOM     16  C   UNL d   1     -50.672  12.015  23.660  0.00  0.00     0.000 A 
ATOM     17  C   UNL d   1     -51.025  12.675  23.311  0.00  0.00     0.002 A 
ENDROOT
BRANCH   3  18
ATOM     18  C   UNL d   1     -49.249  14.298  22.167  0.00  0.00     0.082 C 
ATOM     19  C   UNL d   1     -49.334  15.004  22.586  0.00  0.00     0.021 C 
ENDBRANCH   3  18
BRANCH  13  20
ATOM     20  O   UNL d   1     -44.869  12.836  22.550  0.00  0.00    -0.326 OA
ATOM     21  C   UNL d   1     -44.706  13.262  21.858  0.00  0.00     0.181 C 
ENDBRANCH  13  20
BRANCH  12  22
ATOM     22  O   UNL d   1     -45.124  11.424  23.407  0.00  0.00    -0.326 OA
ATOM     23  C   UNL d   1     -45.293  10.661  23.698  0.00  0.00     0.181 C 
ENDBRANCH  12  22
TORSDOF 3
ENDMDL
MODEL 2
REMARK VINA RESULT:      -6.9      1.803      3.984
REMARK  3 active torsions:
REMARK  status: ('A' for Active; 'I' for Inactive)
REMARK    1  A    between atoms: C_14  and  N_3 
REMARK    2  A    between atoms: O_17  and  C_12 
REMARK    3  A    between atoms: O_16  and  C_13 
ROOT
ATOM      1  C   UNL d   1     -46.997  12.996  22.772  0.00  0.00     0.166 A 
ATOM      2  C   UNL d   1     -47.256  12.312  23.201  0.00  0.00     0.117 A 
ATOM      3  N   UNL d   1     -46.183  12.907  22.627  0.00  0.00    -0.289 N 
ATOM      4  N   UNL d   1     -47.562  13.585  22.589  0.00  0.00    -0.225 NA
ATOM      5  N   UNL d   1     -48.040  12.240  23.425  0.00  0.00    -0.241 NA
ATOM      6  C   UNL d   1     -46.592  11.839  23.298  0.00  0.00     0.037 A 
ATOM      7  C   UNL d   1     -45.938  12.201  22.948  0.00  0.00     0.067 A 
ATOM      8  C   UNL d   1     -48.343  13.515  22.812  0.00  0.00     0.103 A 
ATOM      9  C   UNL d   1     -48.582  12.842  23.230  0.00  0.00     0.101 A 
ATOM     10  C   UNL d   1     -48.864  14.098  22.622  0.00  0.00     0.047 A 
ATOM     11  C   UNL d   1     -49.365  12.768  23.455  0.00  0.00     0.047 A 
ATOM     12  C   UNL d   1     -49.930  13.358  23.272  0.00  0.00     0.118 A 
ATOM     13  C   UNL d   1     -49.653  14.023  22.849  0.00  0.00     0.118 A 
ATOM     14  C   UNL d   1     -46.503  11.105  23.671  0.00  0.00     0.003 A 
ATOM     15  C   UNL d   1     -45.216  11.819  22.982  0.00  0.00     0.018 A 
ATOM     16  C   UNL d   1     -45.764  10.732  23.696  0.00  0.00     0.000 A 
ATOM     17  C   UNL d   1     -45.111  11.095  23.347  0.00  0.00     0.002 A 
ENDROOT
BRANCH   3  18
ATOM     18  C   UNL d   1     -45.717  13.437  22.231  0.00  0.00     0.082 C 
ATOM     19  C   UNL d   1     -45.425  14.103  22.623  0.00  0.00     0.021 C 
ENDBRANCH   3  18
BRANCH  13  20
ATOM     20  O   UNL d   1     -50.180  14.607  22.660  0.00  0.00    -0.326 OA
ATOM     21  C   UNL d   1     -49.923  15.377  22.493  0.00  0.00     0.181 C 
ENDBRANCH  13  20
BRANCH  12  22
ATOM     22  O   UNL d   1     -50.732  13.276  23.507  0.00  0.00    -0.326 OA
ATOM     23  C   UNL d   1     -51.032  12.521  23.698  0.00  0.00     0.181 C 
ENDBRANCH  12  22
TORSDOF 3
ENDMDL
MODEL 3
REMARK VINA RESULT:      -6.7      8.165      9.654
REMARK  3 active torsions:
REMARK  status: ('A' for Active; 'I' for Inactive)
REMARK    1  A    between atoms: C_14  and  N_3 
REMARK    2  A    between atoms: O_17  and  C_12 
REMARK    3  A    between atoms: O_16  and  C_13 
ROOT
ATOM      1  C   UNL d   1     -40.134  14.755  19.884  0.00  0.00     0.166 A 
ATOM      2  C   UNL d   1     -39.405  14.338  19.772  0.00  0.00     0.117 A 
ATOM      3  N   UNL d   1     -40.296  14.763  20.699  0.00  0.00    -0.289 N 
ATOM      4  N   UNL d   1     -40.526  15.058  19.208  0.00  0.00    -0.225 NA
ATOM      5  N   UNL d   1     -39.100  14.239  19.018  0.00  0.00    -0.241 NA
ATOM      6  C   UNL d   1     -39.155  14.111  20.520  0.00  0.00     0.037 A 
ATOM      7  C   UNL d   1     -39.698  14.370  21.085  0.00  0.00     0.067 A 
ATOM      8  C   UNL d   1     -40.223  14.960  18.458  0.00  0.00     0.103 A 
ATOM      9  C   UNL d   1     -39.510  14.551  18.362  0.00  0.00     0.101 A 
ATOM     10  C   UNL d   1     -40.621  15.261  17.827  0.00  0.00     0.047 A 
ATOM     11  C   UNL d   1     -39.203  14.451  17.611  0.00  0.00     0.047 A 
ATOM     12  C   UNL d   1     -39.594  14.753  16.935  0.00  0.00     0.118 A 
ATOM     13  C   UNL d   1     -40.311  15.160  17.069  0.00  0.00     0.118 A 
ATOM     14  C   UNL d   1     -38.483  13.690  20.759  0.00  0.00     0.003 A 
ATOM     15  C   UNL d   1     -39.552  14.200  21.872  0.00  0.00     0.018 A 
ATOM     16  C   UNL d   1     -38.351  13.527  21.559  0.00  0.00     0.000 A 
ATOM     17  C   UNL d   1     -38.893  13.785  22.124  0.00  0.00     0.002 A 
ENDROOT
BRANCH   3  18
ATOM     18  C   UNL d   1     -40.941  15.105  21.047  0.00  0.00     0.082 C 
ATOM     19  C   UNL d   1     -40.960  15.921  21.169  0.00  0.00     0.021 C 
ENDBRANCH   3  18
BRANCH  13  20
ATOM     20  O   UNL d   1     -40.708  15.462  16.432  0.00  0.00    -0.326 OA
ATOM     21  C   UNL d   1     -41.460  15.802  16.518  0.00  0.00     0.181 C 
ENDBRANCH  13  20
BRANCH  12  22
ATOM     22  O   UNL d   1     -39.274  14.647  16.166  0.00  0.00    -0.326 OA
ATOM     23  C   UNL d   1     -38.510  14.323  16.078  0.00  0.00     0.181 C 
ENDBRANCH  12  22
TORSDOF 3
ENDMDL
MODEL 4
REMARK VINA RESULT:      -5.9      8.932      9.978
REMARK  3 active torsions:
REMARK  status: ('A' for Active; 'I' for Inactive)
REMARK    1  A    between atoms: C_14  and  N_3 
REMARK    2  A    between atoms: O_17  and  C_12 
REMARK    3  A    between atoms: O_16  and  C_13 
ROOT
ATOM      1  C   UNL d   1     -38.973  14.679  19.853  0.00  0.00     0.166 A 
ATOM      2  C   UNL d   1     -39.638  15.189  19.982  0.00  0.00     0.117 A 
ATOM      3  N   UNL d   1     -38.600  14.565  20.587  0.00  0.00    -0.289 N 
ATOM      4  N   UNL d   1     -38.827  14.408  19.075  0.00  0.00    -0.225 NA
ATOM      5  N   UNL d   1     -40.119  15.404  19.355  0.00  0.00    -0.241 NA
ATOM      6  C   UNL d   1     -39.640  15.362  20.785  0.00  0.00     0.037 A 
ATOM      7  C   UNL d   1     -39.008  14.982  21.153  0.00  0.00     0.067 A 
ATOM      8  C   UNL d   1     -39.305  14.621  18.450  0.00  0.00     0.103 A 
ATOM      9  C   UNL d   1     -39.951  15.119  18.589  0.00  0.00     0.101 A 
ATOM     10  C   UNL d   1     -39.141  14.344  17.712  0.00  0.00     0.047 A 
ATOM     11  C   UNL d   1     -40.432  15.335  17.964  0.00  0.00     0.047 A 
ATOM     12  C   UNL d   1     -40.286  15.063  17.186  0.00  0.00     0.118 A 
ATOM     13  C   UNL d   1     -39.626  14.562  17.083  0.00  0.00     0.118 A 
ATOM     14  C   UNL d   1     -40.155  15.831  21.233  0.00  0.00     0.003 A 
ATOM     15  C   UNL d   1     -38.909  15.082  21.959  0.00  0.00     0.018 A 
ATOM     16  C   UNL d   1     -40.040  15.922  22.047  0.00  0.00     0.000 A 
ATOM     17  C   UNL d   1     -39.408  15.542  22.416  0.00  0.00     0.002 A 
ENDROOT
BRANCH   3  18
ATOM     18  C   UNL d   1     -37.940  14.114  20.713  0.00  0.00     0.082 C 
ATOM     19  C   UNL d   1     -38.017  13.318  20.921  0.00  0.00     0.021 C 
ENDBRANCH   3  18
BRANCH  13  20
ATOM     20  O   UNL d   1     -39.464  14.286  16.340  0.00  0.00    -0.326 OA
ATOM     21  C   UNL d   1     -38.709  14.005  16.142  0.00  0.00     0.181 C 
ENDBRANCH  13  20
BRANCH  12  22
ATOM     22  O   UNL d   1     -40.785  15.289  16.549  0.00  0.00    -0.326 OA
ATOM     23  C   UNL d   1     -41.384  15.855  16.673  0.00  0.00     0.181 C 
ENDBRANCH  12  22
TORSDOF 3
ENDMDL
