MODEL 1
REMARK VINA RESULT:       7.4      0.000      0.000
REMARK  9 active torsions:
REMARK  status: ('A' for Active; 'I' for Inactive)
REMARK    1  A    between atoms: C_19  and  N_1 
REMARK    2  A    between atoms: S_10  and  C_2 
REMARK    3  A    between atoms: N_8  and  C_9 
REMARK    4  A    between atoms: C_20  and  S_10 
REMARK    5  A    between atoms: C_11  and  C_20 
REMARK       I    between atoms: N_13  and  C_11 
REMARK    6  A    between atoms: C_15  and  N_13 
REMARK    7  A    between atoms: C_32  and  C_19 
REMARK    8  A    between atoms: O_25  and  C_22 
REMARK    9  A    between atoms: C_33  and  C_32 
ROOT
ATOM      1  N   UNL d   1     -41.327-121.640 -51.490  0.00  0.00    -0.253 N 
ATOM      2  C   UNL d   1     -41.466-122.311 -51.952  0.00  0.00     0.182 A 
ATOM      3  C   UNL d   1     -41.386-121.677 -50.678  0.00  0.00     0.268 A 
ATOM      4  C   UNL d   1     -41.586-122.397 -50.320  0.00  0.00     0.076 A 
ATOM      5  N   UNL d   1     -41.663-123.021 -51.603  0.00  0.00    -0.222 NA
ATOM      6  C   UNL d   1     -41.724-123.065 -50.781  0.00  0.00     0.088 A 
ATOM      7  C   UNL d   1     -41.644-122.432 -49.512  0.00  0.00     0.024 A 
ATOM      8  C   UNL d   1     -41.845-123.152 -49.140  0.00  0.00     0.065 A 
ATOM      9  O   UNL d   1     -41.247-121.005 -50.215  0.00  0.00    -0.267 OA
ATOM     10  C   UNL d   1     -41.922-123.777 -50.428  0.00  0.00     0.021 A 
ATOM     11  C   UNL d   1     -41.982-123.817 -49.612  0.00  0.00     0.019 A 
ENDROOT
BRANCH   2  12
ATOM     12  S   UNL d   1     -41.404-122.264 -52.789  0.00  0.00    -0.044 SA
BRANCH  12  13
ATOM     13  C   UNL d   1     -41.549-122.930 -53.249  0.00  0.00     0.101 C 
BRANCH  13  14
ATOM     14  C   UNL d   1     -41.858-122.847 -54.004  0.00  0.00     0.286 C 
ATOM     15  N   UNL d   1     -41.943-122.105 -54.331  0.00  0.00    -0.207 NA
ATOM     16  O   UNL d   1     -42.085-123.513 -54.434  0.00  0.00    -0.265 OA
BRANCH  15  17
ATOM     17  C   UNL d   1     -42.255-122.014 -55.094  0.00  0.00     0.087 A 
ATOM     18  C   UNL d   1     -41.765-121.724 -55.689  0.00  0.00     0.043 A 
ATOM     19  C   UNL d   1     -42.078-121.633 -56.453  0.00  0.00     0.096 A 
ATOM     20  C   UNL d   1     -42.859-121.827 -56.609  0.00  0.00     0.024 A 
ATOM     21  C   UNL d   1     -43.342-122.116 -56.005  0.00  0.00     0.004 A 
ATOM     22  C   UNL d   1     -43.037-122.208 -55.251  0.00  0.00     0.019 A 
BRANCH  19  23
ATOM     23  O   UNL d   1     -41.586-121.339 -57.063  0.00  0.00    -0.328 OA
ATOM     24  C   UNL d   1     -41.514-120.536 -57.182  0.00  0.00     0.181 C 
ENDBRANCH  19  23
ENDBRANCH  15  17
ENDBRANCH  13  14
ENDBRANCH  12  13
ENDBRANCH   2  12
BRANCH   1  25
ATOM     25  C   UNL d   1     -41.126-120.920 -51.862  0.00  0.00     0.085 C 
BRANCH  25  26
ATOM     26  C   UNL d   1     -41.444-120.219 -51.582  0.00  0.00     0.019 C 
BRANCH  26  27
ATOM     27  C   UNL d   1     -41.394-119.530 -52.036  0.00  0.00     0.002 C 
ATOM     28  C   UNL d   1     -41.154-118.822 -51.681  0.00  0.00     0.000 C 
ENDBRANCH  26  27
ENDBRANCH  25  26
ENDBRANCH   1  25
BRANCH   8  29
ATOM     29  N   UNL d   1     -41.907-123.199 -48.319  0.00  0.00    -0.300 N 
ATOM     30  C   UNL d   1     -41.313-123.583 -47.885  0.00  0.00     0.107 A 
ATOM     31  C   UNL d   1     -41.385-123.625 -47.062  0.00  0.00     0.142 A 
ATOM     32  O   UNL d   1     -42.041-123.289 -46.676  0.00  0.00    -0.300 OA
ATOM     33  C   UNL d   1     -42.628-122.907 -47.123  0.00  0.00     0.142 A 
ATOM     34  C   UNL d   1     -42.564-122.861 -47.946  0.00  0.00     0.107 A 
ENDBRANCH   8  29
TORSDOF 9
ENDMDL
