MODEL 1
REMARK VINA RESULT:      20.2      0.000      0.000
REMARK  2 active torsions:
REMARK  status: ('A' for Active; 'I' for Inactive)
REMARK    1  A    between atoms: C_6  and  N_1 
REMARK    2  A    between atoms: C_11  and  C_6 
ROOT
ATOM      1  N   UNL d   1     -57.446 -98.758 -44.443  0.00  0.00    -0.251 N 
ATOM      2  C   UNL d   1     -57.510 -98.757 -45.272  0.00  0.00     0.378 A 
ATOM      3  C   UNL d   1     -58.216 -98.757 -44.136  0.00  0.00     0.092 A 
ATOM      4  O   UNL d   1     -58.310 -98.756 -45.478  0.00  0.00    -0.258 OA
ATOM      5  C   UNL d   1     -58.753 -98.756 -44.771  0.00  0.00     0.121 A 
ATOM      6  O   UNL d   1     -56.874 -98.757 -45.795  0.00  0.00    -0.237 OA
ATOM      7  C   UNL d   1     -58.496 -98.758 -43.360  0.00  0.00     0.020 A 
ATOM      8  C   UNL d   1     -59.564 -98.755 -44.623  0.00  0.00     0.026 A 
ATOM      9  C   UNL d   1     -59.310 -98.757 -43.222  0.00  0.00     0.002 A 
ATOM     10  C   UNL d   1     -59.842 -98.756 -43.850  0.00  0.00     0.002 A 
ATOM     11  C   UNL d   1     -59.588 -98.758 -42.437  0.00  0.00     0.000 C 
ENDROOT
BRANCH   1  12
ATOM     12  C   UNL d   1     -56.769 -98.759 -43.971  0.00  0.00     0.085 C 
BRANCH  12  13
ATOM     13  C   UNL d   1     -56.104 -99.178 -44.211  0.00  0.00     0.018 A 
ATOM     14  C   UNL d   1     -56.113 -99.999 -44.203  0.00  0.00     0.002 A 
ATOM     15  C   UNL d   1     -55.440-100.416 -44.445  0.00  0.00     0.000 A 
ATOM     16  C   UNL d   1     -54.768-100.006 -44.693  0.00  0.00     0.000 A 
ATOM     17  C   UNL d   1     -54.766 -99.183 -44.698  0.00  0.00     0.000 A 
ATOM     18  C   UNL d   1     -55.434 -98.766 -44.457  0.00  0.00     0.002 A 
ENDBRANCH  12  13
ENDBRANCH   1  12
TORSDOF 2
ENDMDL
