MODEL 1
REMARK VINA RESULT:      58.5      0.000      0.000
REMARK  5 active torsions:
REMARK  status: ('A' for Active; 'I' for Inactive)
REMARK    1  A    between atoms: S_3  and  N_1 
REMARK    2  A    between atoms: C_7  and  C_4 
REMARK    3  A    between atoms: C_8  and  C_5 
REMARK    4  A    between atoms: O_17  and  C_12 
REMARK    5  A    between atoms: C_20  and  O_17 
ROOT
ATOM      1  N   UNL d   1     -55.345-101.454 -43.915  0.00  0.00    -0.155 N 
ATOM      2  N   UNL d   1     -55.255-101.916 -43.227  0.00  0.00    -0.155 NA
ATOM      3  C   UNL d   1     -55.220-100.683 -43.713  0.00  0.00     0.098 A 
ATOM      4  C   UNL d   1     -55.075-101.408 -42.615  0.00  0.00     0.110 A 
ATOM      5  C   UNL d   1     -55.049-100.616 -42.908  0.00  0.00     0.041 A 
ENDROOT
BRANCH   3   6
ATOM      6  C   UNL d   1     -55.257-100.043 -44.234  0.00  0.00     0.041 A 
ATOM      7  C   UNL d   1     -55.831 -99.470 -44.143  0.00  0.00     0.102 A 
ATOM      8  C   UNL d   1     -55.868 -98.831 -44.663  0.00  0.00     0.025 A 
ATOM      9  C   UNL d   1     -55.331 -98.766 -45.275  0.00  0.00     0.002 A 
ATOM     10  C   UNL d   1     -54.750 -99.342 -45.371  0.00  0.00     0.000 A 
ATOM     11  C   UNL d   1     -54.713 -99.981 -44.850  0.00  0.00     0.004 A 
BRANCH   7  12
ATOM     12  O   UNL d   1     -56.380 -99.529 -43.525  0.00  0.00    -0.305 OA
BRANCH  12  13
ATOM     13  C   UNL d   1     -56.957 -98.953 -43.429  0.00  0.00     0.123 C 
ATOM     14  C   UNL d   1     -57.753 -99.137 -43.563  0.00  0.00     0.029 C 
ENDBRANCH  12  13
ENDBRANCH   7  12
ENDBRANCH   3   6
BRANCH   1  15
ATOM     15  S   UNL d   1     -55.526-101.745 -44.645  0.00  0.00     0.266 S 
ATOM     16  O   UNL d   1     -54.711-101.792 -44.836  0.00  0.00    -0.203 OA
ATOM     17  O   UNL d   1     -56.326-101.713 -44.497  0.00  0.00    -0.203 OA
ATOM     18  C   UNL d   1     -55.692-102.052 -45.417  0.00  0.00     0.165 C 
ENDBRANCH   1  15
BRANCH   4  19
ATOM     19  C   UNL d   1     -54.935-101.608 -41.823  0.00  0.00     0.049 A 
ATOM     20  S   UNL d   1     -54.873-101.048 -41.229  0.00  0.00    -0.085 SA
ATOM     21  C   UNL d   1     -54.734-101.462 -40.527  0.00  0.00     0.035 A 
ATOM     22  C   UNL d   1     -54.712-102.275 -40.692  0.00  0.00     0.007 A 
ATOM     23  C   UNL d   1     -54.839-102.362 -41.510  0.00  0.00     0.009 A 
ENDBRANCH   4  19
TORSDOF 5
ENDMDL
