MODEL 1
REMARK VINA RESULT:      -7.7      0.000      0.000
REMARK  3 active torsions:
REMARK  status: ('A' for Active; 'I' for Inactive)
REMARK    1  A    between atoms: C_21  and  N_1 
REMARK       I    between atoms: N_6  and  C_8 
REMARK    2  A    between atoms: C_8  and  C_9 
REMARK    3  A    between atoms: C_24  and  C_21 
ROOT
ATOM      1  N   UNL d   1     -44.543  11.811  22.732  0.00  0.00    -0.249 N 
ATOM      2  C   UNL d   1     -44.474  12.443  22.219  0.00  0.00     0.208 A 
ATOM      3  C   UNL d   1     -45.231  11.712  23.180  0.00  0.00     0.268 A 
ATOM      4  C   UNL d   1     -45.843  12.260  23.101  0.00  0.00     0.074 A 
ATOM      5  N   UNL d   1     -45.093  12.991  22.143  0.00  0.00    -0.218 NA
ATOM      6  C   UNL d   1     -45.768  12.887  22.590  0.00  0.00     0.088 A 
ATOM      7  C   UNL d   1     -47.076  13.341  22.959  0.00  0.00     0.058 A 
ATOM      8  C   UNL d   1     -46.383  13.432  22.514  0.00  0.00     0.024 A 
ATOM      9  C   UNL d   1     -46.525  12.161  23.547  0.00  0.00     0.006 A 
ATOM     10  S   UNL d   1     -43.777  12.540  21.767  0.00  0.00    -0.038 SA
ATOM     11  O   UNL d   1     -45.303  11.076  23.698  0.00  0.00    -0.267 OA
ATOM     12  C   UNL d   1     -47.145  12.707  23.474  0.00  0.00     0.005 A 
ENDROOT
BRANCH   7  13
ATOM     13  C   UNL d   1     -47.693  13.889  22.883  0.00  0.00     0.265 C 
ATOM     14  N   UNL d   1     -48.379  13.676  22.480  0.00  0.00    -0.272 N 
ATOM     15  C   UNL d   1     -48.990  14.218  22.405  0.00  0.00     0.083 A 
ATOM     16  C   UNL d   1     -48.459  12.925  22.152  0.00  0.00     0.083 A 
ATOM     17  C   UNL d   1     -49.666  14.011  22.009  0.00  0.00     0.018 A 
ATOM     18  C   UNL d   1     -50.277  14.567  21.939  0.00  0.00     0.002 A 
ATOM     19  C   UNL d   1     -49.749  13.262  21.680  0.00  0.00     0.003 A 
ATOM     20  C   UNL d   1     -50.978  14.367  21.534  0.00  0.00     0.000 A 
ATOM     21  C   UNL d   1     -51.063  13.617  21.204  0.00  0.00     0.000 A 
ATOM     22  C   UNL d   1     -50.446  13.069  21.280  0.00  0.00     0.000 A 
ATOM     23  C   UNL d   1     -49.144  12.720  21.753  0.00  0.00     0.019 A 
ATOM     24  O   UNL d   1     -47.613  14.641  23.212  0.00  0.00    -0.267 OA
ENDBRANCH   7  13
BRANCH   1  25
ATOM     25  C   UNL d   1     -43.919  11.257  22.809  0.00  0.00     0.085 C 
BRANCH  25  26
ATOM     26  C   UNL d   1     -43.979  10.651  23.363  0.00  0.00     0.019 C 
ATOM     27  C   UNL d   1     -43.394  10.065  23.384  0.00  0.00     0.002 C 
ENDBRANCH  25  26
ENDBRANCH   1  25
TORSDOF 3
ENDMDL
MODEL 2
REMARK VINA RESULT:      -7.2      1.500      5.232
REMARK  3 active torsions:
REMARK  status: ('A' for Active; 'I' for Inactive)
REMARK    1  A    between atoms: C_21  and  N_1 
REMARK       I    between atoms: N_6  and  C_8 
REMARK    2  A    between atoms: C_8  and  C_9 
REMARK    3  A    between atoms: C_24  and  C_21 
ROOT
ATOM      1  N   UNL d   1     -49.382  13.675  22.049  0.00  0.00    -0.249 N 
ATOM      2  C   UNL d   1     -49.162  13.017  21.618  0.00  0.00     0.208 A 
ATOM      3  C   UNL d   1     -48.815  14.103  22.472  0.00  0.00     0.268 A 
ATOM      4  C   UNL d   1     -48.028  13.855  22.453  0.00  0.00     0.074 A 
ATOM      5  N   UNL d   1     -48.369  12.771  21.601  0.00  0.00    -0.218 NA
ATOM      6  C   UNL d   1     -47.816  13.199  22.022  0.00  0.00     0.088 A 
ATOM      7  C   UNL d   1     -46.453  13.377  22.427  0.00  0.00     0.058 A 
ATOM      8  C   UNL d   1     -47.028  12.955  22.006  0.00  0.00     0.024 A 
ATOM      9  C   UNL d   1     -47.466  14.281  22.874  0.00  0.00     0.006 A 
ATOM     10  S   UNL d   1     -49.738  12.586  21.190  0.00  0.00    -0.038 SA
ATOM     11  O   UNL d   1     -49.033  14.767  22.907  0.00  0.00    -0.267 OA
ATOM     12  C   UNL d   1     -46.674  14.038  22.859  0.00  0.00     0.005 A 
ENDROOT
BRANCH   7  13
ATOM     13  C   UNL d   1     -45.662  13.132  22.410  0.00  0.00     0.265 C 
ATOM     14  N   UNL d   1     -45.455  12.402  22.731  0.00  0.00    -0.272 N 
ATOM     15  C   UNL d   1     -44.672  12.159  22.714  0.00  0.00     0.083 A 
ATOM     16  C   UNL d   1     -46.026  11.913  23.069  0.00  0.00     0.083 A 
ATOM     17  C   UNL d   1     -44.466  11.441  23.030  0.00  0.00     0.018 A 
ATOM     18  C   UNL d   1     -43.672  11.206  23.007  0.00  0.00     0.002 A 
ATOM     19  C   UNL d   1     -45.033  10.952  23.367  0.00  0.00     0.003 A 
ATOM     20  C   UNL d   1     -43.446  10.470  23.328  0.00  0.00     0.000 A 
ATOM     21  C   UNL d   1     -44.013   9.977  23.667  0.00  0.00     0.000 A 
ATOM     22  C   UNL d   1     -44.804  10.222  23.684  0.00  0.00     0.000 A 
ATOM     23  C   UNL d   1     -45.814  11.189  23.386  0.00  0.00     0.019 A 
ATOM     24  O   UNL d   1     -45.091  13.621  22.072  0.00  0.00    -0.267 OA
ENDBRANCH   7  13
BRANCH   1  25
ATOM     25  C   UNL d   1     -50.182  13.924  22.066  0.00  0.00     0.085 C 
BRANCH  25  26
ATOM     26  C   UNL d   1     -50.358  14.717  22.195  0.00  0.00     0.019 C 
ATOM     27  C   UNL d   1     -51.057  15.031  21.878  0.00  0.00     0.002 C 
ENDBRANCH  25  26
ENDBRANCH   1  25
TORSDOF 3
ENDMDL
MODEL 3
REMARK VINA RESULT:      -6.7      7.960      9.557
REMARK  3 active torsions:
REMARK  status: ('A' for Active; 'I' for Inactive)
REMARK    1  A    between atoms: C_21  and  N_1 
REMARK       I    between atoms: N_6  and  C_8 
REMARK    2  A    between atoms: C_8  and  C_9 
REMARK    3  A    between atoms: C_24  and  C_21 
ROOT
ATOM      1  N   UNL d   1     -39.372  14.836  21.793  0.00  0.00    -0.249 N 
ATOM      2  C   UNL d   1     -38.895  15.447  21.535  0.00  0.00     0.208 A 
ATOM      3  C   UNL d   1     -39.813  14.397  21.249  0.00  0.00     0.268 A 
ATOM      4  C   UNL d   1     -39.764  14.584  20.447  0.00  0.00     0.074 A 
ATOM      5  N   UNL d   1     -38.849  15.633  20.728  0.00  0.00    -0.218 NA
ATOM      6  C   UNL d   1     -39.288  15.194  20.197  0.00  0.00     0.088 A 
ATOM      7  C   UNL d   1     -39.681  14.943  18.843  0.00  0.00     0.058 A 
ATOM      8  C   UNL d   1     -39.242  15.378  19.395  0.00  0.00     0.024 A 
ATOM      9  C   UNL d   1     -40.203  14.147  19.908  0.00  0.00     0.006 A 
ATOM     10  S   UNL d   1     -38.449  15.890  22.088  0.00  0.00    -0.038 SA
ATOM     11  O   UNL d   1     -40.295  13.780  21.505  0.00  0.00    -0.267 OA
ATOM     12  C   UNL d   1     -40.160  14.330  19.101  0.00  0.00     0.005 A 
ENDROOT
BRANCH   7  13
ATOM     13  C   UNL d   1     -39.634  15.129  18.036  0.00  0.00     0.265 C 
ATOM     14  N   UNL d   1     -39.220  14.632  17.527  0.00  0.00    -0.272 N 
ATOM     15  C   UNL d   1     -39.174  14.815  16.729  0.00  0.00     0.083 A 
ATOM     16  C   UNL d   1     -38.851  13.952  17.810  0.00  0.00     0.083 A 
ATOM     17  C   UNL d   1     -38.767  14.328  16.226  0.00  0.00     0.018 A 
ATOM     18  C   UNL d   1     -38.727  14.523  15.422  0.00  0.00     0.002 A 
ATOM     19  C   UNL d   1     -38.397  13.649  16.506  0.00  0.00     0.003 A 
ATOM     20  C   UNL d   1     -38.311  14.030  14.893  0.00  0.00     0.000 A 
ATOM     21  C   UNL d   1     -37.940  13.348  15.171  0.00  0.00     0.000 A 
ATOM     22  C   UNL d   1     -37.986  13.163  15.978  0.00  0.00     0.000 A 
ATOM     23  C   UNL d   1     -38.440  13.462  17.299  0.00  0.00     0.019 A 
ATOM     24  O   UNL d   1     -40.004  15.810  17.753  0.00  0.00    -0.267 OA
ENDBRANCH   7  13
BRANCH   1  25
ATOM     25  C   UNL d   1     -39.419  14.648  22.608  0.00  0.00     0.085 C 
BRANCH  25  26
ATOM     26  C   UNL d   1     -38.741  14.410  23.010  0.00  0.00     0.019 C 
ATOM     27  C   UNL d   1     -38.820  13.952  23.695  0.00  0.00     0.002 C 
ENDBRANCH  25  26
ENDBRANCH   1  25
TORSDOF 3
ENDMDL
MODEL 4
REMARK VINA RESULT:      -6.5      8.468      9.992
REMARK  3 active torsions:
REMARK  status: ('A' for Active; 'I' for Inactive)
REMARK    1  A    between atoms: C_21  and  N_1 
REMARK       I    between atoms: N_6  and  C_8 
REMARK    2  A    between atoms: C_8  and  C_9 
REMARK    3  A    between atoms: C_24  and  C_21 
ROOT
ATOM      1  N   UNL d   1     -38.283  14.075  16.512  0.00  0.00    -0.249 N 
ATOM      2  C   UNL d   1     -38.412  13.430  16.996  0.00  0.00     0.208 A 
ATOM      3  C   UNL d   1     -38.492  14.833  16.766  0.00  0.00     0.268 A 
ATOM      4  C   UNL d   1     -38.830  14.928  17.512  0.00  0.00     0.074 A 
ATOM      5  N   UNL d   1     -38.753  13.529  17.746  0.00  0.00    -0.218 NA
ATOM      6  C   UNL d   1     -38.956  14.282  17.990  0.00  0.00     0.088 A 
ATOM      7  C   UNL d   1     -39.506  15.137  18.999  0.00  0.00     0.058 A 
ATOM      8  C   UNL d   1     -39.294  14.381  18.736  0.00  0.00     0.024 A 
ATOM      9  C   UNL d   1     -39.037  15.682  17.764  0.00  0.00     0.006 A 
ATOM     10  S   UNL d   1     -38.200  12.663  16.736  0.00  0.00    -0.038 SA
ATOM     11  O   UNL d   1     -38.363  15.486  16.280  0.00  0.00    -0.267 OA
ATOM     12  C   UNL d   1     -39.377  15.785  18.513  0.00  0.00     0.005 A 
ENDROOT
BRANCH   7  13
ATOM     13  C   UNL d   1     -39.846  15.236  19.748  0.00  0.00     0.265 C 
ATOM     14  N   UNL d   1     -39.363  15.381  20.399  0.00  0.00    -0.272 N 
ATOM     15  C   UNL d   1     -39.699  15.479  21.140  0.00  0.00     0.083 A 
ATOM     16  C   UNL d   1     -38.545  15.430  20.313  0.00  0.00     0.083 A 
ATOM     17  C   UNL d   1     -39.226  15.622  21.782  0.00  0.00     0.018 A 
ATOM     18  C   UNL d   1     -39.577  15.719  22.526  0.00  0.00     0.002 A 
ATOM     19  C   UNL d   1     -38.410  15.671  21.700  0.00  0.00     0.003 A 
ATOM     20  C   UNL d   1     -39.101  15.867  23.195  0.00  0.00     0.000 A 
ATOM     21  C   UNL d   1     -38.282  15.917  23.116  0.00  0.00     0.000 A 
ATOM     22  C   UNL d   1     -37.942  15.818  22.366  0.00  0.00     0.000 A 
ATOM     23  C   UNL d   1     -38.070  15.574  20.964  0.00  0.00     0.019 A 
ATOM     24  O   UNL d   1     -40.665  15.187  19.833  0.00  0.00    -0.267 OA
ENDBRANCH   7  13
BRANCH   1  25
ATOM     25  C   UNL d   1     -37.939  13.975  15.754  0.00  0.00     0.085 C 
BRANCH  25  26
ATOM     26  C   UNL d   1     -38.396  13.679  15.136  0.00  0.00     0.019 C 
ATOM     27  C   UNL d   1     -38.020  13.428  14.442  0.00  0.00     0.002 C 
ENDBRANCH  25  26
ENDBRANCH   1  25
TORSDOF 3
ENDMDL
MODEL 5
REMARK VINA RESULT:      -6.3      1.567      5.281
REMARK  3 active torsions:
REMARK  status: ('A' for Active; 'I' for Inactive)
REMARK    1  A    between atoms: C_21  and  N_1 
REMARK       I    between atoms: N_6  and  C_8 
REMARK    2  A    between atoms: C_8  and  C_9 
REMARK    3  A    between atoms: C_24  and  C_21 
ROOT
ATOM      1  N   UNL d   1     -49.714  13.557  22.449  0.00  0.00    -0.249 N 
ATOM      2  C   UNL d   1     -49.632  12.824  22.099  0.00  0.00     0.208 A 
ATOM      3  C   UNL d   1     -49.088  13.885  22.878  0.00  0.00     0.268 A 
ATOM      4  C   UNL d   1     -48.383  13.462  22.946  0.00  0.00     0.074 A 
ATOM      5  N   UNL d   1     -48.921  12.402  22.170  0.00  0.00    -0.218 NA
ATOM      6  C   UNL d   1     -48.307  12.733  22.595  0.00  0.00     0.088 A 
ATOM      7  C   UNL d   1     -46.968  12.634  23.093  0.00  0.00     0.058 A 
ATOM      8  C   UNL d   1     -47.600  12.313  22.665  0.00  0.00     0.024 A 
ATOM      9  C   UNL d   1     -47.761  13.789  23.372  0.00  0.00     0.006 A 
ATOM     10  S   UNL d   1     -50.268  12.494  21.666  0.00  0.00    -0.038 SA
ATOM     11  O   UNL d   1     -49.167  14.624  23.232  0.00  0.00    -0.267 OA
ATOM     12  C   UNL d   1     -47.050  13.370  23.444  0.00  0.00     0.005 A 
ENDROOT
BRANCH   7  13
ATOM     13  C   UNL d   1     -46.258  12.212  23.163  0.00  0.00     0.265 C 
ATOM     14  N   UNL d   1     -45.607  12.431  22.708  0.00  0.00    -0.272 N 
ATOM     15  C   UNL d   1     -44.905  12.013  22.778  0.00  0.00     0.083 A 
ATOM     16  C   UNL d   1     -45.654  13.064  22.183  0.00  0.00     0.083 A 
ATOM     17  C   UNL d   1     -44.263  12.226  22.331  0.00  0.00     0.018 A 
ATOM     18  C   UNL d   1     -43.558  11.797  22.410  0.00  0.00     0.002 A 
ATOM     19  C   UNL d   1     -44.307  12.857  21.806  0.00  0.00     0.003 A 
ATOM     20  C   UNL d   1     -42.891  12.006  21.956  0.00  0.00     0.000 A 
ATOM     21  C   UNL d   1     -42.932  12.639  21.429  0.00  0.00     0.000 A 
ATOM     22  C   UNL d   1     -43.642  13.061  21.358  0.00  0.00     0.000 A 
ATOM     23  C   UNL d   1     -45.004  13.276  21.734  0.00  0.00     0.019 A 
ATOM     24  O   UNL d   1     -46.211  11.578  23.689  0.00  0.00    -0.267 OA
ENDBRANCH   7  13
BRANCH   1  25
ATOM     25  C   UNL d   1     -50.432  13.984  22.378  0.00  0.00     0.085 C 
BRANCH  25  26
ATOM     26  C   UNL d   1     -50.437  14.795  22.517  0.00  0.00     0.019 C 
ATOM     27  C   UNL d   1     -51.060  15.251  22.215  0.00  0.00     0.002 C 
ENDBRANCH  25  26
ENDBRANCH   1  25
TORSDOF 3
ENDMDL
MODEL 6
REMARK VINA RESULT:      -4.8      8.024      8.805
REMARK  3 active torsions:
REMARK  status: ('A' for Active; 'I' for Inactive)
REMARK    1  A    between atoms: C_21  and  N_1 
REMARK       I    between atoms: N_6  and  C_8 
REMARK    2  A    between atoms: C_8  and  C_9 
REMARK    3  A    between atoms: C_24  and  C_21 
ROOT
ATOM      1  N   UNL d   1     -38.495  13.782  21.921  0.00  0.00    -0.249 N 
ATOM      2  C   UNL d   1     -38.242  13.287  21.322  0.00  0.00     0.208 A 
ATOM      3  C   UNL d   1     -38.783  14.536  21.741  0.00  0.00     0.268 A 
ATOM      4  C   UNL d   1     -38.810  14.778  20.953  0.00  0.00     0.074 A 
ATOM      5  N   UNL d   1     -38.272  13.534  20.531  0.00  0.00    -0.218 NA
ATOM      6  C   UNL d   1     -38.557  14.281  20.363  0.00  0.00     0.088 A 
ATOM      7  C   UNL d   1     -38.873  15.281  19.387  0.00  0.00     0.058 A 
ATOM      8  C   UNL d   1     -38.586  14.527  19.576  0.00  0.00     0.024 A 
ATOM      9  C   UNL d   1     -39.096  15.527  20.777  0.00  0.00     0.006 A 
ATOM     10  S   UNL d   1     -37.951  12.523  21.507  0.00  0.00    -0.038 SA
ATOM     11  O   UNL d   1     -39.039  15.038  22.342  0.00  0.00    -0.267 OA
ATOM     12  C   UNL d   1     -39.127  15.778  19.987  0.00  0.00     0.005 A 
ENDROOT
BRANCH   7  13
ATOM     13  C   UNL d   1     -38.903  15.528  18.596  0.00  0.00     0.265 C 
ATOM     14  N   UNL d   1     -39.610  15.474  18.179  0.00  0.00    -0.272 N 
ATOM     15  C   UNL d   1     -39.639  15.718  17.397  0.00  0.00     0.083 A 
ATOM     16  C   UNL d   1     -40.290  15.176  18.538  0.00  0.00     0.083 A 
ATOM     17  C   UNL d   1     -40.334  15.666  16.984  0.00  0.00     0.018 A 
ATOM     18  C   UNL d   1     -40.352  15.916  16.193  0.00  0.00     0.002 A 
ATOM     19  C   UNL d   1     -41.014  15.370  17.339  0.00  0.00     0.003 A 
ATOM     20  C   UNL d   1     -41.060  15.868  15.757  0.00  0.00     0.000 A 
ATOM     21  C   UNL d   1     -41.744  15.571  16.111  0.00  0.00     0.000 A 
ATOM     22  C   UNL d   1     -41.714  15.324  16.901  0.00  0.00     0.000 A 
ATOM     23  C   UNL d   1     -40.990  15.125  18.117  0.00  0.00     0.019 A 
ATOM     24  O   UNL d   1     -38.222  15.825  18.238  0.00  0.00    -0.267 OA
ENDBRANCH   7  13
BRANCH   1  25
ATOM     25  C   UNL d   1     -38.466  13.532  22.720  0.00  0.00     0.085 C 
BRANCH  25  26
ATOM     26  C   UNL d   1     -39.132  13.193  23.064  0.00  0.00     0.019 C 
ATOM     27  C   UNL d   1     -39.034  12.663  23.695  0.00  0.00     0.002 C 
ENDBRANCH  25  26
ENDBRANCH   1  25
TORSDOF 3
ENDMDL
MODEL 7
REMARK VINA RESULT:      -4.7      7.989     10.012
REMARK  3 active torsions:
REMARK  status: ('A' for Active; 'I' for Inactive)
REMARK    1  A    between atoms: C_21  and  N_1 
REMARK       I    between atoms: N_6  and  C_8 
REMARK    2  A    between atoms: C_8  and  C_9 
REMARK    3  A    between atoms: C_24  and  C_21 
ROOT
ATOM      1  N   UNL d   1     -38.061  14.364  15.356  0.00  0.00    -0.249 N 
ATOM      2  C   UNL d   1     -38.130  15.177  15.405  0.00  0.00     0.208 A 
ATOM      3  C   UNL d   1     -38.109  13.902  16.039  0.00  0.00     0.268 A 
ATOM      4  C   UNL d   1     -38.228  14.272  16.767  0.00  0.00     0.074 A 
ATOM      5  N   UNL d   1     -38.250  15.545  16.139  0.00  0.00    -0.218 NA
ATOM      6  C   UNL d   1     -38.296  15.080  16.809  0.00  0.00     0.088 A 
ATOM      7  C   UNL d   1     -38.465  14.991  18.229  0.00  0.00     0.058 A 
ATOM      8  C   UNL d   1     -38.415  15.447  17.539  0.00  0.00     0.024 A 
ATOM      9  C   UNL d   1     -38.276  13.811  17.445  0.00  0.00     0.006 A 
ATOM     10  S   UNL d   1     -38.081  15.643  14.711  0.00  0.00    -0.038 SA
ATOM     11  O   UNL d   1     -38.040  13.082  15.994  0.00  0.00    -0.267 OA
ATOM     12  C   UNL d   1     -38.395  14.175  18.180  0.00  0.00     0.005 A 
ENDROOT
BRANCH   7  13
ATOM     13  C   UNL d   1     -38.584  15.359  18.962  0.00  0.00     0.265 C 
ATOM     14  N   UNL d   1     -39.293  15.242  19.366  0.00  0.00    -0.272 N 
ATOM     15  C   UNL d   1     -39.411  15.606  20.091  0.00  0.00     0.083 A 
ATOM     16  C   UNL d   1     -39.884  14.764  19.049  0.00  0.00     0.083 A 
ATOM     17  C   UNL d   1     -40.107  15.492  20.490  0.00  0.00     0.018 A 
ATOM     18  C   UNL d   1     -40.215  15.865  21.222  0.00  0.00     0.002 A 
ATOM     19  C   UNL d   1     -40.699  15.016  20.177  0.00  0.00     0.003 A 
ATOM     20  C   UNL d   1     -40.927  15.757  21.644  0.00  0.00     0.000 A 
ATOM     21  C   UNL d   1     -41.522  15.280  21.332  0.00  0.00     0.000 A 
ATOM     22  C   UNL d   1     -41.403  14.912  20.599  0.00  0.00     0.000 A 
ATOM     23  C   UNL d   1     -40.586  14.652  19.456  0.00  0.00     0.019 A 
ATOM     24  O   UNL d   1     -37.992  15.837  19.279  0.00  0.00    -0.267 OA
ENDBRANCH   7  13
BRANCH   1  25
ATOM     25  C   UNL d   1     -37.940  13.992  14.615  0.00  0.00     0.085 C 
BRANCH  25  26
ATOM     26  C   UNL d   1     -38.584  13.684  14.206  0.00  0.00     0.019 C 
ATOM     27  C   UNL d   1     -38.451  13.122  13.611  0.00  0.00     0.002 C 
ENDBRANCH  25  26
ENDBRANCH   1  25
TORSDOF 3
ENDMDL
