MODEL 1
REMARK VINA RESULT:      -2.9      0.000      0.000
REMARK  5 active torsions:
REMARK  status: ('A' for Active; 'I' for Inactive)
REMARK    1  A    between atoms: N_7  and  C_1 
REMARK    2  A    between atoms: C_13  and  C_2 
REMARK    3  A    between atoms: N_4  and  C_9 
REMARK       I    between atoms: C_10  and  N_7 
REMARK       I    between atoms: C_15  and  N_8 
REMARK    4  A    between atoms: C_18  and  C_10 
REMARK    5  A    between atoms: O_27  and  C_13 
ROOT
ATOM      1  C   UNL d   1      32.938  21.782 -21.151  0.00  0.00     0.119 A 
ATOM      2  C   UNL d   1      32.780  22.585 -21.071  0.00  0.00     0.088 A 
ATOM      3  C   UNL d   1      33.003  22.091 -19.850  0.00  0.00     0.049 A 
ATOM      4  C   UNL d   1      32.821  22.775 -20.265  0.00  0.00     0.016 A 
ATOM      5  S   UNL d   1      33.077  21.472 -20.393  0.00  0.00    -0.066 SA
ATOM      6  N   UNL d   1      32.973  22.821 -18.621  0.00  0.00    -0.272 N 
ATOM      7  C   UNL d   1      33.079  22.120 -19.018  0.00  0.00     0.089 A 
ATOM      8  C   UNL d   1      33.047  22.858 -17.799  0.00  0.00     0.265 C 
ATOM      9  C   UNL d   1      32.712  23.495 -19.861  0.00  0.00     0.020 A 
ATOM     10  C   UNL d   1      32.788  23.514 -19.046  0.00  0.00     0.083 A 
ATOM     11  O   UNL d   1      33.230  22.173 -17.379  0.00  0.00    -0.267 OA
ATOM     12  C   UNL d   1      32.941  23.564 -17.396  0.00  0.00     0.066 C 
ENDROOT
BRANCH   1  13
ATOM     13  N   UNL d   1      32.957  21.353 -21.860  0.00  0.00    -0.201 NA
ATOM     14  C   UNL d   1      32.913  20.526 -21.837  0.00  0.00     0.280 C 
ATOM     15  O   UNL d   1      32.851  20.125 -21.119  0.00  0.00    -0.265 OA
BRANCH  14  16
ATOM     16  C   UNL d   1      32.932  20.098 -22.543  0.00  0.00     0.059 A 
ATOM     17  C   UNL d   1      32.663  19.324 -22.553  0.00  0.00     0.022 A 
ATOM     18  C   UNL d   1      32.681  18.897 -23.258  0.00  0.00     0.070 A 
ATOM     19  C   UNL d   1      32.969  19.243 -23.953  0.00  0.00     0.018 A 
ATOM     20  C   UNL d   1      33.241  20.032 -23.932  0.00  0.00     0.002 A 
ATOM     21  C   UNL d   1      33.222  20.460 -23.227  0.00  0.00     0.005 A 
BRANCH  18  22
ATOM     22  N   UNL d   1      32.412  18.112 -23.282  0.00  0.00    -0.242 N 
ATOM     23  C   UNL d   1      32.660  17.474 -22.829  0.00  0.00     0.267 A 
ATOM     24  C   UNL d   1      32.226  16.809 -23.057  0.00  0.00     0.066 A 
ATOM     25  O   UNL d   1      33.233  17.473 -22.248  0.00  0.00    -0.267 OA
ATOM     26  C   UNL d   1      31.712  17.043 -23.651  0.00  0.00     0.066 A 
ATOM     27  C   UNL d   1      31.818  17.867 -23.805  0.00  0.00     0.267 A 
ATOM     28  O   UNL d   1      31.423  18.326 -24.351  0.00  0.00    -0.267 OA
ENDBRANCH  18  22
ENDBRANCH  14  16
ENDBRANCH   1  13
BRANCH   2  29
ATOM     29  C   UNL d   1      32.613  23.102 -21.686  0.00  0.00     0.298 C 
ATOM     30  O   UNL d   1      33.237  23.474 -22.082  0.00  0.00    -0.259 OA
BRANCH  29  31
ATOM     31  O   UNL d   1      31.824  23.248 -21.906  0.00  0.00    -0.296 OA
ATOM     32  C   UNL d   1      31.657  23.668 -22.602  0.00  0.00     0.185 C 
ENDBRANCH  29  31
ENDBRANCH   2  29
TORSDOF 5
ENDMDL
