MODEL 1
REMARK VINA RESULT:      -2.7      0.000      0.000
REMARK  3 active torsions:
REMARK  status: ('A' for Active; 'I' for Inactive)
REMARK    1  A    between atoms: N_5  and  C_1 
REMARK    2  A    between atoms: N_8  and  N_5 
REMARK    3  A    between atoms: C_7  and  N_8 
ROOT
ATOM      1  C   UNL d   1      30.911  16.442 -23.829  0.00  0.00     0.162 A 
ATOM      2  C   UNL d   1      31.045  15.766 -23.379  0.00  0.00     0.299 A 
ATOM      3  N   UNL d   1      30.311  15.453 -23.163  0.00  0.00    -0.207 NA
ATOM      4  C   UNL d   1      30.090  16.551 -23.894  0.00  0.00     0.042 A 
ATOM      5  C   UNL d   1      29.720  15.941 -23.483  0.00  0.00     0.086 A 
ATOM      6  O   UNL d   1      31.784  15.453 -23.177  0.00  0.00    -0.263 OA
ATOM      7  C   UNL d   1      29.640  17.131 -24.277  0.00  0.00     0.003 A 
ATOM      8  C   UNL d   1      28.899  15.910 -23.454  0.00  0.00     0.019 A 
ATOM      9  C   UNL d   1      28.820  17.089 -24.241  0.00  0.00     0.000 A 
ATOM     10  C   UNL d   1      28.448  16.475 -23.827  0.00  0.00     0.002 A 
ENDROOT
BRANCH   1  11
ATOM     11  N   UNL d   1      31.490  16.932 -24.162  0.00  0.00    -0.141 NA
BRANCH  11  12
ATOM     12  N   UNL d   1      31.974  17.392 -23.664  0.00  0.00    -0.115 NA
BRANCH  12  13
ATOM     13  C   UNL d   1      32.511  17.930 -23.997  0.00  0.00     0.260 C 
ATOM     14  S   UNL d   1      32.801  18.562 -23.550  0.00  0.00    -0.034 SA
ATOM     15  N   UNL d   1      32.755  17.826 -24.786  0.00  0.00    -0.113 N 
ENDBRANCH  12  13
ENDBRANCH  11  12
ENDBRANCH   1  11
TORSDOF 3
ENDMDL
MODEL 2
REMARK VINA RESULT:      -2.6      1.277      1.636
REMARK  3 active torsions:
REMARK  status: ('A' for Active; 'I' for Inactive)
REMARK    1  A    between atoms: N_5  and  C_1 
REMARK    2  A    between atoms: N_8  and  N_5 
REMARK    3  A    between atoms: C_7  and  N_8 
ROOT
ATOM      1  C   UNL d   1      30.390  16.866 -24.251  0.00  0.00     0.162 A 
ATOM      2  C   UNL d   1      30.037  17.499 -24.641  0.00  0.00     0.299 A 
ATOM      3  N   UNL d   1      29.224  17.465 -24.497  0.00  0.00    -0.207 NA
ATOM      4  C   UNL d   1      29.796  16.436 -23.863  0.00  0.00     0.042 A 
ATOM      5  C   UNL d   1      29.075  16.805 -24.015  0.00  0.00     0.086 A 
ATOM      6  O   UNL d   1      30.426  18.070 -25.097  0.00  0.00    -0.263 OA
ATOM      7  C   UNL d   1      29.825  15.755 -23.392  0.00  0.00     0.003 A 
ATOM      8  C   UNL d   1      28.384  16.495 -23.696  0.00  0.00     0.019 A 
ATOM      9  C   UNL d   1      29.127  15.455 -23.080  0.00  0.00     0.000 A 
ATOM     10  C   UNL d   1      28.403  15.827 -23.233  0.00  0.00     0.002 A 
ENDROOT
BRANCH   1  11
ATOM     11  N   UNL d   1      31.199  16.684 -24.244  0.00  0.00    -0.141 NA
BRANCH  11  12
ATOM     12  N   UNL d   1      31.736  17.215 -23.892  0.00  0.00    -0.115 NA
BRANCH  12  13
ATOM     13  C   UNL d   1      32.539  17.015 -23.846  0.00  0.00     0.260 C 
ATOM     14  S   UNL d   1      32.999  17.278 -23.211  0.00  0.00    -0.034 SA
ATOM     15  N   UNL d   1      32.878  16.547 -24.444  0.00  0.00    -0.113 N 
ENDBRANCH  12  13
ENDBRANCH  11  12
ENDBRANCH   1  11
TORSDOF 3
ENDMDL
MODEL 3
REMARK VINA RESULT:      -2.3      1.834      3.091
REMARK  3 active torsions:
REMARK  status: ('A' for Active; 'I' for Inactive)
REMARK    1  A    between atoms: N_5  and  C_1 
REMARK    2  A    between atoms: N_8  and  N_5 
REMARK    3  A    between atoms: C_7  and  N_8 
ROOT
ATOM      1  C   UNL d   1      30.665  16.485 -23.910  0.00  0.00     0.162 A 
ATOM      2  C   UNL d   1      31.168  16.102 -23.383  0.00  0.00     0.299 A 
ATOM      3  N   UNL d   1      31.905  16.475 -23.416  0.00  0.00    -0.207 NA
ATOM      4  C   UNL d   1      31.089  17.100 -24.273  0.00  0.00     0.042 A 
ATOM      5  C   UNL d   1      31.855  17.094 -23.968  0.00  0.00     0.086 A 
ATOM      6  O   UNL d   1      30.973  15.456 -22.904  0.00  0.00    -0.263 OA
ATOM      7  C   UNL d   1      30.870  17.661 -24.841  0.00  0.00     0.003 A 
ATOM      8  C   UNL d   1      32.401  17.649 -24.232  0.00  0.00     0.019 A 
ATOM      9  C   UNL d   1      31.425  18.210 -25.096  0.00  0.00     0.000 A 
ATOM     10  C   UNL d   1      32.195  18.203 -24.790  0.00  0.00     0.002 A 
ENDROOT
BRANCH   1  11
ATOM     11  N   UNL d   1      29.872  16.295 -24.056  0.00  0.00    -0.141 NA
BRANCH  11  12
ATOM     12  N   UNL d   1      29.342  16.225 -23.418  0.00  0.00    -0.115 NA
BRANCH  12  13
ATOM     13  C   UNL d   1      28.527  16.174 -23.565  0.00  0.00     0.260 C 
ATOM     14  S   UNL d   1      28.201  15.481 -23.878  0.00  0.00    -0.034 SA
ATOM     15  N   UNL d   1      28.041  16.828 -23.396  0.00  0.00    -0.113 N 
ENDBRANCH  12  13
ENDBRANCH  11  12
ENDBRANCH   1  11
TORSDOF 3
ENDMDL
MODEL 4
REMARK VINA RESULT:      -1.9      3.575      4.417
REMARK  3 active torsions:
REMARK  status: ('A' for Active; 'I' for Inactive)
REMARK    1  A    between atoms: N_5  and  C_1 
REMARK    2  A    between atoms: N_8  and  N_5 
REMARK    3  A    between atoms: C_7  and  N_8 
ROOT
ATOM      1  C   UNL d   1      33.119  19.730 -23.066  0.00  0.00     0.162 A 
ATOM      2  C   UNL d   1      33.139  20.179 -23.755  0.00  0.00     0.299 A 
ATOM      3  N   UNL d   1      33.046  19.667 -24.396  0.00  0.00    -0.207 NA
ATOM      4  C   UNL d   1      33.012  18.934 -23.278  0.00  0.00     0.042 A 
ATOM      5  C   UNL d   1      32.966  18.896 -24.100  0.00  0.00     0.086 A 
ATOM      6  O   UNL d   1      33.237  21.000 -23.799  0.00  0.00    -0.263 OA
ATOM      7  C   UNL d   1      32.950  18.245 -22.823  0.00  0.00     0.003 A 
ATOM      8  C   UNL d   1      32.860  18.168 -24.467  0.00  0.00     0.019 A 
ATOM      9  C   UNL d   1      32.844  17.524 -23.203  0.00  0.00     0.000 A 
ATOM     10  C   UNL d   1      32.799  17.485 -24.029  0.00  0.00     0.002 A 
ENDROOT
BRANCH   1  11
ATOM     11  N   UNL d   1      33.191  20.016 -22.291  0.00  0.00    -0.141 NA
BRANCH  11  12
ATOM     12  N   UNL d   1      32.644  20.575 -22.007  0.00  0.00    -0.115 NA
BRANCH  12  13
ATOM     13  C   UNL d   1      32.682  20.820 -21.215  0.00  0.00     0.260 C 
ATOM     14  S   UNL d   1      32.171  21.407 -20.935  0.00  0.00    -0.034 SA
ATOM     15  N   UNL d   1      33.240  20.471 -20.707  0.00  0.00    -0.113 N 
ENDBRANCH  12  13
ENDBRANCH  11  12
ENDBRANCH   1  11
TORSDOF 3
ENDMDL
MODEL 5
REMARK VINA RESULT:      -1.9      2.558      4.118
REMARK  3 active torsions:
REMARK  status: ('A' for Active; 'I' for Inactive)
REMARK    1  A    between atoms: N_5  and  C_1 
REMARK    2  A    between atoms: N_8  and  N_5 
REMARK    3  A    between atoms: C_7  and  N_8 
ROOT
ATOM      1  C   UNL d   1      33.044  18.404 -23.630  0.00  0.00     0.162 A 
ATOM      2  C   UNL d   1      32.999  18.794 -24.353  0.00  0.00     0.299 A 
ATOM      3  N   UNL d   1      33.041  19.606 -24.207  0.00  0.00    -0.207 NA
ATOM      4  C   UNL d   1      33.113  18.974 -23.031  0.00  0.00     0.042 A 
ATOM      5  C   UNL d   1      33.111  19.717 -23.387  0.00  0.00     0.086 A 
ATOM      6  O   UNL d   1      32.926  18.437 -25.096  0.00  0.00    -0.263 OA
ATOM      7  C   UNL d   1      33.177  18.906 -22.208  0.00  0.00     0.003 A 
ATOM      8  C   UNL d   1      33.174  20.392 -22.921  0.00  0.00     0.019 A 
ATOM      9  C   UNL d   1      33.239  19.588 -21.754  0.00  0.00     0.000 A 
ATOM     10  C   UNL d   1      33.237  20.334 -22.112  0.00  0.00     0.002 A 
ENDROOT
BRANCH   1  11
ATOM     11  N   UNL d   1      33.023  17.583 -23.513  0.00  0.00    -0.141 NA
BRANCH  11  12
ATOM     12  N   UNL d   1      32.371  17.145 -23.791  0.00  0.00    -0.115 NA
BRANCH  12  13
ATOM     13  C   UNL d   1      32.335  16.329 -23.648  0.00  0.00     0.260 C 
ATOM     14  S   UNL d   1      31.607  15.959 -23.523  0.00  0.00    -0.034 SA
ATOM     15  N   UNL d   1      33.040  15.887 -23.632  0.00  0.00    -0.113 N 
ENDBRANCH  12  13
ENDBRANCH  11  12
ENDBRANCH   1  11
TORSDOF 3
ENDMDL
MODEL 6
REMARK VINA RESULT:      -1.9      4.360      5.277
REMARK  3 active torsions:
REMARK  status: ('A' for Active; 'I' for Inactive)
REMARK    1  A    between atoms: N_5  and  C_1 
REMARK    2  A    between atoms: N_8  and  N_5 
REMARK    3  A    between atoms: C_7  and  N_8 
ROOT
ATOM      1  C   UNL d   1      33.228  20.670 -22.031  0.00  0.00     0.162 A 
ATOM      2  C   UNL d   1      33.231  20.133 -21.408  0.00  0.00     0.299 A 
ATOM      3  N   UNL d   1      33.236  19.371 -21.728  0.00  0.00    -0.207 NA
ATOM      4  C   UNL d   1      33.231  20.243 -22.743  0.00  0.00     0.042 A 
ATOM      5  C   UNL d   1      33.237  19.440 -22.556  0.00  0.00     0.086 A 
ATOM      6  O   UNL d   1      33.229  20.321 -20.601  0.00  0.00    -0.263 OA
ATOM      7  C   UNL d   1      33.230  20.488 -23.534  0.00  0.00     0.003 A 
ATOM      8  C   UNL d   1      33.241  18.883 -23.160  0.00  0.00     0.019 A 
ATOM      9  C   UNL d   1      33.235  19.920 -24.127  0.00  0.00     0.000 A 
ATOM     10  C   UNL d   1      33.240  19.114 -23.940  0.00  0.00     0.002 A 
ENDROOT
BRANCH   1  11
ATOM     11  N   UNL d   1      33.222  21.497 -21.966  0.00  0.00    -0.141 NA
BRANCH  11  12
ATOM     12  N   UNL d   1      32.555  21.879 -21.646  0.00  0.00    -0.115 NA
BRANCH  12  13
ATOM     13  C   UNL d   1      32.550  22.705 -21.575  0.00  0.00     0.260 C 
ATOM     14  S   UNL d   1      32.156  23.068 -20.945  0.00  0.00    -0.034 SA
ATOM     15  N   UNL d   1      32.946  23.165 -22.144  0.00  0.00    -0.113 N 
ENDBRANCH  12  13
ENDBRANCH  11  12
ENDBRANCH   1  11
TORSDOF 3
ENDMDL
MODEL 7
REMARK VINA RESULT:      -1.7      2.031      2.613
REMARK  3 active torsions:
REMARK  status: ('A' for Active; 'I' for Inactive)
REMARK    1  A    between atoms: N_5  and  C_1 
REMARK    2  A    between atoms: N_8  and  N_5 
REMARK    3  A    between atoms: C_7  and  N_8 
ROOT
ATOM      1  C   UNL d   1      32.329  17.748 -24.017  0.00  0.00     0.162 A 
ATOM      2  C   UNL d   1      32.065  18.016 -24.749  0.00  0.00     0.299 A 
ATOM      3  N   UNL d   1      31.596  17.424 -25.083  0.00  0.00    -0.207 NA
ATOM      4  C   UNL d   1      32.022  16.987 -23.894  0.00  0.00     0.042 A 
ATOM      5  C   UNL d   1      31.570  16.786 -24.552  0.00  0.00     0.086 A 
ATOM      6  O   UNL d   1      32.239  18.750 -25.092  0.00  0.00    -0.263 OA
ATOM      7  C   UNL d   1      32.102  16.455 -23.264  0.00  0.00     0.003 A 
ATOM      8  C   UNL d   1      31.196  16.055 -24.581  0.00  0.00     0.019 A 
ATOM      9  C   UNL d   1      31.723  15.727 -23.305  0.00  0.00     0.000 A 
ATOM     10  C   UNL d   1      31.268  15.526 -23.967  0.00  0.00     0.002 A 
ENDROOT
BRANCH   1  11
ATOM     11  N   UNL d   1      32.816  18.163 -23.489  0.00  0.00    -0.141 NA
BRANCH  11  12
ATOM     12  N   UNL d   1      32.512  18.824 -23.083  0.00  0.00    -0.115 NA
BRANCH  12  13
ATOM     13  C   UNL d   1      32.998  19.237 -22.553  0.00  0.00     0.260 C 
ATOM     14  S   UNL d   1      33.238  20.010 -22.722  0.00  0.00    -0.034 SA
ATOM     15  N   UNL d   1      33.241  18.866 -21.849  0.00  0.00    -0.113 N 
ENDBRANCH  12  13
ENDBRANCH  11  12
ENDBRANCH   1  11
TORSDOF 3
ENDMDL
MODEL 8
REMARK VINA RESULT:      -1.4      3.108      4.855
REMARK  3 active torsions:
REMARK  status: ('A' for Active; 'I' for Inactive)
REMARK    1  A    between atoms: N_5  and  C_1 
REMARK    2  A    between atoms: N_8  and  N_5 
REMARK    3  A    between atoms: C_7  and  N_8 
ROOT
ATOM      1  C   UNL d   1      33.241  19.775 -22.820  0.00  0.00     0.162 A 
ATOM      2  C   UNL d   1      33.241  19.546 -22.029  0.00  0.00     0.299 A 
ATOM      3  N   UNL d   1      33.241  20.231 -21.566  0.00  0.00    -0.207 NA
ATOM      4  C   UNL d   1      33.241  20.604 -22.850  0.00  0.00     0.042 A 
ATOM      5  C   UNL d   1      33.241  20.886 -22.076  0.00  0.00     0.086 A 
ATOM      6  O   UNL d   1      33.240  18.768 -21.746  0.00  0.00    -0.263 OA
ATOM      7  C   UNL d   1      33.241  21.133 -23.487  0.00  0.00     0.003 A 
ATOM      8  C   UNL d   1      33.241  21.697 -21.938  0.00  0.00     0.019 A 
ATOM      9  C   UNL d   1      33.241  21.941 -23.336  0.00  0.00     0.000 A 
ATOM     10  C   UNL d   1      33.241  22.224 -22.558  0.00  0.00     0.002 A 
ENDROOT
BRANCH   1  11
ATOM     11  N   UNL d   1      33.241  19.269 -23.476  0.00  0.00    -0.141 NA
BRANCH  11  12
ATOM     12  N   UNL d   1      32.645  18.692 -23.550  0.00  0.00    -0.115 NA
BRANCH  12  13
ATOM     13  C   UNL d   1      32.512  18.332 -24.285  0.00  0.00     0.260 C 
ATOM     14  S   UNL d   1      31.788  17.965 -24.446  0.00  0.00    -0.034 SA
ATOM     15  N   UNL d   1      33.113  18.344 -24.860  0.00  0.00    -0.113 N 
ENDBRANCH  12  13
ENDBRANCH  11  12
ENDBRANCH   1  11
TORSDOF 3
ENDMDL
MODEL 9
REMARK VINA RESULT:      -1.3      5.827      6.829
REMARK  3 active torsions:
REMARK  status: ('A' for Active; 'I' for Inactive)
REMARK    1  A    between atoms: N_5  and  C_1 
REMARK    2  A    between atoms: N_8  and  N_5 
REMARK    3  A    between atoms: C_7  and  N_8 
ROOT
ATOM      1  C   UNL d   1      33.201  21.971 -21.172  0.00  0.00     0.162 A 
ATOM      2  C   UNL d   1      33.169  21.150 -21.133  0.00  0.00     0.299 A 
ATOM      3  N   UNL d   1      33.136  20.859 -21.906  0.00  0.00    -0.207 NA
ATOM      4  C   UNL d   1      33.188  22.194 -21.971  0.00  0.00     0.042 A 
ATOM      5  C   UNL d   1      33.148  21.507 -22.425  0.00  0.00     0.086 A 
ATOM      6  O   UNL d   1      33.170  20.694 -20.442  0.00  0.00    -0.263 OA
ATOM      7  C   UNL d   1      33.208  22.936 -22.338  0.00  0.00     0.003 A 
ATOM      8  C   UNL d   1      33.127  21.563 -23.245  0.00  0.00     0.019 A 
ATOM      9  C   UNL d   1      33.187  22.977 -23.158  0.00  0.00     0.000 A 
ATOM     10  C   UNL d   1      33.146  22.287 -23.614  0.00  0.00     0.002 A 
ENDROOT
BRANCH   1  11
ATOM     11  N   UNL d   1      33.240  22.491 -20.528  0.00  0.00    -0.141 NA
BRANCH  11  12
ATOM     12  N   UNL d   1      32.642  22.474 -19.949  0.00  0.00    -0.115 NA
BRANCH  12  13
ATOM     13  C   UNL d   1      32.653  23.027 -19.331  0.00  0.00     0.260 C 
ATOM     14  S   UNL d   1      32.176  23.702 -19.366  0.00  0.00    -0.034 SA
ATOM     15  N   UNL d   1      33.149  22.896 -18.675  0.00  0.00    -0.113 N 
ENDBRANCH  12  13
ENDBRANCH  11  12
ENDBRANCH   1  11
TORSDOF 3
ENDMDL
