MODEL 1
REMARK VINA RESULT:      -7.5      0.000      0.000
REMARK  7 active torsions:
REMARK  status: ('A' for Active; 'I' for Inactive)
REMARK    1  A    between atoms: S_2  and  C_1 
REMARK    2  A    between atoms: N_7  and  S_2 
REMARK    3  A    between atoms: C_8  and  C_3 
REMARK    4  A    between atoms: C_10  and  C_6 
REMARK    5  A    between atoms: O_21  and  C_8 
REMARK    6  A    between atoms: C_17  and  N_9 
REMARK    7  A    between atoms: O_22  and  C_10 
ROOT
ATOM      1  S   UNL d   1      52.250  33.196  52.691  0.00  0.00     0.277 S 
ATOM      2  O   UNL d   1      52.266  33.728  52.060  0.00  0.00    -0.199 OA
ATOM      3  O   UNL d   1      52.957  33.123  52.320  0.00  0.00    -0.199 OA
ENDROOT
BRANCH   1   4
ATOM      4  C   UNL d   1      52.693  32.612  53.088  0.00  0.00     0.139 A 
ATOM      5  C   UNL d   1      53.205  32.827  53.674  0.00  0.00     0.082 A 
ATOM      6  C   UNL d   1      53.556  32.146  53.958  0.00  0.00     0.018 A 
ATOM      7  C   UNL d   1      54.140  32.079  54.582  0.00  0.00     0.001 C 
ATOM      8  C   UNL d   1      53.257  31.508  53.543  0.00  0.00     0.093 A 
ATOM      9  S   UNL d   1      52.711  31.786  52.991  0.00  0.00    -0.069 SA
BRANCH   5  10
ATOM     10  C   UNL d   1      53.387  33.620  53.983  0.00  0.00     0.297 C 
ATOM     11  O   UNL d   1      53.884  34.132  53.558  0.00  0.00    -0.259 OA
BRANCH  10  12
ATOM     12  O   UNL d   1      53.050  33.844  54.711  0.00  0.00    -0.296 OA
ATOM     13  C   UNL d   1      53.350  34.515  55.116  0.00  0.00     0.185 C 
ENDBRANCH  10  12
ENDBRANCH   5  10
BRANCH   8  14
ATOM     14  C   UNL d   1      53.476  30.710  53.667  0.00  0.00     0.302 C 
ATOM     15  O   UNL d   1      54.197  30.434  53.390  0.00  0.00    -0.259 OA
BRANCH  14  16
ATOM     16  O   UNL d   1      52.940  30.210  54.079  0.00  0.00    -0.295 OA
ATOM     17  C   UNL d   1      53.075  29.403  54.157  0.00  0.00     0.185 C 
ENDBRANCH  14  16
ENDBRANCH   8  14
ENDBRANCH   1   4
BRANCH   1  18
ATOM     18  N   UNL d   1      51.514  33.607  52.685  0.00  0.00    -0.226 N 
ATOM     19  C   UNL d   1      50.873  33.396  53.201  0.00  0.00     0.111 A 
ATOM     20  C   UNL d   1      50.159  33.809  53.182  0.00  0.00     0.100 A 
ATOM     21  N   UNL d   1      50.046  34.436  52.665  0.00  0.00    -0.301 N 
ATOM     22  C   UNL d   1      50.668  34.641  52.166  0.00  0.00     0.100 A 
ATOM     23  C   UNL d   1      51.401  34.235  52.169  0.00  0.00     0.111 A 
BRANCH  21  24
ATOM     24  C   UNL d   1      49.363  34.848  52.632  0.00  0.00     0.064 A 
ATOM     25  C   UNL d   1      49.104  35.324  53.249  0.00  0.00     0.018 A 
ATOM     26  C   UNL d   1      48.396  35.746  53.205  0.00  0.00     0.002 A 
ATOM     27  C   UNL d   1      47.941  35.689  52.532  0.00  0.00     0.000 A 
ATOM     28  C   UNL d   1      48.192  35.214  51.907  0.00  0.00     0.002 A 
ATOM     29  C   UNL d   1      48.887  34.798  51.946  0.00  0.00     0.018 A 
ENDBRANCH  21  24
ENDBRANCH   1  18
TORSDOF 7
ENDMDL
MODEL 2
REMARK VINA RESULT:      -7.4      0.966      2.095
REMARK  7 active torsions:
REMARK  status: ('A' for Active; 'I' for Inactive)
REMARK    1  A    between atoms: S_2  and  C_1 
REMARK    2  A    between atoms: N_7  and  S_2 
REMARK    3  A    between atoms: C_8  and  C_3 
REMARK    4  A    between atoms: C_10  and  C_6 
REMARK    5  A    between atoms: O_21  and  C_8 
REMARK    6  A    between atoms: C_17  and  N_9 
REMARK    7  A    between atoms: O_22  and  C_10 
ROOT
ATOM      1  S   UNL d   1      52.347  33.369  52.795  0.00  0.00     0.277 S 
ATOM      2  O   UNL d   1      52.221  33.467  51.985  0.00  0.00    -0.199 OA
ATOM      3  O   UNL d   1      52.992  33.095  52.407  0.00  0.00    -0.199 OA
ENDROOT
BRANCH   1   4
ATOM      4  C   UNL d   1      52.892  33.092  53.361  0.00  0.00     0.139 A 
ATOM      5  C   UNL d   1      53.026  32.299  53.433  0.00  0.00     0.082 A 
ATOM      6  C   UNL d   1      53.580  32.195  54.024  0.00  0.00     0.018 A 
ATOM      7  C   UNL d   1      53.908  31.456  54.311  0.00  0.00     0.001 C 
ATOM      8  C   UNL d   1      53.788  32.929  54.317  0.00  0.00     0.093 A 
ATOM      9  S   UNL d   1      53.363  33.505  53.909  0.00  0.00    -0.069 SA
BRANCH   5  10
ATOM     10  C   UNL d   1      52.673  31.639  52.991  0.00  0.00     0.297 C 
ATOM     11  O   UNL d   1      52.934  31.462  52.222  0.00  0.00    -0.259 OA
BRANCH  10  12
ATOM     12  O   UNL d   1      52.073  31.195  53.359  0.00  0.00    -0.296 OA
ATOM     13  C   UNL d   1      51.963  30.391  53.147  0.00  0.00     0.185 C 
ENDBRANCH  10  12
ENDBRANCH   5  10
BRANCH   8  14
ATOM     14  C   UNL d   1      54.343  33.062  54.930  0.00  0.00     0.302 C 
ATOM     15  O   UNL d   1      54.201  32.770  55.683  0.00  0.00    -0.259 OA
BRANCH  14  16
ATOM     16  O   UNL d   1      55.038  33.498  54.749  0.00  0.00    -0.295 OA
ATOM     17  C   UNL d   1      55.458  33.902  55.329  0.00  0.00     0.185 C 
ENDBRANCH  14  16
ENDBRANCH   8  14
ENDBRANCH   1   4
BRANCH   1  18
ATOM     18  N   UNL d   1      51.587  33.721  52.696  0.00  0.00    -0.226 N 
ATOM     19  C   UNL d   1      51.013  33.744  53.322  0.00  0.00     0.111 A 
ATOM     20  C   UNL d   1      50.274  34.092  53.207  0.00  0.00     0.100 A 
ATOM     21  N   UNL d   1      50.070  34.426  52.486  0.00  0.00    -0.301 N 
ATOM     22  C   UNL d   1      50.626  34.404  51.880  0.00  0.00     0.100 A 
ATOM     23  C   UNL d   1      51.383  34.056  51.975  0.00  0.00     0.111 A 
BRANCH  21  24
ATOM     24  C   UNL d   1      49.360  34.768  52.356  0.00  0.00     0.064 A 
ATOM     25  C   UNL d   1      48.924  34.635  51.674  0.00  0.00     0.018 A 
ATOM     26  C   UNL d   1      48.191  34.993  51.549  0.00  0.00     0.002 A 
ATOM     27  C   UNL d   1      47.891  35.491  52.118  0.00  0.00     0.000 A 
ATOM     28  C   UNL d   1      48.319  35.632  52.807  0.00  0.00     0.002 A 
ATOM     29  C   UNL d   1      49.041  35.282  52.934  0.00  0.00     0.018 A 
ENDBRANCH  21  24
ENDBRANCH   1  18
TORSDOF 7
ENDMDL
MODEL 3
REMARK VINA RESULT:      -6.1      1.383      4.947
REMARK  7 active torsions:
REMARK  status: ('A' for Active; 'I' for Inactive)
REMARK    1  A    between atoms: S_2  and  C_1 
REMARK    2  A    between atoms: N_7  and  S_2 
REMARK    3  A    between atoms: C_8  and  C_3 
REMARK    4  A    between atoms: C_10  and  C_6 
REMARK    5  A    between atoms: O_21  and  C_8 
REMARK    6  A    between atoms: C_17  and  N_9 
REMARK    7  A    between atoms: O_22  and  C_10 
ROOT
ATOM      1  S   UNL d   1      52.484  32.600  52.839  0.00  0.00     0.277 S 
ATOM      2  O   UNL d   1      53.148  32.315  52.440  0.00  0.00    -0.199 OA
ATOM      3  O   UNL d   1      52.681  33.130  52.270  0.00  0.00    -0.199 OA
ENDROOT
BRANCH   1   4
ATOM      4  C   UNL d   1      51.941  33.232  52.872  0.00  0.00     0.139 A 
ATOM      5  C   UNL d   1      52.127  33.896  53.293  0.00  0.00     0.082 A 
ATOM      6  C   UNL d   1      51.498  34.414  53.227  0.00  0.00     0.018 A 
ATOM      7  C   UNL d   1      51.423  35.194  53.572  0.00  0.00     0.001 C 
ATOM      8  C   UNL d   1      50.923  34.065  52.762  0.00  0.00     0.093 A 
ATOM      9  S   UNL d   1      51.188  33.319  52.531  0.00  0.00    -0.069 SA
BRANCH   5  10
ATOM     10  C   UNL d   1      52.845  34.078  53.749  0.00  0.00     0.297 C 
ATOM     11  O   UNL d   1      53.531  34.340  53.362  0.00  0.00    -0.259 OA
BRANCH  10  12
ATOM     12  O   UNL d   1      52.821  33.980  54.575  0.00  0.00    -0.296 OA
ATOM     13  C   UNL d   1      53.400  34.354  55.053  0.00  0.00     0.185 C 
ENDBRANCH  10  12
ENDBRANCH   5  10
BRANCH   8  14
ATOM     14  C   UNL d   1      50.190  34.416  52.561  0.00  0.00     0.302 C 
ATOM     15  O   UNL d   1      49.707  34.723  53.148  0.00  0.00    -0.259 OA
BRANCH  14  16
ATOM     16  O   UNL d   1      49.971  34.442  51.750  0.00  0.00    -0.295 OA
ATOM     17  C   UNL d   1      49.204  34.619  51.515  0.00  0.00     0.185 C 
ENDBRANCH  14  16
ENDBRANCH   8  14
ENDBRANCH   1   4
BRANCH   1  18
ATOM     18  N   UNL d   1      52.694  31.862  53.188  0.00  0.00    -0.226 N 
ATOM     19  C   UNL d   1      53.494  31.676  53.407  0.00  0.00     0.111 A 
ATOM     20  C   UNL d   1      53.681  30.948  53.748  0.00  0.00     0.100 A 
ATOM     21  N   UNL d   1      53.103  30.383  53.886  0.00  0.00    -0.301 N 
ATOM     22  C   UNL d   1      52.328  30.563  53.673  0.00  0.00     0.100 A 
ATOM     23  C   UNL d   1      52.116  31.296  53.325  0.00  0.00     0.111 A 
BRANCH  21  24
ATOM     24  C   UNL d   1      53.265  29.674  54.214  0.00  0.00     0.064 A 
ATOM     25  C   UNL d   1      53.547  29.039  53.778  0.00  0.00     0.018 A 
ATOM     26  C   UNL d   1      53.712  28.309  54.127  0.00  0.00     0.002 A 
ATOM     27  C   UNL d   1      53.592  28.216  54.926  0.00  0.00     0.000 A 
ATOM     28  C   UNL d   1      53.309  28.847  55.375  0.00  0.00     0.002 A 
ATOM     29  C   UNL d   1      53.146  29.565  55.036  0.00  0.00     0.018 A 
ENDBRANCH  21  24
ENDBRANCH   1  18
TORSDOF 7
ENDMDL
MODEL 4
REMARK VINA RESULT:      -4.6      1.859      5.108
REMARK  7 active torsions:
REMARK  status: ('A' for Active; 'I' for Inactive)
REMARK    1  A    between atoms: S_2  and  C_1 
REMARK    2  A    between atoms: N_7  and  S_2 
REMARK    3  A    between atoms: C_8  and  C_3 
REMARK    4  A    between atoms: C_10  and  C_6 
REMARK    5  A    between atoms: O_21  and  C_8 
REMARK    6  A    between atoms: C_17  and  N_9 
REMARK    7  A    between atoms: O_22  and  C_10 
ROOT
ATOM      1  S   UNL d   1      53.165  32.885  53.304  0.00  0.00     0.277 S 
ATOM      2  O   UNL d   1      53.485  32.452  52.679  0.00  0.00    -0.199 OA
ATOM      3  O   UNL d   1      53.309  33.390  52.697  0.00  0.00    -0.199 OA
ENDROOT
BRANCH   1   4
ATOM      4  C   UNL d   1      52.935  33.650  53.542  0.00  0.00     0.139 A 
ATOM      5  C   UNL d   1      52.212  33.936  53.324  0.00  0.00     0.082 A 
ATOM      6  C   UNL d   1      52.141  34.689  53.634  0.00  0.00     0.018 A 
ATOM      7  C   UNL d   1      51.477  35.226  53.559  0.00  0.00     0.001 C 
ATOM      8  C   UNL d   1      52.825  34.866  54.044  0.00  0.00     0.093 A 
ATOM      9  S   UNL d   1      53.336  34.221  53.995  0.00  0.00    -0.069 SA
BRANCH   5  10
ATOM     10  C   UNL d   1      51.589  33.556  52.851  0.00  0.00     0.297 C 
ATOM     11  O   UNL d   1      51.645  33.536  52.023  0.00  0.00    -0.259 OA
BRANCH  10  12
ATOM     12  O   UNL d   1      50.942  33.218  53.251  0.00  0.00    -0.296 OA
ATOM     13  C   UNL d   1      50.207  33.136  52.855  0.00  0.00     0.185 C 
ENDBRANCH  10  12
ENDBRANCH   5  10
BRANCH   8  14
ATOM     14  C   UNL d   1      52.972  35.587  54.444  0.00  0.00     0.302 C 
ATOM     15  O   UNL d   1      52.499  35.810  55.076  0.00  0.00    -0.259 OA
BRANCH  14  16
ATOM     16  O   UNL d   1      53.610  36.066  54.179  0.00  0.00    -0.295 OA
ATOM     17  C   UNL d   1      53.877  36.709  54.614  0.00  0.00     0.185 C 
ENDBRANCH  14  16
ENDBRANCH   8  14
ENDBRANCH   1   4
BRANCH   1  18
ATOM     18  N   UNL d   1      53.216  32.081  53.550  0.00  0.00    -0.226 N 
ATOM     19  C   UNL d   1      53.015  31.436  53.035  0.00  0.00     0.111 A 
ATOM     20  C   UNL d   1      53.070  30.654  53.293  0.00  0.00     0.100 A 
ATOM     21  N   UNL d   1      53.320  30.474  54.053  0.00  0.00    -0.301 N 
ATOM     22  C   UNL d   1      53.515  31.100  54.552  0.00  0.00     0.100 A 
ATOM     23  C   UNL d   1      53.466  31.901  54.311  0.00  0.00     0.111 A 
BRANCH  21  24
ATOM     24  C   UNL d   1      53.380  29.725  54.320  0.00  0.00     0.064 A 
ATOM     25  C   UNL d   1      53.668  29.112  53.856  0.00  0.00     0.018 A 
ATOM     26  C   UNL d   1      53.725  28.340  54.142  0.00  0.00     0.002 A 
ATOM     27  C   UNL d   1      53.491  28.181  54.904  0.00  0.00     0.000 A 
ATOM     28  C   UNL d   1      53.200  28.788  55.379  0.00  0.00     0.002 A 
ATOM     29  C   UNL d   1      53.141  29.548  55.103  0.00  0.00     0.018 A 
ENDBRANCH  21  24
ENDBRANCH   1  18
TORSDOF 7
ENDMDL
