MODEL 1
REMARK VINA RESULT:      -2.8      0.000      0.000
REMARK  9 active torsions:
REMARK  status: ('A' for Active; 'I' for Inactive)
REMARK    1  A    between atoms: C_27  and  N_1 
REMARK    2  A    between atoms: S_11  and  C_2 
REMARK    3  A    between atoms: C_28  and  S_11 
REMARK    4  A    between atoms: C_18  and  C_28 
REMARK    5  A    between atoms: C_19  and  C_35 
REMARK       I    between atoms: N_23  and  C_19 
REMARK    6  A    between atoms: C_32  and  N_23 
REMARK    7  A    between atoms: C_34  and  C_27 
REMARK    8  A    between atoms: C_30  and  C_32 
REMARK    9  A    between atoms: C_35  and  C_34 
ROOT
ATOM      1  N   UNL d   1      59.086  -9.769  31.277  0.00  0.00    -0.253 N 
ATOM      2  C   UNL d   1      59.508  -9.794  30.571  0.00  0.00     0.182 A 
ATOM      3  C   UNL d   1      58.254  -9.746  31.259  0.00  0.00     0.268 A 
ATOM      4  C   UNL d   1      57.852  -9.749  30.539  0.00  0.00     0.076 A 
ATOM      5  N   UNL d   1      59.092  -9.797  29.857  0.00  0.00    -0.222 NA
ATOM      6  C   UNL d   1      58.274  -9.775  29.833  0.00  0.00     0.090 A 
ATOM      7  C   UNL d   1      57.024  -9.726  30.523  0.00  0.00     0.033 A 
ATOM      8  C   UNL d   1      57.850  -9.777  29.115  0.00  0.00     0.046 A 
ATOM      9  C   UNL d   1      56.603  -9.729  29.792  0.00  0.00     0.119 A 
ATOM     10  C   UNL d   1      57.025  -9.755  29.086  0.00  0.00     0.121 A 
ATOM     11  O   UNL d   1      57.832  -9.720  31.965  0.00  0.00    -0.267 OA
ATOM     12  O   UNL d   1      55.786  -9.711  29.594  0.00  0.00    -0.300 OA
ATOM     13  O   UNL d   1      56.466  -9.752  28.466  0.00  0.00    -0.299 OA
ATOM     14  C   UNL d   1      55.697  -9.724  28.772  0.00  0.00     0.304 A 
ENDROOT
BRANCH   1  15
ATOM     15  C   UNL d   1      59.506  -9.766  32.008  0.00  0.00     0.085 C 
BRANCH  15  16
ATOM     16  C   UNL d   1      59.089  -9.809  32.707  0.00  0.00     0.024 C 
BRANCH  16  17
ATOM     17  C   UNL d   1      59.471  -9.624  33.420  0.00  0.00     0.064 C 
BRANCH  17  18
ATOM     18  C   UNL d   1      60.293  -9.603  33.458  0.00  0.00     0.279 C 
ATOM     19  N   UNL d   1      60.666  -9.416  34.171  0.00  0.00    -0.206 NA
ATOM     20  O   UNL d   1      60.741  -9.766  32.790  0.00  0.00    -0.265 OA
BRANCH  19  21
ATOM     21  C   UNL d   1      60.217  -9.251  34.841  0.00  0.00     0.102 C 
BRANCH  21  22
ATOM     22  C   UNL d   1      60.304  -8.527  35.220  0.00  0.00     0.021 A 
ATOM     23  C   UNL d   1      59.646  -8.036  35.311  0.00  0.00     0.028 A 
ATOM     24  C   UNL d   1      59.733  -7.313  35.690  0.00  0.00     0.119 A 
ATOM     25  O   UNL d   1      59.192  -6.714  35.862  0.00  0.00    -0.300 OA
ATOM     26  C   UNL d   1      60.468  -7.080  35.976  0.00  0.00     0.119 A 
ATOM     27  C   UNL d   1      59.597  -6.114  36.253  0.00  0.00     0.304 A 
ATOM     28  O   UNL d   1      60.387  -6.339  36.325  0.00  0.00    -0.300 OA
ATOM     29  C   UNL d   1      61.121  -7.577  35.881  0.00  0.00     0.026 A 
ATOM     30  C   UNL d   1      61.036  -8.296  35.505  0.00  0.00     0.004 A 
ENDBRANCH  21  22
ENDBRANCH  19  21
ENDBRANCH  17  18
ENDBRANCH  16  17
ENDBRANCH  15  16
ENDBRANCH   1  15
BRANCH   2  31
ATOM     31  S   UNL d   1      60.344  -9.817  30.606  0.00  0.00    -0.044 SA
BRANCH  31  32
ATOM     32  C   UNL d   1      60.784  -9.684  29.913  0.00  0.00     0.102 C 
BRANCH  32  33
ATOM     33  C   UNL d   1      60.947  -8.910  29.674  0.00  0.00     0.303 C 
ATOM     34  O   UNL d   1      61.092  -8.330  30.240  0.00  0.00    -0.263 OA
ATOM     35  N   UNL d   1      60.964  -8.731  28.873  0.00  0.00    -0.102 N 
ENDBRANCH  32  33
ENDBRANCH  31  32
ENDBRANCH   2  31
TORSDOF 9
ENDMDL
