MODEL 1
REMARK VINA RESULT:      -1.8      0.000      0.000
REMARK  9 active torsions:
REMARK  status: ('A' for Active; 'I' for Inactive)
REMARK       I    between atoms: N_2  and  C_1 
REMARK    1  A    between atoms: C_16  and  C_1 
REMARK    2  A    between atoms: C_8  and  N_2 
REMARK    3  A    between atoms: N_4  and  C_3 
REMARK    4  A    between atoms: C_17  and  N_4 
REMARK    5  A    between atoms: C_18  and  N_4 
REMARK    6  A    between atoms: C_12  and  O_14 
REMARK    7  A    between atoms: O_14  and  C_21 
REMARK    8  A    between atoms: C_23  and  C_16 
REMARK    9  A    between atoms: C_21  and  C_23 
ROOT
ATOM      1  C   UNL d   1     -41.386-123.046 -51.431  0.00  0.00     0.328 C 
ATOM      2  N   UNL d   1     -41.517-122.862 -52.236  0.00  0.00    -0.365 NA
ATOM      3  O   UNL d   1     -41.128-123.795 -51.224  0.00  0.00    -0.251 OA
ENDROOT
BRANCH   1   4
ATOM      4  C   UNL d   1     -41.517-122.479 -50.856  0.00  0.00     0.078 C 
BRANCH   4   5
ATOM      5  C   UNL d   1     -41.150-122.539 -50.126  0.00  0.00     0.033 C 
BRANCH   5   6
ATOM      6  C   UNL d   1     -41.481-123.003 -49.519  0.00  0.00     0.123 C 
BRANCH   6   7
ATOM      7  O   UNL d   1     -41.845-122.641 -48.873  0.00  0.00    -0.305 OA
BRANCH   7   8
ATOM      8  C   UNL d   1     -41.849-123.030 -48.148  0.00  0.00     0.100 A 
ATOM      9  C   UNL d   1     -42.591-123.202 -47.775  0.00  0.00     0.025 A 
ATOM     10  C   UNL d   1     -42.589-123.596 -47.038  0.00  0.00     0.002 A 
ATOM     11  C   UNL d   1     -43.313-123.757 -46.687  0.00  0.00     0.000 C 
ATOM     12  C   UNL d   1     -41.888-123.817 -46.676  0.00  0.00     0.000 A 
ATOM     13  C   UNL d   1     -41.166-123.651 -47.037  0.00  0.00     0.002 A 
ATOM     14  C   UNL d   1     -41.139-123.254 -47.780  0.00  0.00     0.025 A 
ENDBRANCH   7   8
ENDBRANCH   6   7
ENDBRANCH   5   6
ENDBRANCH   4   5
ENDBRANCH   1   4
BRANCH   2  15
ATOM     15  C   UNL d   1     -41.647-122.674 -53.025  0.00  0.00     0.135 A 
ATOM     16  C   UNL d   1     -41.402-123.181 -53.630  0.00  0.00     0.034 A 
ATOM     17  C   UNL d   1     -41.534-122.989 -54.407  0.00  0.00     0.020 A 
ATOM     18  C   UNL d   1     -41.912-122.289 -54.609  0.00  0.00     0.064 A 
ATOM     19  C   UNL d   1     -42.164-121.768 -54.006  0.00  0.00     0.020 A 
ATOM     20  C   UNL d   1     -42.033-121.958 -53.214  0.00  0.00     0.034 A 
BRANCH  18  21
ATOM     21  N   UNL d   1     -42.049-122.088 -55.400  0.00  0.00    -0.304 N 
BRANCH  21  22
ATOM     22  C   UNL d   1     -41.720-121.385 -55.706  0.00  0.00     0.080 C 
ATOM     23  C   UNL d   1     -41.757-121.229 -56.515  0.00  0.00     0.021 C 
ENDBRANCH  21  22
BRANCH  21  24
ATOM     24  C   UNL d   1     -42.503-122.569 -55.887  0.00  0.00     0.080 C 
ATOM     25  C   UNL d   1     -43.286-122.377 -56.035  0.00  0.00     0.021 C 
ENDBRANCH  21  24
ENDBRANCH  18  21
ENDBRANCH   2  15
TORSDOF 9
ENDMDL
MODEL 2
REMARK VINA RESULT:      -1.5      1.372      6.776
REMARK  9 active torsions:
REMARK  status: ('A' for Active; 'I' for Inactive)
REMARK       I    between atoms: N_2  and  C_1 
REMARK    1  A    between atoms: C_16  and  C_1 
REMARK    2  A    between atoms: C_8  and  N_2 
REMARK    3  A    between atoms: N_4  and  C_3 
REMARK    4  A    between atoms: C_17  and  N_4 
REMARK    5  A    between atoms: C_18  and  N_4 
REMARK    6  A    between atoms: C_12  and  O_14 
REMARK    7  A    between atoms: O_14  and  C_21 
REMARK    8  A    between atoms: C_23  and  C_16 
REMARK    9  A    between atoms: C_21  and  C_23 
ROOT
ATOM      1  C   UNL d   1     -41.489-123.115 -51.742  0.00  0.00     0.328 C 
ATOM      2  N   UNL d   1     -41.604-123.227 -50.922  0.00  0.00    -0.365 NA
ATOM      3  O   UNL d   1     -41.213-123.735 -52.201  0.00  0.00    -0.251 OA
ENDROOT
BRANCH   1   4
ATOM      4  C   UNL d   1     -41.652-122.389 -52.083  0.00  0.00     0.078 C 
BRANCH   4   5
ATOM      5  C   UNL d   1     -41.317-122.186 -52.802  0.00  0.00     0.033 C 
BRANCH   5   6
ATOM      6  C   UNL d   1     -41.763-122.211 -53.504  0.00  0.00     0.123 C 
BRANCH   6   7
ATOM      7  O   UNL d   1     -41.432-121.955 -54.215  0.00  0.00    -0.305 OA
BRANCH   7   8
ATOM      8  C   UNL d   1     -41.887-121.980 -54.899  0.00  0.00     0.100 A 
ATOM      9  C   UNL d   1     -41.620-121.567 -55.590  0.00  0.00     0.025 A 
ATOM     10  C   UNL d   1     -42.086-121.596 -56.283  0.00  0.00     0.002 A 
ATOM     11  C   UNL d   1     -41.816-121.192 -56.944  0.00  0.00     0.000 C 
ATOM     12  C   UNL d   1     -42.790-122.014 -56.304  0.00  0.00     0.000 A 
ATOM     13  C   UNL d   1     -43.052-122.416 -55.633  0.00  0.00     0.002 A 
ATOM     14  C   UNL d   1     -42.601-122.403 -54.921  0.00  0.00     0.025 A 
ENDBRANCH   7   8
ENDBRANCH   6   7
ENDBRANCH   5   6
ENDBRANCH   4   5
ENDBRANCH   1   4
BRANCH   2  15
ATOM     15  C   UNL d   1     -41.719-123.329 -50.116  0.00  0.00     0.135 A 
ATOM     16  C   UNL d   1     -42.413-123.071 -49.747  0.00  0.00     0.034 A 
ATOM     17  C   UNL d   1     -42.520-123.176 -48.950  0.00  0.00     0.020 A 
ATOM     18  C   UNL d   1     -41.943-123.539 -48.493  0.00  0.00     0.064 A 
ATOM     19  C   UNL d   1     -41.238-123.803 -48.853  0.00  0.00     0.020 A 
ATOM     20  C   UNL d   1     -41.123-123.700 -49.664  0.00  0.00     0.034 A 
BRANCH  18  21
ATOM     21  N   UNL d   1     -42.047-123.648 -47.679  0.00  0.00    -0.304 N 
BRANCH  21  22
ATOM     22  C   UNL d   1     -41.378-123.671 -47.180  0.00  0.00     0.080 C 
ATOM     23  C   UNL d   1     -41.208-123.033 -46.687  0.00  0.00     0.021 C 
ENDBRANCH  21  22
BRANCH  21  24
ATOM     24  C   UNL d   1     -42.797-123.733 -47.354  0.00  0.00     0.080 C 
ATOM     25  C   UNL d   1     -43.004-123.302 -46.688  0.00  0.00     0.021 C 
ENDBRANCH  21  24
ENDBRANCH  18  21
ENDBRANCH   2  15
TORSDOF 9
ENDMDL
