MODEL 1
REMARK VINA RESULT:       0.6      0.000      0.000
REMARK  5 active torsions:
REMARK  status: ('A' for Active; 'I' for Inactive)
REMARK    1  A    between atoms: O_5  and  C_1 
REMARK    2  A    between atoms: C_10  and  C_2 
REMARK    3  A    between atoms: C_3  and  O_5 
REMARK    4  A    between atoms: C_6  and  C_3 
REMARK    5  A    between atoms: N_11  and  C_10 
ROOT
ATOM      1  C   UNL d   1      31.917  17.745 -23.795  0.00  0.00     0.122 A 
ATOM      2  C   UNL d   1      31.344  17.638 -24.379  0.00  0.00     0.043 A 
ATOM      3  C   UNL d   1      32.295  17.091 -23.464  0.00  0.00     0.105 A 
ATOM      4  C   UNL d   1      32.101  16.331 -23.717  0.00  0.00     0.030 A 
ATOM      5  C   UNL d   1      31.530  16.233 -24.298  0.00  0.00     0.059 A 
ATOM      6  C   UNL d   1      31.150  16.878 -24.631  0.00  0.00     0.015 A 
ATOM      7  N   UNL d   1      32.862  17.201 -22.885  0.00  0.00    -0.242 NA
ATOM      8 CL   UNL d   1      31.350  15.453 -24.538  0.00  0.00    -0.082 Cl
ATOM      9  C   UNL d   1      32.476  15.689 -23.388  0.00  0.00     0.004 A 
ATOM     10  C   UNL d   1      33.240  16.547 -22.555  0.00  0.00     0.099 A 
ATOM     11  C   UNL d   1      33.046  15.787 -22.808  0.00  0.00     0.021 A 
ENDROOT
BRANCH   1  12
ATOM     12  O   UNL d   1      32.100  18.430 -23.559  0.00  0.00    -0.271 OA
BRANCH  12  13
ATOM     13  C   UNL d   1      32.717  19.147 -23.748  0.00  0.00     0.301 C 
ATOM     14  O   UNL d   1      33.128  19.103 -24.663  0.00  0.00    -0.259 OA
BRANCH  13  15
ATOM     15  C   UNL d   1      32.876  19.733 -23.193  0.00  0.00     0.074 A 
ATOM     16  C   UNL d   1      33.080  20.499 -23.445  0.00  0.00     0.063 A 
ATOM     17 CL   UNL d   1      33.141  20.740 -24.285  0.00  0.00    -0.082 Cl
ATOM     18  C   UNL d   1      33.241  21.090 -22.880  0.00  0.00     0.012 A 
ATOM     19  C   UNL d   1      33.198  20.918 -22.063  0.00  0.00     0.001 A 
ATOM     20  C   UNL d   1      32.995  20.153 -21.816  0.00  0.00     0.000 A 
ATOM     21  C   UNL d   1      32.834  19.563 -22.381  0.00  0.00     0.006 A 
ENDBRANCH  13  15
ENDBRANCH  12  13
ENDBRANCH   1  12
BRANCH   2  22
ATOM     22  C   UNL d   1      30.831  18.223 -24.850  0.00  0.00     0.082 C 
BRANCH  22  23
ATOM     23  N   UNL d   1      30.017  18.223 -24.744  0.00  0.00    -0.299 N 
ATOM     24  C   UNL d   1      29.667  18.807 -24.293  0.00  0.00     0.107 A 
ATOM     25  C   UNL d   1      28.848  18.819 -24.177  0.00  0.00     0.142 A 
ATOM     26  O   UNL d   1      28.392  18.237 -24.521  0.00  0.00    -0.300 OA
ATOM     27  C   UNL d   1      28.744  17.643 -24.980  0.00  0.00     0.142 A 
ATOM     28  C   UNL d   1      29.556  17.646 -25.085  0.00  0.00     0.107 A 
ENDBRANCH  22  23
ENDBRANCH   2  22
TORSDOF 5
ENDMDL
