MODEL 1
REMARK VINA RESULT:      36.2      0.000      0.000
REMARK  3 active torsions:
REMARK  status: ('A' for Active; 'I' for Inactive)
REMARK    1  A    between atoms: C_3  and  C_1 
REMARK    2  A    between atoms: N_4  and  C_3 
REMARK    3  A    between atoms: C_8  and  C_3 
ROOT
ATOM      1  C   UNL d   1      46.099 -18.286  43.578  0.00  0.00     0.069 C 
ENDROOT
BRANCH   1   2
ATOM      2  C   UNL d   1      46.051 -17.532  43.920  0.00  0.00     0.057 A 
ATOM      3  C   UNL d   1      45.435 -17.024  43.711  0.00  0.00     0.214 A 
ATOM      4  C   UNL d   1      45.399 -16.282  44.056  0.00  0.00     0.120 A 
ATOM      5  O   UNL d   1      44.859 -17.254  43.160  0.00  0.00    -0.285 OA
ATOM      6  N   UNL d   1      44.790 -15.762  43.859  0.00  0.00    -0.241 NA
ATOM      7  C   UNL d   1      45.976 -16.051  44.608  0.00  0.00     0.021 A 
ATOM      8  C   UNL d   1      44.764 -15.016  44.214  0.00  0.00     0.099 A 
ATOM      9  C   UNL d   1      45.318 -14.794  44.743  0.00  0.00     0.021 A 
ATOM     10  C   UNL d   1      45.936 -15.303  44.953  0.00  0.00     0.003 A 
ATOM     11  C   UNL d   1      46.582 -16.565  44.806  0.00  0.00     0.002 A 
ATOM     12  C   UNL d   1      46.605 -17.311  44.449  0.00  0.00     0.005 A 
ENDBRANCH   1   2
BRANCH   1  13
ATOM     13  N   UNL d   1      46.219 -18.367  42.771  0.00  0.00    -0.301 N 
ATOM     14  C   UNL d   1      46.522 -17.736  42.343  0.00  0.00     0.100 A 
ATOM     15  C   UNL d   1      46.645 -17.815  41.525  0.00  0.00     0.100 A 
ATOM     16  N   UNL d   1      46.466 -18.512  41.150  0.00  0.00    -0.299 N 
ATOM     17  C   UNL d   1      46.162 -19.147  41.578  0.00  0.00     0.100 A 
ATOM     18  C   UNL d   1      46.584 -18.597  40.350  0.00  0.00     0.100 C 
ATOM     19  C   UNL d   1      46.041 -19.070  42.381  0.00  0.00     0.100 A 
ENDBRANCH   1  13
BRANCH   1  20
ATOM     20  C   UNL d   1      46.030 -18.961  44.029  0.00  0.00     0.035 A 
ATOM     21  C   UNL d   1      46.647 -19.216  44.496  0.00  0.00     0.100 A 
ATOM     22  N   UNL d   1      46.581 -19.898  44.954  0.00  0.00    -0.242 NA
ATOM     23  C   UNL d   1      45.876 -20.330  44.938  0.00  0.00     0.099 A 
ATOM     24  C   UNL d   1      45.253 -20.078  44.470  0.00  0.00     0.021 A 
ATOM     25  C   UNL d   1      45.324 -19.393  44.013  0.00  0.00     0.005 A 
ENDBRANCH   1  20
TORSDOF 3
ENDMDL
