MODEL 1
REMARK VINA RESULT:      56.9      0.000      0.000
REMARK  6 active torsions:
REMARK  status: ('A' for Active; 'I' for Inactive)
REMARK    1  A    between atoms: N_3  and  S_1 
REMARK    2  A    between atoms: C_11  and  S_1 
REMARK    3  A    between atoms: C_2  and  N_3 
REMARK    4  A    between atoms: C_5  and  C_7 
REMARK       I    between atoms: C_7  and  N_12 
REMARK    5  A    between atoms: C_27  and  C_9 
REMARK    6  A    between atoms: N_12  and  C_20 
ROOT
ATOM      1  C   UNL d   1     -54.771-101.504 -41.781  0.00  0.00     0.105 A 
ATOM      2  C   UNL d   1     -54.832-100.770 -41.411  0.00  0.00     0.015 A 
ATOM      3  C   UNL d   1     -54.712-101.557 -42.596  0.00  0.00     0.015 A 
ATOM      4  C   UNL d   1     -54.774-100.138 -42.693  0.00  0.00     0.085 A 
ATOM      5  C   UNL d   1     -54.833-100.085 -41.878  0.00  0.00     0.020 A 
ATOM      6  C   UNL d   1     -54.713-100.876 -43.052  0.00  0.00     0.020 A 
ENDROOT
BRANCH   1   7
ATOM      7  S   UNL d   1     -54.769-102.202 -41.313  0.00  0.00     0.287 S 
ATOM      8  O   UNL d   1     -54.779-102.659 -42.001  0.00  0.00    -0.198 OA
ATOM      9  O   UNL d   1     -54.768-102.879 -40.840  0.00  0.00    -0.198 OA
BRANCH   7  10
ATOM     10  N   UNL d   1     -54.759-101.732 -40.626  0.00  0.00    -0.130 NA
BRANCH  10  11
ATOM     11  C   UNL d   1     -54.997-102.049 -39.898  0.00  0.00     0.227 A 
ATOM     12  S   UNL d   1     -54.714-101.820 -39.182  0.00  0.00    -0.025 SA
ATOM     13  C   UNL d   1     -55.105-102.285 -38.590  0.00  0.00     0.135 A 
ATOM     14  N   UNL d   1     -55.630-102.801 -38.982  0.00  0.00    -0.139 NA
ATOM     15  N   UNL d   1     -55.548-102.637 -39.802  0.00  0.00    -0.120 NA
BRANCH  13  16
ATOM     16  C   UNL d   1     -55.060-102.315 -37.772  0.00  0.00     0.028 C 
ATOM     17  C   UNL d   1     -55.643-102.740 -37.354  0.00  0.00     0.002 C 
ENDBRANCH  13  16
ENDBRANCH  10  11
ENDBRANCH   7  10
ENDBRANCH   1   7
BRANCH   4  18
ATOM     18  N   UNL d   1     -54.775 -99.448 -43.170  0.00  0.00    -0.208 NA
ATOM     19  C   UNL d   1     -55.022 -99.497 -43.963  0.00  0.00     0.280 C 
ATOM     20  O   UNL d   1     -55.026 -98.829 -44.438  0.00  0.00    -0.265 OA
BRANCH  19  21
ATOM     21  C   UNL d   1     -55.263-100.224 -44.270  0.00  0.00     0.069 A 
ATOM     22  C   UNL d   1     -56.043-100.336 -44.501  0.00  0.00     0.063 A 
ATOM     23  C   UNL d   1     -56.283-101.058 -44.806  0.00  0.00     0.023 A 
ATOM     24 CL   UNL d   1     -56.588 -99.731 -44.431  0.00  0.00    -0.082 Cl
ATOM     25  C   UNL d   1     -55.750-101.688 -44.888  0.00  0.00     0.059 A 
ATOM     26  C   UNL d   1     -54.952-101.566 -44.649  0.00  0.00     0.012 A 
ATOM     27 CL   UNL d   1     -55.992-102.417 -45.196  0.00  0.00    -0.082 Cl
ATOM     28  C   UNL d   1     -54.712-100.845 -44.344  0.00  0.00     0.006 A 
ENDBRANCH  19  21
ENDBRANCH   4  18
TORSDOF 6
ENDMDL
