MODEL 1
REMARK VINA RESULT:       3.3      0.000      0.000
REMARK  5 active torsions:
REMARK  status: ('A' for Active; 'I' for Inactive)
REMARK       I    between atoms: C_6  and  N_1 
REMARK    1  A    between atoms: C_7  and  C_3 
REMARK    2  A    between atoms: C_8  and  C_4 
REMARK    3  A    between atoms: C_11  and  C_6 
REMARK    4  A    between atoms: C_9  and  C_17 
REMARK    5  A    between atoms: C_17  and  C_11 
ROOT
ATOM      1  N   UNL d   1     -41.629-121.515 -51.795  0.00  0.00    -0.195 N 
ATOM      2  N   UNL d   1     -41.692-121.484 -50.983  0.00  0.00    -0.163 NA
ATOM      3  C   UNL d   1     -41.947-122.208 -50.768  0.00  0.00     0.103 A 
ATOM      4  C   UNL d   1     -41.838-122.227 -52.065  0.00  0.00     0.088 A 
ATOM      5  C   UNL d   1     -42.040-122.681 -51.456  0.00  0.00     0.040 A 
ATOM      6  C   UNL d   1     -41.381-120.882 -52.263  0.00  0.00     0.281 C 
ATOM      7  O   UNL d   1     -41.335-120.966 -53.085  0.00  0.00    -0.265 OA
ENDROOT
BRANCH   4   8
ATOM      8  C   UNL d   1     -41.808-122.363 -52.896  0.00  0.00     0.018 A 
ATOM      9  C   UNL d   1     -42.483-122.170 -53.343  0.00  0.00     0.002 A 
ATOM     10  C   UNL d   1     -42.438-122.306 -54.140  0.00  0.00     0.007 A 
ATOM     11  C   UNL d   1     -41.795-122.607 -54.505  0.00  0.00     0.035 A 
ATOM     12  C   UNL d   1     -41.123-122.796 -54.047  0.00  0.00     0.007 A 
ATOM     13 BR   UNL d   1     -41.811-122.727 -55.352  0.00  0.00    -0.049 Br
ATOM     14  C   UNL d   1     -41.153-122.661 -53.216  0.00  0.00     0.002 A 
ENDBRANCH   4   8
BRANCH   6  15
ATOM     15  C   UNL d   1     -41.173-120.139 -51.881  0.00  0.00     0.069 C 
BRANCH  15  16
ATOM     16  C   UNL d   1     -41.265-119.428 -52.307  0.00  0.00     0.075 C 
BRANCH  16  17
ATOM     17  C   UNL d   1     -41.175-118.704 -51.932  0.00  0.00     0.211 C 
ATOM     18  O   UNL d   1     -41.135-118.007 -52.390  0.00  0.00    -0.644 OA
ATOM     19  O   UNL d   1     -41.124-118.660 -51.110  0.00  0.00    -0.644 OA
ENDBRANCH  16  17
ENDBRANCH  15  16
ENDBRANCH   6  15
BRANCH   3  20
ATOM     20  C   UNL d   1     -42.119-122.532 -50.023  0.00  0.00     0.019 A 
ATOM     21  C   UNL d   1     -41.516-122.729 -49.508  0.00  0.00     0.002 A 
ATOM     22  C   UNL d   1     -41.691-123.051 -48.770  0.00  0.00     0.007 A 
ATOM     23  C   UNL d   1     -42.477-123.173 -48.552  0.00  0.00     0.035 A 
ATOM     24  C   UNL d   1     -43.096-122.975 -49.070  0.00  0.00     0.007 A 
ATOM     25 BR   UNL d   1     -42.691-123.516 -47.765  0.00  0.00    -0.049 Br
ATOM     26  C   UNL d   1     -42.905-122.655 -49.805  0.00  0.00     0.002 A 
ENDBRANCH   3  20
TORSDOF 5
ENDMDL
MODEL 2
REMARK VINA RESULT:       5.7      0.895      3.954
REMARK  5 active torsions:
REMARK  status: ('A' for Active; 'I' for Inactive)
REMARK       I    between atoms: C_6  and  N_1 
REMARK    1  A    between atoms: C_7  and  C_3 
REMARK    2  A    between atoms: C_8  and  C_4 
REMARK    3  A    between atoms: C_11  and  C_6 
REMARK    4  A    between atoms: C_9  and  C_17 
REMARK    5  A    between atoms: C_17  and  C_11 
ROOT
ATOM      1  N   UNL d   1     -41.594-121.804 -51.743  0.00  0.00    -0.195 N 
ATOM      2  N   UNL d   1     -41.510-121.743 -52.551  0.00  0.00    -0.163 NA
ATOM      3  C   UNL d   1     -41.699-122.463 -52.835  0.00  0.00     0.103 A 
ATOM      4  C   UNL d   1     -41.826-122.532 -51.542  0.00  0.00     0.088 A 
ATOM      5  C   UNL d   1     -41.901-122.965 -52.193  0.00  0.00     0.040 A 
ATOM      6  C   UNL d   1     -41.455-121.186 -51.216  0.00  0.00     0.281 C 
ATOM      7  O   UNL d   1     -41.556-121.301 -50.403  0.00  0.00    -0.265 OA
ENDROOT
BRANCH   4   8
ATOM      8  C   UNL d   1     -41.943-122.700 -50.724  0.00  0.00     0.018 A 
ATOM      9  C   UNL d   1     -41.380-123.182 -50.344  0.00  0.00     0.002 A 
ATOM     10  C   UNL d   1     -41.507-123.334 -49.560  0.00  0.00     0.007 A 
ATOM     11  C   UNL d   1     -42.128-123.051 -49.145  0.00  0.00     0.035 A 
ATOM     12  C   UNL d   1     -42.687-122.569 -49.536  0.00  0.00     0.007 A 
ATOM     13 BR   UNL d   1     -42.206-123.249 -48.316  0.00  0.00    -0.049 Br
ATOM     14  C   UNL d   1     -42.570-122.401 -50.354  0.00  0.00     0.002 A 
ENDBRANCH   4   8
BRANCH   6  15
ATOM     15  C   UNL d   1     -41.203-120.423 -51.526  0.00  0.00     0.069 C 
BRANCH  15  16
ATOM     16  C   UNL d   1     -41.123-119.781 -51.001  0.00  0.00     0.075 C 
BRANCH  16  17
ATOM     17  C   UNL d   1     -41.152-119.009 -51.278  0.00  0.00     0.211 C 
ATOM     18  O   UNL d   1     -41.123-118.866 -52.100  0.00  0.00    -0.644 OA
ATOM     19  O   UNL d   1     -41.209-118.377 -50.752  0.00  0.00    -0.644 OA
ENDBRANCH  16  17
ENDBRANCH  15  16
ENDBRANCH   6  15
BRANCH   3  20
ATOM     20  C   UNL d   1     -41.723-122.761 -53.610  0.00  0.00     0.019 A 
ATOM     21  C   UNL d   1     -41.479-123.524 -53.769  0.00  0.00     0.002 A 
ATOM     22  C   UNL d   1     -41.504-123.815 -54.538  0.00  0.00     0.007 A 
ATOM     23  C   UNL d   1     -41.778-123.334 -55.150  0.00  0.00     0.035 A 
ATOM     24  C   UNL d   1     -42.029-122.556 -54.998  0.00  0.00     0.007 A 
ATOM     25 BR   UNL d   1     -41.815-123.623 -55.985  0.00  0.00    -0.049 Br
ATOM     26  C   UNL d   1     -41.997-122.279 -54.222  0.00  0.00     0.002 A 
ENDBRANCH   3  20
TORSDOF 5
ENDMDL
