MODEL 1
REMARK VINA RESULT:     114.9      0.000      0.000
REMARK  8 active torsions:
REMARK  status: ('A' for Active; 'I' for Inactive)
REMARK    1  A    between atoms: S_13  and  C_4 
REMARK    2  A    between atoms: C_5  and  N_10 
REMARK    3  A    between atoms: C_20  and  N_6 
REMARK       I    between atoms: N_10  and  C_14 
REMARK    4  A    between atoms: C_19  and  S_13 
REMARK    5  A    between atoms: C_14  and  C_19 
REMARK    6  A    between atoms: C_22  and  C_20 
REMARK    7  A    between atoms: C_28  and  C_22 
REMARK    8  A    between atoms: N_25  and  C_28 
ROOT
ATOM      1  N   UNL d   1      59.842  47.193  50.702  0.00  0.00    -0.185 NA
ATOM      2  C   UNL d   1      59.239  47.752  50.630  0.00  0.00     0.354 A 
ATOM      3  C   UNL d   1      60.803  48.245  50.820  0.00  0.00     0.040 A 
ATOM      4  C   UNL d   1      60.624  47.439  50.797  0.00  0.00     0.117 A 
ATOM      5  N   UNL d   1      59.419  48.557  50.653  0.00  0.00    -0.258 N 
ATOM      6  C   UNL d   1      60.201  48.804  50.748  0.00  0.00     0.070 A 
ATOM      7  O   UNL d   1      58.451  47.511  50.534  0.00  0.00    -0.244 OA
ATOM      8  C   UNL d   1      61.511  48.652  50.907  0.00  0.00     0.004 A 
ATOM      9  C   UNL d   1      60.541  49.553  50.791  0.00  0.00     0.018 A 
ATOM     10  C   UNL d   1      61.343  49.464  50.888  0.00  0.00     0.002 A 
ENDROOT
BRANCH   4  11
ATOM     11  S   UNL d   1      61.226  46.880  50.869  0.00  0.00    -0.062 SA
BRANCH  11  12
ATOM     12  C   UNL d   1      61.358  46.342  50.271  0.00  0.00     0.099 C 
BRANCH  12  13
ATOM     13  C   UNL d   1      61.500  45.550  50.451  0.00  0.00     0.288 C 
ATOM     14  N   UNL d   1      62.164  45.171  50.150  0.00  0.00    -0.182 NA
ATOM     15  O   UNL d   1      60.974  45.137  50.935  0.00  0.00    -0.265 OA
BRANCH  14  16
ATOM     16  C   UNL d   1      62.305  44.379  50.330  0.00  0.00     0.197 A 
ATOM     17  N   UNL d   1      62.526  44.162  51.096  0.00  0.00    -0.221 NA
ATOM     18  C   UNL d   1      62.627  43.338  51.104  0.00  0.00     0.090 A 
ATOM     19  C   UNL d   1      62.843  42.817  51.705  0.00  0.00     0.020 A 
ATOM     20  C   UNL d   1      62.472  43.055  50.356  0.00  0.00     0.050 A 
ATOM     21  C   UNL d   1      62.900  42.014  51.548  0.00  0.00     0.002 A 
ATOM     22  C   UNL d   1      62.744  41.728  50.795  0.00  0.00     0.001 A 
ATOM     23  C   UNL d   1      62.530  42.246  50.195  0.00  0.00     0.008 A 
ATOM     24  C   UNL d   1      62.808  40.905  50.652  0.00  0.00     0.000 C 
ATOM     25  S   UNL d   1      62.272  43.695  49.869  0.00  0.00    -0.047 SA
ENDBRANCH  14  16
ENDBRANCH  12  13
ENDBRANCH  11  12
ENDBRANCH   4  11
BRANCH   5  26
ATOM     26  C   UNL d   1      58.817  49.116  50.581  0.00  0.00     0.086 C 
BRANCH  26  27
ATOM     27  C   UNL d   1      58.227  49.163  51.146  0.00  0.00     0.038 C 
BRANCH  27  28
ATOM     28  C   UNL d   1      57.596  49.686  51.048  0.00  0.00     0.082 C 
BRANCH  28  29
ATOM     29  N   UNL d   1      56.864  49.406  50.802  0.00  0.00    -0.300 N 
ATOM     30  C   UNL d   1      56.463  48.843  51.252  0.00  0.00     0.100 C 
ATOM     31  C   UNL d   1      56.529  49.689  50.103  0.00  0.00     0.100 C 
ENDBRANCH  28  29
ENDBRANCH  27  28
ENDBRANCH  26  27
ENDBRANCH   5  26
TORSDOF 8
ENDMDL
MODEL 2
REMARK VINA RESULT:     114.9      1.508      6.091
REMARK  8 active torsions:
REMARK  status: ('A' for Active; 'I' for Inactive)
REMARK    1  A    between atoms: S_13  and  C_4 
REMARK    2  A    between atoms: C_5  and  N_10 
REMARK    3  A    between atoms: C_20  and  N_6 
REMARK       I    between atoms: N_10  and  C_14 
REMARK    4  A    between atoms: C_19  and  S_13 
REMARK    5  A    between atoms: C_14  and  C_19 
REMARK    6  A    between atoms: C_22  and  C_20 
REMARK    7  A    between atoms: C_28  and  C_22 
REMARK    8  A    between atoms: N_25  and  C_28 
ROOT
ATOM      1  N   UNL d   1      61.049  46.443  51.814  0.00  0.00    -0.185 NA
ATOM      2  C   UNL d   1      61.082  45.701  51.456  0.00  0.00     0.354 A 
ATOM      3  C   UNL d   1      61.606  47.035  50.638  0.00  0.00     0.040 A 
ATOM      4  C   UNL d   1      61.310  47.111  51.405  0.00  0.00     0.117 A 
ATOM      5  N   UNL d   1      61.377  45.626  50.689  0.00  0.00    -0.258 N 
ATOM      6  C   UNL d   1      61.639  46.293  50.280  0.00  0.00     0.070 A 
ATOM      7  O   UNL d   1      60.821  45.026  51.862  0.00  0.00    -0.244 OA
ATOM      8  C   UNL d   1      61.900  47.583  50.101  0.00  0.00     0.004 A 
ATOM      9  C   UNL d   1      61.954  46.386  49.524  0.00  0.00     0.018 A 
ATOM     10  C   UNL d   1      62.115  47.175  49.412  0.00  0.00     0.002 A 
ENDROOT
BRANCH   4  11
ATOM     11  S   UNL d   1      61.277  47.854  51.763  0.00  0.00    -0.062 SA
BRANCH  11  12
ATOM     12  C   UNL d   1      61.053  48.506  51.328  0.00  0.00     0.099 C 
BRANCH  12  13
ATOM     13  C   UNL d   1      60.263  48.607  51.113  0.00  0.00     0.288 C 
ATOM     14  N   UNL d   1      60.051  49.208  50.594  0.00  0.00    -0.182 NA
ATOM     15  O   UNL d   1      59.685  48.104  51.419  0.00  0.00    -0.265 OA
BRANCH  14  16
ATOM     16  C   UNL d   1      59.261  49.309  50.378  0.00  0.00     0.197 A 
ATOM     17  N   UNL d   1      58.688  49.439  50.958  0.00  0.00    -0.221 NA
ATOM     18  C   UNL d   1      57.956  49.518  50.574  0.00  0.00     0.090 A 
ATOM     19  C   UNL d   1      57.196  49.653  50.862  0.00  0.00     0.020 A 
ATOM     20  C   UNL d   1      58.079  49.438  49.772  0.00  0.00     0.050 A 
ATOM     21  C   UNL d   1      56.565  49.707  50.341  0.00  0.00     0.002 A 
ATOM     22  C   UNL d   1      56.689  49.627  49.534  0.00  0.00     0.001 A 
ATOM     23  C   UNL d   1      57.445  49.492  49.245  0.00  0.00     0.008 A 
ATOM     24  C   UNL d   1      56.033  49.684  49.015  0.00  0.00     0.000 C 
ATOM     25  S   UNL d   1      58.888  49.308  49.643  0.00  0.00    -0.047 SA
ENDBRANCH  14  16
ENDBRANCH  12  13
ENDBRANCH  11  12
ENDBRANCH   4  11
BRANCH   5  26
ATOM     26  C   UNL d   1      61.410  44.883  50.332  0.00  0.00     0.086 C 
BRANCH  26  27
ATOM     27  C   UNL d   1      61.602  44.815  49.539  0.00  0.00     0.038 C 
BRANCH  27  28
ATOM     28  C   UNL d   1      61.909  44.108  49.245  0.00  0.00     0.082 C 
BRANCH  28  29
ATOM     29  N   UNL d   1      61.534  43.395  49.409  0.00  0.00    -0.300 N 
ATOM     30  C   UNL d   1      60.967  43.097  48.889  0.00  0.00     0.100 C 
ATOM     31  C   UNL d   1      61.724  42.978  50.095  0.00  0.00     0.100 C 
ENDBRANCH  28  29
ENDBRANCH  27  28
ENDBRANCH  26  27
ENDBRANCH   5  26
TORSDOF 8
ENDMDL
