MODEL 1
REMARK VINA RESULT:     -10.8      0.000      0.000
REMARK  3 active torsions:
REMARK  status: ('A' for Active; 'I' for Inactive)
REMARK    1  A    between atoms: C_8  and  C_1 
REMARK    2  A    between atoms: C_9  and  C_4 
REMARK    3  A    between atoms: O_20  and  C_8 
ROOT
ATOM      1  C   UNL d   1      53.392  33.568  54.062  0.00  0.00     0.107 A 
ATOM      2  C   UNL d   1      54.020  33.178  54.448  0.00  0.00     0.208 A 
ATOM      3  C   UNL d   1      52.978  32.319  53.473  0.00  0.00     0.062 A 
ATOM      4  C   UNL d   1      52.873  33.120  53.571  0.00  0.00     0.020 A 
ATOM      5  C   UNL d   1      53.606  31.929  53.860  0.00  0.00     0.101 A 
ATOM      6  O   UNL d   1      54.127  32.341  54.343  0.00  0.00    -0.288 OA
ATOM      7  C   UNL d   1      52.467  31.896  52.995  0.00  0.00     0.194 A 
ATOM      8  C   UNL d   1      53.722  31.117  53.766  0.00  0.00     0.002 A 
ATOM      9  C   UNL d   1      53.199  30.699  53.280  0.00  0.00     0.042 A 
ATOM     10  C   UNL d   1      52.571  31.089  52.894  0.00  0.00     0.019 A 
ATOM     11  O   UNL d   1      51.837  32.288  52.607  0.00  0.00    -0.287 OA
ATOM     12  N   UNL d   1      54.549  33.616  54.944  0.00  0.00    -0.121 N 
ATOM     13  C   UNL d   1      53.028  29.961  52.987  0.00  0.00     0.009 C 
ATOM     14  C   UNL d   1      53.757  30.169  53.583  0.00  0.00     0.009 C 
ENDROOT
BRANCH   4  15
ATOM     15  C   UNL d   1      52.258  33.491  53.191  0.00  0.00     0.030 A 
ATOM     16  S   UNL d   1      51.358  33.690  53.419  0.00  0.00    -0.086 SA
ATOM     17  C   UNL d   1      51.183  34.135  52.537  0.00  0.00     0.035 A 
ATOM     18  C   UNL d   1      51.810  34.071  52.207  0.00  0.00     0.007 A 
ATOM     19  C   UNL d   1      52.351  33.746  52.540  0.00  0.00     0.007 A 
ENDBRANCH   4  15
BRANCH   1  20
ATOM     20  C   UNL d   1      53.295  34.395  54.172  0.00  0.00     0.299 C 
ATOM     21  O   UNL d   1      53.592  34.943  53.612  0.00  0.00    -0.259 OA
BRANCH  20  22
ATOM     22  O   UNL d   1      52.904  34.692  54.833  0.00  0.00    -0.296 OA
ATOM     23  C   UNL d   1      53.030  35.485  55.097  0.00  0.00     0.185 C 
ENDBRANCH  20  22
ENDBRANCH   1  20
TORSDOF 3
ENDMDL
MODEL 2
REMARK VINA RESULT:     -10.8      1.192      2.187
REMARK  3 active torsions:
REMARK  status: ('A' for Active; 'I' for Inactive)
REMARK    1  A    between atoms: C_8  and  C_1 
REMARK    2  A    between atoms: C_9  and  C_4 
REMARK    3  A    between atoms: O_20  and  C_8 
ROOT
ATOM      1  C   UNL d   1      52.848  33.504  53.418  0.00  0.00     0.107 A 
ATOM      2  C   UNL d   1      52.253  33.247  52.892  0.00  0.00     0.208 A 
ATOM      3  C   UNL d   1      53.284  32.141  53.590  0.00  0.00     0.062 A 
ATOM      4  C   UNL d   1      53.363  32.932  53.764  0.00  0.00     0.020 A 
ATOM      5  C   UNL d   1      52.690  31.884  53.065  0.00  0.00     0.101 A 
ATOM      6  O   UNL d   1      52.175  32.419  52.714  0.00  0.00    -0.288 OA
ATOM      7  C   UNL d   1      53.790  31.597  53.933  0.00  0.00     0.194 A 
ATOM      8  C   UNL d   1      52.603  31.084  52.882  0.00  0.00     0.002 A 
ATOM      9  C   UNL d   1      53.119  30.542  53.234  0.00  0.00     0.042 A 
ATOM     10  C   UNL d   1      53.714  30.799  53.760  0.00  0.00     0.019 A 
ATOM     11  O   UNL d   1      54.387  31.855  54.461  0.00  0.00    -0.287 OA
ATOM     12  N   UNL d   1      51.730  33.810  52.538  0.00  0.00    -0.121 N 
ATOM     13  C   UNL d   1      53.307  29.753  53.280  0.00  0.00     0.009 C 
ATOM     14  C   UNL d   1      52.597  30.127  52.746  0.00  0.00     0.009 C 
ENDROOT
BRANCH   4  15
ATOM     15  C   UNL d   1      53.945  33.173  54.278  0.00  0.00     0.030 A 
ATOM     16  S   UNL d   1      53.974  33.359  55.208  0.00  0.00    -0.086 SA
ATOM     17  C   UNL d   1      54.950  33.591  55.178  0.00  0.00     0.035 A 
ATOM     18  C   UNL d   1      55.108  33.498  54.490  0.00  0.00     0.007 A 
ATOM     19  C   UNL d   1      54.598  33.287  54.038  0.00  0.00     0.007 A 
ENDBRANCH   4  15
BRANCH   1  20
ATOM     20  C   UNL d   1      52.917  34.323  53.588  0.00  0.00     0.299 C 
ATOM     21  O   UNL d   1      53.413  34.819  53.128  0.00  0.00    -0.259 OA
BRANCH  20  22
ATOM     22  O   UNL d   1      52.501  34.664  54.211  0.00  0.00    -0.296 OA
ATOM     23  C   UNL d   1      52.333  35.492  54.226  0.00  0.00     0.185 C 
ENDBRANCH  20  22
ENDBRANCH   1  20
TORSDOF 3
ENDMDL
MODEL 3
REMARK VINA RESULT:     -10.0      1.427      3.515
REMARK  3 active torsions:
REMARK  status: ('A' for Active; 'I' for Inactive)
REMARK    1  A    between atoms: C_8  and  C_1 
REMARK    2  A    between atoms: C_9  and  C_4 
REMARK    3  A    between atoms: O_20  and  C_8 
ROOT
ATOM      1  C   UNL d   1      53.168  31.786  53.389  0.00  0.00     0.107 A 
ATOM      2  C   UNL d   1      52.544  31.558  52.885  0.00  0.00     0.208 A 
ATOM      3  C   UNL d   1      52.651  33.132  53.417  0.00  0.00     0.062 A 
ATOM      4  C   UNL d   1      53.209  32.587  53.651  0.00  0.00     0.020 A 
ATOM      5  C   UNL d   1      52.028  32.904  52.913  0.00  0.00     0.101 A 
ATOM      6  O   UNL d   1      51.964  32.131  52.643  0.00  0.00    -0.288 OA
ATOM      7  C   UNL d   1      52.704  33.905  53.678  0.00  0.00     0.194 A 
ATOM      8  C   UNL d   1      51.458  33.449  52.670  0.00  0.00     0.002 A 
ATOM      9  C   UNL d   1      51.520  34.228  52.940  0.00  0.00     0.042 A 
ATOM     10  C   UNL d   1      52.143  34.457  53.445  0.00  0.00     0.019 A 
ATOM     11  O   UNL d   1      53.330  34.135  54.185  0.00  0.00    -0.287 OA
ATOM     12  N   UNL d   1      52.490  30.757  52.615  0.00  0.00    -0.121 N 
ATOM     13  C   UNL d   1      51.171  34.961  52.907  0.00  0.00     0.009 C 
ATOM     14  C   UNL d   1      50.853  34.171  52.455  0.00  0.00     0.009 C 
ENDROOT
BRANCH   4  15
ATOM     15  C   UNL d   1      53.813  32.819  54.143  0.00  0.00     0.030 A 
ATOM     16  S   UNL d   1      54.710  33.099  54.007  0.00  0.00    -0.086 SA
ATOM     17  C   UNL d   1      54.869  33.224  54.990  0.00  0.00     0.035 A 
ATOM     18  C   UNL d   1      54.241  33.042  55.270  0.00  0.00     0.007 A 
ATOM     19  C   UNL d   1      53.710  32.839  54.840  0.00  0.00     0.007 A 
ENDBRANCH   4  15
BRANCH   1  20
ATOM     20  C   UNL d   1      53.736  31.214  53.623  0.00  0.00     0.299 C 
ATOM     21  O   UNL d   1      54.493  31.186  53.263  0.00  0.00    -0.259 OA
BRANCH  20  22
ATOM     22  O   UNL d   1      53.567  30.664  54.210  0.00  0.00    -0.296 OA
ATOM     23  C   UNL d   1      53.806  29.856  54.137  0.00  0.00     0.185 C 
ENDBRANCH  20  22
ENDBRANCH   1  20
TORSDOF 3
ENDMDL
MODEL 4
REMARK VINA RESULT:      -9.7      1.134      2.872
REMARK  3 active torsions:
REMARK  status: ('A' for Active; 'I' for Inactive)
REMARK    1  A    between atoms: C_8  and  C_1 
REMARK    2  A    between atoms: C_9  and  C_4 
REMARK    3  A    between atoms: O_20  and  C_8 
ROOT
ATOM      1  C   UNL d   1      53.491  33.643  54.487  0.00  0.00     0.107 A 
ATOM      2  C   UNL d   1      53.138  34.373  54.683  0.00  0.00     0.208 A 
ATOM      3  C   UNL d   1      52.507  33.445  53.452  0.00  0.00     0.062 A 
ATOM      4  C   UNL d   1      53.160  33.184  53.861  0.00  0.00     0.020 A 
ATOM      5  C   UNL d   1      52.154  34.175  53.648  0.00  0.00     0.101 A 
ATOM      6  O   UNL d   1      52.455  34.642  54.253  0.00  0.00    -0.288 OA
ATOM      7  C   UNL d   1      52.197  32.990  52.847  0.00  0.00     0.194 A 
ATOM      8  C   UNL d   1      51.492  34.448  53.239  0.00  0.00     0.002 A 
ATOM      9  C   UNL d   1      51.186  33.981  52.629  0.00  0.00     0.042 A 
ATOM     10  C   UNL d   1      51.539  33.251  52.432  0.00  0.00     0.019 A 
ATOM     11  O   UNL d   1      52.552  32.257  52.650  0.00  0.00    -0.287 OA
ATOM     12  N   UNL d   1      53.459  34.843  55.309  0.00  0.00    -0.121 N 
ATOM     13  C   UNL d   1      50.601  33.940  52.067  0.00  0.00     0.009 C 
ATOM     14  C   UNL d   1      50.724  34.663  52.692  0.00  0.00     0.009 C 
ENDROOT
BRANCH   4  15
ATOM     15  C   UNL d   1      53.498  32.471  53.663  0.00  0.00     0.030 A 
ATOM     16  S   UNL d   1      54.239  32.213  53.130  0.00  0.00    -0.086 SA
ATOM     17  C   UNL d   1      54.091  31.237  53.312  0.00  0.00     0.035 A 
ATOM     18  C   UNL d   1      53.519  31.247  53.737  0.00  0.00     0.007 A 
ATOM     19  C   UNL d   1      53.222  31.872  53.912  0.00  0.00     0.007 A 
ENDBRANCH   4  15
BRANCH   1  20
ATOM     20  C   UNL d   1      54.164  33.385  54.918  0.00  0.00     0.299 C 
ATOM     21  O   UNL d   1      54.087  32.856  55.563  0.00  0.00    -0.259 OA
BRANCH  20  22
ATOM     22  O   UNL d   1      54.919  33.645  54.719  0.00  0.00    -0.296 OA
ATOM     23  C   UNL d   1      55.512  33.762  55.309  0.00  0.00     0.185 C 
ENDBRANCH  20  22
ENDBRANCH   1  20
TORSDOF 3
ENDMDL
MODEL 5
REMARK VINA RESULT:      -9.2      1.118      2.938
REMARK  3 active torsions:
REMARK  status: ('A' for Active; 'I' for Inactive)
REMARK    1  A    between atoms: C_8  and  C_1 
REMARK    2  A    between atoms: C_9  and  C_4 
REMARK    3  A    between atoms: O_20  and  C_8 
ROOT
ATOM      1  C   UNL d   1      53.110  31.834  53.444  0.00  0.00     0.107 A 
ATOM      2  C   UNL d   1      53.796  31.484  53.764  0.00  0.00     0.208 A 
ATOM      3  C   UNL d   1      53.462  33.088  54.061  0.00  0.00     0.062 A 
ATOM      4  C   UNL d   1      52.954  32.647  53.603  0.00  0.00     0.020 A 
ATOM      5  C   UNL d   1      54.148  32.738  54.381  0.00  0.00     0.101 A 
ATOM      6  O   UNL d   1      54.324  31.948  54.242  0.00  0.00    -0.288 OA
ATOM      7  C   UNL d   1      53.299  33.876  54.208  0.00  0.00     0.194 A 
ATOM      8  C   UNL d   1      54.669  33.176  54.847  0.00  0.00     0.002 A 
ATOM      9  C   UNL d   1      54.495  33.972  54.989  0.00  0.00     0.042 A 
ATOM     10  C   UNL d   1      53.809  34.323  54.669  0.00  0.00     0.019 A 
ATOM     11  O   UNL d   1      52.610  34.228  53.886  0.00  0.00    -0.287 OA
ATOM     12  N   UNL d   1      53.965  30.668  53.612  0.00  0.00    -0.121 N 
ATOM     13  C   UNL d   1      54.758  34.642  55.366  0.00  0.00     0.009 C 
ATOM     14  C   UNL d   1      55.202  33.786  55.375  0.00  0.00     0.009 C 
ENDROOT
BRANCH   4  15
ATOM     15  C   UNL d   1      52.288  32.998  53.295  0.00  0.00     0.030 A 
ATOM     16  S   UNL d   1      51.377  33.040  53.560  0.00  0.00    -0.086 SA
ATOM     17  C   UNL d   1      51.124  33.602  52.768  0.00  0.00     0.035 A 
ATOM     18  C   UNL d   1      51.746  33.675  52.429  0.00  0.00     0.007 A 
ATOM     19  C   UNL d   1      52.331  33.368  52.697  0.00  0.00     0.007 A 
ENDBRANCH   4  15
BRANCH   1  20
ATOM     20  C   UNL d   1      52.595  31.368  52.973  0.00  0.00     0.299 C 
ATOM     21  O   UNL d   1      52.653  31.371  52.136  0.00  0.00    -0.259 OA
BRANCH  20  22
ATOM     22  O   UNL d   1      52.017  30.894  53.317  0.00  0.00    -0.296 OA
ATOM     23  C   UNL d   1      51.880  30.104  53.049  0.00  0.00     0.185 C 
ENDBRANCH  20  22
ENDBRANCH   1  20
TORSDOF 3
ENDMDL
MODEL 6
REMARK VINA RESULT:      -9.0      1.245      2.950
REMARK  3 active torsions:
REMARK  status: ('A' for Active; 'I' for Inactive)
REMARK    1  A    between atoms: C_8  and  C_1 
REMARK    2  A    between atoms: C_9  and  C_4 
REMARK    3  A    between atoms: O_20  and  C_8 
ROOT
ATOM      1  C   UNL d   1      52.157  33.726  53.435  0.00  0.00     0.107 A 
ATOM      2  C   UNL d   1      52.257  34.500  53.729  0.00  0.00     0.208 A 
ATOM      3  C   UNL d   1      53.374  33.320  54.095  0.00  0.00     0.062 A 
ATOM      4  C   UNL d   1      52.731  33.138  53.628  0.00  0.00     0.020 A 
ATOM      5  C   UNL d   1      53.473  34.094  54.389  0.00  0.00     0.101 A 
ATOM      6  O   UNL d   1      52.930  34.685  54.216  0.00  0.00    -0.288 OA
ATOM      7  C   UNL d   1      53.922  32.740  54.274  0.00  0.00     0.194 A 
ATOM      8  C   UNL d   1      54.120  34.287  54.862  0.00  0.00     0.002 A 
ATOM      9  C   UNL d   1      54.670  33.694  55.038  0.00  0.00     0.042 A 
ATOM     10  C   UNL d   1      54.570  32.920  54.744  0.00  0.00     0.019 A 
ATOM     11  O   UNL d   1      53.822  31.962  53.979  0.00  0.00    -0.287 OA
ATOM     12  N   UNL d   1      51.689  35.099  53.543  0.00  0.00    -0.121 N 
ATOM     13  C   UNL d   1      55.361  33.540  55.436  0.00  0.00     0.009 C 
ATOM     14  C   UNL d   1      54.914  34.394  55.403  0.00  0.00     0.009 C 
ENDROOT
BRANCH   4  15
ATOM     15  C   UNL d   1      52.643  32.381  53.346  0.00  0.00     0.030 A 
ATOM     16  S   UNL d   1      52.098  31.642  53.588  0.00  0.00    -0.086 SA
ATOM     17  C   UNL d   1      52.482  31.063  52.864  0.00  0.00     0.035 A 
ATOM     18  C   UNL d   1      52.952  31.498  52.554  0.00  0.00     0.007 A 
ATOM     19  C   UNL d   1      53.031  32.163  52.800  0.00  0.00     0.007 A 
ENDBRANCH   4  15
BRANCH   1  20
ATOM     20  C   UNL d   1      51.491  33.553  52.955  0.00  0.00     0.299 C 
ATOM     21  O   UNL d   1      50.816  33.172  53.276  0.00  0.00    -0.259 OA
BRANCH  20  22
ATOM     22  O   UNL d   1      51.479  33.752  52.157  0.00  0.00    -0.296 OA
ATOM     23  C   UNL d   1      50.761  33.976  51.771  0.00  0.00     0.185 C 
ENDBRANCH  20  22
ENDBRANCH   1  20
TORSDOF 3
ENDMDL
