MODEL 1
REMARK VINA RESULT:      -4.2      0.000      0.000
REMARK  8 active torsions:
REMARK  status: ('A' for Active; 'I' for Inactive)
REMARK    1  A    between atoms: O_8  and  C_1 
REMARK    2  A    between atoms: C_10  and  C_5 
REMARK    3  A    between atoms: C_12  and  O_8 
REMARK    4  A    between atoms: N_9  and  C_10 
REMARK    5  A    between atoms: C_25  and  N_14 
REMARK    6  A    between atoms: O_24  and  C_17 
REMARK    7  A    between atoms: C_30  and  O_24 
REMARK    8  A    between atoms: C_29  and  C_25 
ROOT
ATOM      1  C   UNL d   1     -39.298  15.549  18.163  0.00  0.00     0.161 A 
ATOM      2  C   UNL d   1     -39.816  15.675  19.736  0.00  0.00     0.108 A 
ATOM      3  C   UNL d   1     -39.004  15.732  19.562  0.00  0.00     0.064 A 
ATOM      4  C   UNL d   1     -38.749  15.669  18.778  0.00  0.00     0.222 A 
ATOM      5  C   UNL d   1     -40.072  15.738  20.520  0.00  0.00     0.079 A 
ATOM      6  O   UNL d   1     -40.376  15.556  19.136  0.00  0.00    -0.305 OA
ATOM      7  C   UNL d   1     -40.110  15.492  18.341  0.00  0.00     0.126 A 
ATOM      8  C   UNL d   1     -38.464  15.850  20.167  0.00  0.00     0.009 A 
ATOM      9  C   UNL d   1     -39.524  15.857  21.123  0.00  0.00     0.199 A 
ATOM     10  O   UNL d   1     -37.944  15.725  18.602  0.00  0.00    -0.284 OA
ATOM     11  C   UNL d   1     -38.720  15.913  20.946  0.00  0.00     0.042 A 
ATOM     12  O   UNL d   1     -39.781  15.919  21.903  0.00  0.00    -0.286 OA
ATOM     13  C   UNL d   1     -40.658  15.373  17.737  0.00  0.00     0.029 C 
ENDROOT
BRANCH   1  14
ATOM     14  O   UNL d   1     -39.037  15.486  17.382  0.00  0.00    -0.300 OA
BRANCH  14  15
ATOM     15  C   UNL d   1     -38.834  14.748  17.079  0.00  0.00     0.123 A 
ATOM     16  C   UNL d   1     -38.487  14.693  16.334  0.00  0.00     0.123 A 
ATOM     17  C   UNL d   1     -38.283  13.961  16.027  0.00  0.00     0.027 A 
ATOM     18  C   UNL d   1     -38.423  13.275  16.462  0.00  0.00     0.002 A 
ATOM     19  C   UNL d   1     -38.774  13.328  17.216  0.00  0.00     0.002 A 
ATOM     20  C   UNL d   1     -38.978  14.066  17.520  0.00  0.00     0.027 A 
BRANCH  16  21
ATOM     21  O   UNL d   1     -38.345  15.377  15.895  0.00  0.00    -0.303 OA
BRANCH  21  22
ATOM     22  C   UNL d   1     -37.966  15.324  15.167  0.00  0.00     0.123 C 
ATOM     23  C   UNL d   1     -38.062  15.915  14.602  0.00  0.00     0.029 C 
ENDBRANCH  21  22
ENDBRANCH  16  21
ENDBRANCH  14  15
ENDBRANCH   1  14
BRANCH   5  24
ATOM     24  C   UNL d   1     -40.875  15.683  20.704  0.00  0.00     0.086 C 
BRANCH  24  25
ATOM     25  N   UNL d   1     -41.189  14.949  20.930  0.00  0.00    -0.300 N 
ATOM     26  C   UNL d   1     -40.730  14.413  21.360  0.00  0.00     0.100 A 
ATOM     27  C   UNL d   1     -41.045  13.689  21.581  0.00  0.00     0.100 A 
ATOM     28  N   UNL d   1     -41.820  13.491  21.377  0.00  0.00    -0.297 N 
ATOM     29  C   UNL d   1     -42.280  14.027  20.947  0.00  0.00     0.100 A 
ATOM     30  C   UNL d   1     -41.965  14.762  20.721  0.00  0.00     0.100 A 
BRANCH  28  31
ATOM     31  C   UNL d   1     -42.136  12.764  21.599  0.00  0.00     0.126 C 
BRANCH  31  32
ATOM     32  C   UNL d   1     -42.952  12.650  21.584  0.00  0.00     0.253 C 
ATOM     33  O   UNL d   1     -43.270  11.936  21.841  0.00  0.00    -0.281 OA
ENDBRANCH  31  32
ENDBRANCH  28  31
ENDBRANCH  24  25
ENDBRANCH   5  24
TORSDOF 8
ENDMDL
MODEL 2
REMARK VINA RESULT:      -3.5      5.304      9.748
REMARK  8 active torsions:
REMARK  status: ('A' for Active; 'I' for Inactive)
REMARK    1  A    between atoms: O_8  and  C_1 
REMARK    2  A    between atoms: C_10  and  C_5 
REMARK    3  A    between atoms: C_12  and  O_8 
REMARK    4  A    between atoms: N_9  and  C_10 
REMARK    5  A    between atoms: C_25  and  N_14 
REMARK    6  A    between atoms: O_24  and  C_17 
REMARK    7  A    between atoms: C_30  and  O_24 
REMARK    8  A    between atoms: C_29  and  C_25 
ROOT
ATOM      1  C   UNL d   1     -48.558  13.036  23.338  0.00  0.00     0.161 A 
ATOM      2  C   UNL d   1     -46.995  12.489  23.465  0.00  0.00     0.108 A 
ATOM      3  C   UNL d   1     -47.627  11.946  23.495  0.00  0.00     0.064 A 
ATOM      4  C   UNL d   1     -48.404  12.222  23.432  0.00  0.00     0.222 A 
ATOM      5  C   UNL d   1     -46.217  12.214  23.528  0.00  0.00     0.079 A 
ATOM      6  O   UNL d   1     -47.131  13.301  23.372  0.00  0.00    -0.305 OA
ATOM      7  C   UNL d   1     -47.923  13.574  23.308  0.00  0.00     0.126 A 
ATOM      8  C   UNL d   1     -47.475  11.147  23.588  0.00  0.00     0.009 A 
ATOM      9  C   UNL d   1     -46.072  11.409  23.621  0.00  0.00     0.199 A 
ATOM     10  O   UNL d   1     -49.033  11.688  23.461  0.00  0.00    -0.284 OA
ATOM     11  C   UNL d   1     -46.701  10.876  23.651  0.00  0.00     0.042 A 
ATOM     12  O   UNL d   1     -45.297  11.137  23.684  0.00  0.00    -0.286 OA
ATOM     13  C   UNL d   1     -48.069  14.380  23.215  0.00  0.00     0.029 C 
ENDROOT
BRANCH   1  14
ATOM     14  O   UNL d   1     -49.337  13.305  23.275  0.00  0.00    -0.300 OA
BRANCH  14  15
ATOM     15  C   UNL d   1     -49.688  13.362  22.532  0.00  0.00     0.123 A 
ATOM     16  C   UNL d   1     -50.381  13.797  22.440  0.00  0.00     0.123 A 
ATOM     17  C   UNL d   1     -50.736  13.858  21.704  0.00  0.00     0.027 A 
ATOM     18  C   UNL d   1     -50.400  13.485  21.050  0.00  0.00     0.002 A 
ATOM     19  C   UNL d   1     -49.698  13.044  21.141  0.00  0.00     0.002 A 
ATOM     20  C   UNL d   1     -49.346  12.985  21.883  0.00  0.00     0.027 A 
BRANCH  16  21
ATOM     21  O   UNL d   1     -50.720  14.173  23.092  0.00  0.00    -0.303 OA
BRANCH  21  22
ATOM     22  C   UNL d   1     -51.064  14.914  23.003  0.00  0.00     0.123 C 
ATOM     23  C   UNL d   1     -51.048  15.460  23.619  0.00  0.00     0.029 C 
ENDBRANCH  21  22
ENDBRANCH  16  21
ENDBRANCH  14  15
ENDBRANCH   1  14
BRANCH   5  24
ATOM     24  C   UNL d   1     -45.583  12.741  23.500  0.00  0.00     0.086 C 
BRANCH  24  25
ATOM     25  N   UNL d   1     -45.064  12.715  22.853  0.00  0.00    -0.300 N 
ATOM     26  C   UNL d   1     -44.450  12.162  22.833  0.00  0.00     0.100 A 
ATOM     27  C   UNL d   1     -43.939  12.140  22.192  0.00  0.00     0.100 A 
ATOM     28  N   UNL d   1     -44.033  12.668  21.565  0.00  0.00    -0.297 N 
ATOM     29  C   UNL d   1     -44.647  13.222  21.584  0.00  0.00     0.100 A 
ATOM     30  C   UNL d   1     -45.167  13.248  22.232  0.00  0.00     0.100 A 
BRANCH  28  31
ATOM     31  C   UNL d   1     -43.520  12.646  20.921  0.00  0.00     0.126 C 
BRANCH  31  32
ATOM     32  C   UNL d   1     -42.757  12.947  20.996  0.00  0.00     0.253 C 
ATOM     33  O   UNL d   1     -42.296  13.066  20.324  0.00  0.00    -0.281 OA
ENDBRANCH  31  32
ENDBRANCH  28  31
ENDBRANCH  24  25
ENDBRANCH   5  24
TORSDOF 8
ENDMDL
MODEL 3
REMARK VINA RESULT:      -2.9      2.035      5.410
REMARK  8 active torsions:
REMARK  status: ('A' for Active; 'I' for Inactive)
REMARK    1  A    between atoms: O_8  and  C_1 
REMARK    2  A    between atoms: C_10  and  C_5 
REMARK    3  A    between atoms: C_12  and  O_8 
REMARK    4  A    between atoms: N_9  and  C_10 
REMARK    5  A    between atoms: C_25  and  N_14 
REMARK    6  A    between atoms: O_24  and  C_17 
REMARK    7  A    between atoms: C_30  and  O_24 
REMARK    8  A    between atoms: C_29  and  C_25 
ROOT
ATOM      1  C   UNL d   1     -39.527  15.833  19.796  0.00  0.00     0.161 A 
ATOM      2  C   UNL d   1     -39.380  15.813  18.141  0.00  0.00     0.108 A 
ATOM      3  C   UNL d   1     -40.137  15.843  18.489  0.00  0.00     0.064 A 
ATOM      4  C   UNL d   1     -40.207  15.853  19.313  0.00  0.00     0.222 A 
ATOM      5  C   UNL d   1     -39.309  15.803  17.317  0.00  0.00     0.079 A 
ATOM      6  O   UNL d   1     -38.694  15.793  18.607  0.00  0.00    -0.305 OA
ATOM      7  C   UNL d   1     -38.773  15.803  19.444  0.00  0.00     0.126 A 
ATOM      8  C   UNL d   1     -40.803  15.863  18.015  0.00  0.00     0.009 A 
ATOM      9  C   UNL d   1     -39.984  15.823  16.846  0.00  0.00     0.199 A 
ATOM     10  O   UNL d   1     -40.954  15.883  19.662  0.00  0.00    -0.284 OA
ATOM     11  C   UNL d   1     -40.731  15.853  17.195  0.00  0.00     0.042 A 
ATOM     12  O   UNL d   1     -39.912  15.813  16.026  0.00  0.00    -0.286 OA
ATOM     13  C   UNL d   1     -38.097  15.784  19.915  0.00  0.00     0.029 C 
ENDROOT
BRANCH   1  14
ATOM     14  O   UNL d   1     -39.603  15.843  20.618  0.00  0.00    -0.300 OA
BRANCH  14  15
ATOM     15  C   UNL d   1     -39.714  15.136  21.025  0.00  0.00     0.123 A 
ATOM     16  C   UNL d   1     -39.512  15.086  21.822  0.00  0.00     0.123 A 
ATOM     17  C   UNL d   1     -39.620  14.385  22.232  0.00  0.00     0.027 A 
ATOM     18  C   UNL d   1     -39.931  13.725  21.850  0.00  0.00     0.002 A 
ATOM     19  C   UNL d   1     -40.137  13.773  21.043  0.00  0.00     0.002 A 
ATOM     20  C   UNL d   1     -40.026  14.480  20.635  0.00  0.00     0.027 A 
BRANCH  16  21
ATOM     21  O   UNL d   1     -39.200  15.745  22.208  0.00  0.00    -0.303 OA
BRANCH  21  22
ATOM     22  C   UNL d   1     -38.952  15.681  22.990  0.00  0.00     0.123 C 
ATOM     23  C   UNL d   1     -38.197  15.922  23.210  0.00  0.00     0.029 C 
ENDBRANCH  21  22
ENDBRANCH  16  21
ENDBRANCH  14  15
ENDBRANCH   1  14
BRANCH   5  24
ATOM     24  C   UNL d   1     -38.566  15.773  16.961  0.00  0.00     0.086 C 
BRANCH  24  25
ATOM     25  N   UNL d   1     -38.412  15.189  16.393  0.00  0.00    -0.300 N 
ATOM     26  C   UNL d   1     -38.347  14.396  16.616  0.00  0.00     0.100 A 
ATOM     27  C   UNL d   1     -38.195  13.822  16.051  0.00  0.00     0.100 A 
ATOM     28  N   UNL d   1     -38.105  14.031  15.257  0.00  0.00    -0.297 N 
ATOM     29  C   UNL d   1     -38.169  14.824  15.033  0.00  0.00     0.100 A 
ATOM     30  C   UNL d   1     -38.323  15.409  15.603  0.00  0.00     0.100 A 
BRANCH  28  31
ATOM     31  C   UNL d   1     -37.952  13.454  14.690  0.00  0.00     0.126 C 
BRANCH  31  32
ATOM     32  C   UNL d   1     -38.484  13.338  14.071  0.00  0.00     0.253 C 
ATOM     33  O   UNL d   1     -38.222  13.008  13.364  0.00  0.00    -0.281 OA
ENDBRANCH  31  32
ENDBRANCH  28  31
ENDBRANCH  24  25
ENDBRANCH   5  24
TORSDOF 8
ENDMDL
