MODEL 1
REMARK VINA RESULT:      -9.3      0.000      0.000
REMARK  3 active torsions:
REMARK  status: ('A' for Active; 'I' for Inactive)
REMARK    1  A    between atoms: N_10  and  C_3 
REMARK    2  A    between atoms: C_11  and  C_4 
REMARK    3  A    between atoms: C_12  and  N_10 
ROOT
ATOM      1  C   UNL d   1      53.227  31.198  53.665  0.00  0.00     0.167 A 
ATOM      2  N   UNL d   1      52.927  31.704  53.080  0.00  0.00    -0.195 N 
ATOM      3  C   UNL d   1      53.034  32.515  53.148  0.00  0.00     0.167 A 
ATOM      4  C   UNL d   1      53.038  30.433  53.449  0.00  0.00     0.057 A 
ATOM      5  N   UNL d   1      52.561  31.239  52.517  0.00  0.00    -0.161 NA
ATOM      6  N   UNL d   1      53.628  31.513  54.308  0.00  0.00    -0.227 NA
ATOM      7  C   UNL d   1      53.440  32.826  53.800  0.00  0.00     0.058 A 
ATOM      8  C   UNL d   1      52.624  30.465  52.736  0.00  0.00     0.124 A 
ATOM      9  C   UNL d   1      53.733  32.332  54.372  0.00  0.00     0.086 A 
ATOM     10  C   UNL d   1      54.137  32.660  55.019  0.00  0.00     0.021 C 
ENDROOT
BRANCH   3  11
ATOM     11  N   UNL d   1      52.735  33.020  52.564  0.00  0.00    -0.227 NA
BRANCH  11  12
ATOM     12  C   UNL d   1      52.194  33.604  52.767  0.00  0.00     0.083 A 
ATOM     13  C   UNL d   1      51.417  33.564  53.042  0.00  0.00     0.019 A 
ATOM     14  C   UNL d   1      51.149  34.335  53.152  0.00  0.00     0.002 A 
ATOM     15  C   UNL d   1      51.748  34.852  52.949  0.00  0.00     0.002 A 
ATOM     16  C   UNL d   1      52.403  34.408  52.708  0.00  0.00     0.019 A 
ENDBRANCH  11  12
ENDBRANCH   3  11
BRANCH   4  17
ATOM     17  C   UNL d   1      53.263  29.797  53.926  0.00  0.00     0.004 A 
ATOM     18  C   UNL d   1      53.942  29.378  53.756  0.00  0.00     0.000 A 
ATOM     19  C   UNL d   1      54.171  28.740  54.232  0.00  0.00     0.000 A 
ATOM     20  C   UNL d   1      53.702  28.530  54.884  0.00  0.00     0.000 A 
ATOM     21  C   UNL d   1      53.018  28.957  55.050  0.00  0.00     0.000 A 
ATOM     22  C   UNL d   1      52.801  29.585  54.575  0.00  0.00     0.000 A 
ENDBRANCH   4  17
TORSDOF 3
ENDMDL
MODEL 2
REMARK VINA RESULT:      -9.0      1.806      4.321
REMARK  3 active torsions:
REMARK  status: ('A' for Active; 'I' for Inactive)
REMARK    1  A    between atoms: N_10  and  C_3 
REMARK    2  A    between atoms: C_11  and  C_4 
REMARK    3  A    between atoms: C_12  and  N_10 
ROOT
ATOM      1  C   UNL d   1      52.246  33.592  52.915  0.00  0.00     0.167 A 
ATOM      2  N   UNL d   1      53.005  33.771  53.197  0.00  0.00    -0.195 N 
ATOM      3  C   UNL d   1      53.520  33.163  53.396  0.00  0.00     0.167 A 
ATOM      4  C   UNL d   1      51.866  34.300  52.766  0.00  0.00     0.057 A 
ATOM      5  N   UNL d   1      53.075  34.585  53.215  0.00  0.00    -0.161 NA
ATOM      6  N   UNL d   1      52.016  32.808  52.837  0.00  0.00    -0.227 NA
ATOM      7  C   UNL d   1      53.281  32.374  53.315  0.00  0.00     0.058 A 
ATOM      8  C   UNL d   1      52.386  34.913  52.954  0.00  0.00     0.124 A 
ATOM      9  C   UNL d   1      52.539  32.199  53.039  0.00  0.00     0.086 A 
ATOM     10  C   UNL d   1      52.314  31.403  52.963  0.00  0.00     0.021 C 
ENDROOT
BRANCH   3  11
ATOM     11  N   UNL d   1      54.278  33.342  53.678  0.00  0.00    -0.227 NA
BRANCH  11  12
ATOM     12  C   UNL d   1      54.443  33.271  54.479  0.00  0.00     0.083 A 
ATOM     13  C   UNL d   1      54.146  32.766  55.060  0.00  0.00     0.019 A 
ATOM     14  C   UNL d   1      54.521  32.952  55.771  0.00  0.00     0.002 A 
ATOM     15  C   UNL d   1      55.045  33.564  55.638  0.00  0.00     0.002 A 
ATOM     16  C   UNL d   1      55.005  33.771  54.838  0.00  0.00     0.019 A 
ENDBRANCH  11  12
ENDBRANCH   3  11
BRANCH   4  17
ATOM     17  C   UNL d   1      51.092  34.306  52.476  0.00  0.00     0.004 A 
ATOM     18  C   UNL d   1      50.954  34.240  51.675  0.00  0.00     0.000 A 
ATOM     19  C   UNL d   1      50.179  34.245  51.381  0.00  0.00     0.000 A 
ATOM     20  C   UNL d   1      49.544  34.318  51.911  0.00  0.00     0.000 A 
ATOM     21  C   UNL d   1      49.690  34.384  52.719  0.00  0.00     0.000 A 
ATOM     22  C   UNL d   1      50.458  34.378  52.998  0.00  0.00     0.000 A 
ENDBRANCH   4  17
TORSDOF 3
ENDMDL
MODEL 3
REMARK VINA RESULT:      -8.8      1.301      4.267
REMARK  3 active torsions:
REMARK  status: ('A' for Active; 'I' for Inactive)
REMARK    1  A    between atoms: N_10  and  C_3 
REMARK    2  A    between atoms: C_11  and  C_4 
REMARK    3  A    between atoms: C_12  and  N_10 
ROOT
ATOM      1  C   UNL d   1      53.244  32.996  53.735  0.00  0.00     0.167 A 
ATOM      2  N   UNL d   1      53.650  32.282  53.620  0.00  0.00    -0.195 N 
ATOM      3  C   UNL d   1      53.265  31.644  53.275  0.00  0.00     0.167 A 
ATOM      4  C   UNL d   1      53.762  33.521  54.085  0.00  0.00     0.057 A 
ATOM      5  N   UNL d   1      54.410  32.384  53.903  0.00  0.00    -0.161 NA
ATOM      6  N   UNL d   1      52.459  33.059  53.502  0.00  0.00    -0.227 NA
ATOM      7  C   UNL d   1      52.473  31.715  53.042  0.00  0.00     0.058 A 
ATOM      8  C   UNL d   1      54.485  33.135  54.187  0.00  0.00     0.124 A 
ATOM      9  C   UNL d   1      52.076  32.413  53.154  0.00  0.00     0.086 A 
ATOM     10  C   UNL d   1      51.282  32.467  52.915  0.00  0.00     0.021 C 
ENDROOT
BRANCH   3  11
ATOM     11  N   UNL d   1      53.671  30.932  53.160  0.00  0.00    -0.227 NA
BRANCH  11  12
ATOM     12  C   UNL d   1      53.344  30.228  53.428  0.00  0.00     0.083 A 
ATOM     13  C   UNL d   1      52.703  29.782  53.164  0.00  0.00     0.019 A 
ATOM     14  C   UNL d   1      52.634  29.123  53.653  0.00  0.00     0.002 A 
ATOM     15  C   UNL d   1      53.224  29.154  54.217  0.00  0.00     0.002 A 
ATOM     16  C   UNL d   1      53.672  29.838  54.087  0.00  0.00     0.019 A 
ENDBRANCH  11  12
ENDBRANCH   3  11
BRANCH   4  17
ATOM     17  C   UNL d   1      53.518  34.288  54.272  0.00  0.00     0.004 A 
ATOM     18  C   UNL d   1      53.498  34.863  53.693  0.00  0.00     0.000 A 
ATOM     19  C   UNL d   1      53.253  35.633  53.876  0.00  0.00     0.000 A 
ATOM     20  C   UNL d   1      53.029  35.814  54.655  0.00  0.00     0.000 A 
ATOM     21  C   UNL d   1      53.051  35.229  55.234  0.00  0.00     0.000 A 
ATOM     22  C   UNL d   1      53.294  34.473  55.043  0.00  0.00     0.000 A 
ENDBRANCH   4  17
TORSDOF 3
ENDMDL
MODEL 4
REMARK VINA RESULT:      -8.7      1.315      2.021
REMARK  3 active torsions:
REMARK  status: ('A' for Active; 'I' for Inactive)
REMARK    1  A    between atoms: N_10  and  C_3 
REMARK    2  A    between atoms: C_11  and  C_4 
REMARK    3  A    between atoms: C_12  and  N_10 
ROOT
ATOM      1  C   UNL d   1      53.021  32.158  53.416  0.00  0.00     0.167 A 
ATOM      2  N   UNL d   1      53.433  32.877  53.459  0.00  0.00    -0.195 N 
ATOM      3  C   UNL d   1      53.020  33.586  53.430  0.00  0.00     0.167 A 
ATOM      4  C   UNL d   1      53.571  31.556  53.457  0.00  0.00     0.057 A 
ATOM      5  N   UNL d   1      54.228  32.701  53.525  0.00  0.00    -0.161 NA
ATOM      6  N   UNL d   1      52.203  32.162  53.346  0.00  0.00    -0.227 NA
ATOM      7  C   UNL d   1      52.194  33.583  53.360  0.00  0.00     0.058 A 
ATOM      8  C   UNL d   1      54.319  31.899  53.525  0.00  0.00     0.124 A 
ATOM      9  C   UNL d   1      51.791  32.880  53.318  0.00  0.00     0.086 A 
ATOM     10  C   UNL d   1      50.964  32.893  53.248  0.00  0.00     0.021 C 
ENDROOT
BRANCH   3  11
ATOM     11  N   UNL d   1      53.431  34.303  53.473  0.00  0.00    -0.227 NA
BRANCH  11  12
ATOM     12  C   UNL d   1      53.273  34.829  54.084  0.00  0.00     0.083 A 
ATOM     13  C   UNL d   1      53.310  34.748  54.904  0.00  0.00     0.019 A 
ATOM     14  C   UNL d   1      53.087  35.467  55.239  0.00  0.00     0.002 A 
ATOM     15  C   UNL d   1      52.913  35.992  54.638  0.00  0.00     0.002 A 
ATOM     16  C   UNL d   1      53.025  35.606  53.915  0.00  0.00     0.019 A 
ENDBRANCH  11  12
ENDBRANCH   3  11
BRANCH   4  17
ATOM     17  C   UNL d   1      53.329  30.766  53.429  0.00  0.00     0.004 A 
ATOM     18  C   UNL d   1      53.099  30.434  52.720  0.00  0.00     0.000 A 
ATOM     19  C   UNL d   1      52.857  29.642  52.688  0.00  0.00     0.000 A 
ATOM     20  C   UNL d   1      52.850  29.191  53.385  0.00  0.00     0.000 A 
ATOM     21  C   UNL d   1      53.083  29.532  54.096  0.00  0.00     0.000 A 
ATOM     22  C   UNL d   1      53.321  30.313  54.118  0.00  0.00     0.000 A 
ENDBRANCH   4  17
TORSDOF 3
ENDMDL
MODEL 5
REMARK VINA RESULT:      -8.3      0.640      4.094
REMARK  3 active torsions:
REMARK  status: ('A' for Active; 'I' for Inactive)
REMARK    1  A    between atoms: N_10  and  C_3 
REMARK    2  A    between atoms: C_11  and  C_4 
REMARK    3  A    between atoms: C_12  and  N_10 
ROOT
ATOM      1  C   UNL d   1      52.834  32.333  53.431  0.00  0.00     0.167 A 
ATOM      2  N   UNL d   1      52.970  31.542  53.226  0.00  0.00    -0.195 N 
ATOM      3  C   UNL d   1      53.499  31.092  53.666  0.00  0.00     0.167 A 
ATOM      4  C   UNL d   1      52.288  32.634  52.902  0.00  0.00     0.057 A 
ATOM      5  N   UNL d   1      52.506  31.372  52.576  0.00  0.00    -0.161 NA
ATOM      6  N   UNL d   1      53.229  32.662  54.071  0.00  0.00    -0.227 NA
ATOM      7  C   UNL d   1      53.894  31.430  54.311  0.00  0.00     0.058 A 
ATOM      8  C   UNL d   1      52.089  32.032  52.373  0.00  0.00     0.124 A 
ATOM      9  C   UNL d   1      53.761  32.205  54.510  0.00  0.00     0.086 A 
ATOM     10  C   UNL d   1      54.165  32.529  55.160  0.00  0.00     0.021 C 
ENDROOT
BRANCH   3  11
ATOM     11  N   UNL d   1      53.635  30.301  53.461  0.00  0.00    -0.227 NA
BRANCH  11  12
ATOM     12  C   UNL d   1      53.500  29.708  54.014  0.00  0.00     0.083 A 
ATOM     13  C   UNL d   1      52.878  29.575  54.538  0.00  0.00     0.019 A 
ATOM     14  C   UNL d   1      53.046  28.886  54.959  0.00  0.00     0.002 A 
ATOM     15  C   UNL d   1      53.763  28.592  54.702  0.00  0.00     0.002 A 
ATOM     16  C   UNL d   1      54.055  29.095  54.114  0.00  0.00     0.019 A 
ENDBRANCH  11  12
ENDBRANCH   3  11
BRANCH   4  17
ATOM     17  C   UNL d   1      52.037  33.419  52.961  0.00  0.00     0.004 A 
ATOM     18  C   UNL d   1      52.517  34.024  52.699  0.00  0.00     0.000 A 
ATOM     19  C   UNL d   1      52.268  34.812  52.757  0.00  0.00     0.000 A 
ATOM     20  C   UNL d   1      51.524  34.980  53.085  0.00  0.00     0.000 A 
ATOM     21  C   UNL d   1      51.044  34.365  53.347  0.00  0.00     0.000 A 
ATOM     22  C   UNL d   1      51.299  33.591  53.286  0.00  0.00     0.000 A 
ENDBRANCH   4  17
TORSDOF 3
ENDMDL
MODEL 6
REMARK VINA RESULT:      -8.0      2.096      3.434
REMARK  3 active torsions:
REMARK  status: ('A' for Active; 'I' for Inactive)
REMARK    1  A    between atoms: N_10  and  C_3 
REMARK    2  A    between atoms: C_11  and  C_4 
REMARK    3  A    between atoms: C_12  and  N_10 
ROOT
ATOM      1  C   UNL d   1      52.880  33.802  53.513  0.00  0.00     0.167 A 
ATOM      2  N   UNL d   1      52.406  34.275  53.024  0.00  0.00    -0.195 N 
ATOM      3  C   UNL d   1      51.845  33.926  52.537  0.00  0.00     0.167 A 
ATOM      4  C   UNL d   1      53.379  34.297  53.927  0.00  0.00     0.057 A 
ATOM      5  N   UNL d   1      52.625  35.053  53.149  0.00  0.00    -0.161 NA
ATOM      6  N   UNL d   1      52.784  32.986  53.505  0.00  0.00    -0.227 NA
ATOM      7  C   UNL d   1      51.753  33.103  52.534  0.00  0.00     0.058 A 
ATOM      8  C   UNL d   1      53.216  35.073  53.697  0.00  0.00     0.124 A 
ATOM      9  C   UNL d   1      52.216  32.639  53.012  0.00  0.00     0.086 A 
ATOM     10  C   UNL d   1      52.112  31.815  52.998  0.00  0.00     0.021 C 
ENDROOT
BRANCH   3  11
ATOM     11  N   UNL d   1      51.372  34.399  52.049  0.00  0.00    -0.227 NA
BRANCH  11  12
ATOM     12  C   UNL d   1      50.557  34.403  52.150  0.00  0.00     0.083 A 
ATOM     13  C   UNL d   1      50.085  34.509  52.818  0.00  0.00     0.019 A 
ATOM     14  C   UNL d   1      49.297  34.456  52.581  0.00  0.00     0.002 A 
ATOM     15  C   UNL d   1      49.275  34.318  51.777  0.00  0.00     0.002 A 
ATOM     16  C   UNL d   1      50.053  34.284  51.498  0.00  0.00     0.019 A 
ENDBRANCH  11  12
ENDBRANCH   3  11
BRANCH   4  17
ATOM     17  C   UNL d   1      53.924  33.987  54.466  0.00  0.00     0.004 A 
ATOM     18  C   UNL d   1      53.708  33.865  55.243  0.00  0.00     0.000 A 
ATOM     19  C   UNL d   1      54.251  33.554  55.785  0.00  0.00     0.000 A 
ATOM     20  C   UNL d   1      55.019  33.368  55.530  0.00  0.00     0.000 A 
ATOM     21  C   UNL d   1      55.231  33.494  54.744  0.00  0.00     0.000 A 
ATOM     22  C   UNL d   1      54.688  33.801  54.217  0.00  0.00     0.000 A 
ENDBRANCH   4  17
TORSDOF 3
ENDMDL
