MODEL 1
REMARK VINA RESULT:      -5.1      0.000      0.000
REMARK  3 active torsions:
REMARK  status: ('A' for Active; 'I' for Inactive)
REMARK    1  A    between atoms: N_7  and  S_1 
REMARK    2  A    between atoms: C_3  and  C_8 
REMARK    3  A    between atoms: C_13  and  N_7 
ROOT
ATOM      1  C   UNL d   1      57.099   0.004  31.502  0.00  0.00     0.018 A 
ATOM      2  C   UNL d   1      56.637   0.637  31.739  0.00  0.00     0.003 A 
ATOM      3  C   UNL d   1      56.984  -0.742  31.839  0.00  0.00     0.003 A 
ATOM      4  C   UNL d   1      55.936  -0.196  32.650  0.00  0.00     0.093 A 
ATOM      5  C   UNL d   1      56.054   0.539  32.313  0.00  0.00     0.020 A 
ATOM      6  C   UNL d   1      56.405  -0.843  32.411  0.00  0.00     0.020 A 
ENDROOT
BRANCH   1   7
ATOM      7  C   UNL d   1      57.682   0.101  30.927  0.00  0.00     0.088 A 
ATOM      8  N   UNL d   1      57.767  -0.352  30.245  0.00  0.00    -0.239 NA
ATOM      9  C   UNL d   1      58.415  -0.070  29.831  0.00  0.00     0.111 A 
ATOM     10  C   UNL d   1      58.699  -0.370  29.107  0.00  0.00     0.028 C 
ATOM     11  S   UNL d   1      58.737   0.561  30.254  0.00  0.00    -0.066 SA
ATOM     12  C   UNL d   1      58.281   0.667  30.937  0.00  0.00     0.056 A 
ENDBRANCH   1   7
BRANCH   4  13
ATOM     13  N   UNL d   1      55.353  -0.303  33.227  0.00  0.00    -0.162 NA
BRANCH  13  14
ATOM     14  S   UNL d   1      55.466   0.075  33.954  0.00  0.00     0.266 S 
ATOM     15  O   UNL d   1      56.169  -0.418  34.110  0.00  0.00    -0.203 OA
ATOM     16  O   UNL d   1      54.619   0.624  33.697  0.00  0.00    -0.203 OA
ATOM     17  C   UNL d   1      55.467   0.682  34.886  0.00  0.00     0.165 C 
ENDBRANCH  13  14
ENDBRANCH   4  13
TORSDOF 3
ENDMDL
MODEL 2
REMARK VINA RESULT:      -4.4      1.808      3.964
REMARK  3 active torsions:
REMARK  status: ('A' for Active; 'I' for Inactive)
REMARK    1  A    between atoms: N_7  and  S_1 
REMARK    2  A    between atoms: C_3  and  C_8 
REMARK    3  A    between atoms: C_13  and  N_7 
ROOT
ATOM      1  C   UNL d   1      56.509   0.099  32.378  0.00  0.00     0.018 A 
ATOM      2  C   UNL d   1      56.700   0.682  31.836  0.00  0.00     0.003 A 
ATOM      3  C   UNL d   1      56.667  -0.695  32.206  0.00  0.00     0.003 A 
ATOM      4  C   UNL d   1      57.209  -0.295  30.940  0.00  0.00     0.093 A 
ATOM      5  C   UNL d   1      57.050   0.488  31.117  0.00  0.00     0.020 A 
ATOM      6  C   UNL d   1      57.016  -0.891  31.490  0.00  0.00     0.020 A 
ENDROOT
BRANCH   1   7
ATOM      7  C   UNL d   1      56.158   0.291  33.099  0.00  0.00     0.088 A 
ATOM      8  N   UNL d   1      55.349   0.359  33.239  0.00  0.00    -0.239 NA
ATOM      9  C   UNL d   1      55.243   0.558  34.027  0.00  0.00     0.111 A 
ATOM     10  C   UNL d   1      54.511   0.682  34.404  0.00  0.00     0.028 C 
ATOM     11  S   UNL d   1      55.987   0.616  34.381  0.00  0.00    -0.066 SA
ATOM     12  C   UNL d   1      56.556   0.450  33.803  0.00  0.00     0.056 A 
ENDBRANCH   1   7
BRANCH   4  13
ATOM     13  N   UNL d   1      57.560  -0.498  30.220  0.00  0.00    -0.162 NA
BRANCH  13  14
ATOM     14  S   UNL d   1      58.351  -0.283  30.111  0.00  0.00     0.266 S 
ATOM     15  O   UNL d   1      58.613  -0.998  30.537  0.00  0.00    -0.203 OA
ATOM     16  O   UNL d   1      57.963   0.547  29.615  0.00  0.00    -0.203 OA
ATOM     17  C   UNL d   1      59.346   0.155  29.875  0.00  0.00     0.165 C 
ENDBRANCH  13  14
ENDBRANCH   4  13
TORSDOF 3
ENDMDL
MODEL 3
REMARK VINA RESULT:      -3.6      1.260      1.667
REMARK  3 active torsions:
REMARK  status: ('A' for Active; 'I' for Inactive)
REMARK    1  A    between atoms: N_7  and  S_1 
REMARK    2  A    between atoms: C_3  and  C_8 
REMARK    3  A    between atoms: C_13  and  N_7 
ROOT
ATOM      1  C   UNL d   1      57.760  -0.511  30.613  0.00  0.00     0.018 A 
ATOM      2  C   UNL d   1      57.313  -0.957  31.132  0.00  0.00     0.003 A 
ATOM      3  C   UNL d   1      57.735   0.315  30.648  0.00  0.00     0.003 A 
ATOM      4  C   UNL d   1      56.804   0.224  31.734  0.00  0.00     0.093 A 
ATOM      5  C   UNL d   1      56.834  -0.593  31.694  0.00  0.00     0.020 A 
ATOM      6  C   UNL d   1      57.259   0.682  31.207  0.00  0.00     0.020 A 
ENDROOT
BRANCH   1   7
ATOM      7  C   UNL d   1      58.241  -0.875  30.050  0.00  0.00     0.088 A 
ATOM      8  N   UNL d   1      58.195  -1.662  29.813  0.00  0.00    -0.239 NA
ATOM      9  C   UNL d   1      58.772  -1.791  29.246  0.00  0.00     0.111 A 
ATOM     10  C   UNL d   1      58.920  -2.513  28.857  0.00  0.00     0.028 C 
ATOM     11  S   UNL d   1      59.180  -1.083  29.127  0.00  0.00    -0.066 SA
ATOM     12  C   UNL d   1      58.849  -0.513  29.627  0.00  0.00     0.056 A 
ENDBRANCH   1   7
BRANCH   4  13
ATOM     13  N   UNL d   1      56.325   0.597  32.295  0.00  0.00    -0.162 NA
BRANCH  13  14
ATOM     14  S   UNL d   1      56.337   0.295  33.065  0.00  0.00     0.266 S 
ATOM     15  O   UNL d   1      57.131   0.633  33.194  0.00  0.00    -0.203 OA
ATOM     16  O   UNL d   1      55.391  -0.077  32.835  0.00  0.00    -0.203 OA
ATOM     17  C   UNL d   1      56.183  -0.179  34.059  0.00  0.00     0.165 C 
ENDBRANCH  13  14
ENDBRANCH   4  13
TORSDOF 3
ENDMDL
