MODEL 1
REMARK VINA RESULT:      48.3      0.000      0.000
REMARK  5 active torsions:
REMARK  status: ('A' for Active; 'I' for Inactive)
REMARK    1  A    between atoms: C_10  and  N_6 
REMARK    2  A    between atoms: N_13  and  C_9 
REMARK    3  A    between atoms: C_14  and  C_10 
REMARK    4  A    between atoms: C_21  and  N_13 
REMARK    5  A    between atoms: C_24  and  C_21 
ROOT
ATOM      1  C   UNL d   1      13.767  13.713  -3.694  0.00  0.00     0.176 A 
ATOM      2  C   UNL d   1      13.485  13.092  -3.277  0.00  0.00     0.159 A 
ATOM      3  N   UNL d   1      14.075  14.354  -3.326  0.00  0.00    -0.181 NA
ATOM      4  N   UNL d   1      13.745  13.701  -4.505  0.00  0.00    -0.240 N 
ATOM      5  N   UNL d   1      13.157  12.442  -4.467  0.00  0.00    -0.223 N 
ATOM      6  N   UNL d   1      13.811  13.736  -2.099  0.00  0.00    -0.258 N 
ATOM      7  C   UNL d   1      13.444  13.073  -4.891  0.00  0.00     0.343 A 
ATOM      8  C   UNL d   1      13.180  12.456  -3.669  0.00  0.00     0.287 A 
ATOM      9  C   UNL d   1      14.098  14.371  -2.539  0.00  0.00     0.292 A 
ATOM     10  O   UNL d   1      13.420  13.057  -5.699  0.00  0.00    -0.245 OA
ATOM     11  O   UNL d   1      12.890  11.819  -3.241  0.00  0.00    -0.265 OA
ATOM     12  C   UNL d   1      14.030  14.328  -4.926  0.00  0.00     0.105 C 
ATOM     13  C   UNL d   1      12.839  11.780  -4.865  0.00  0.00     0.107 C 
ENDROOT
BRANCH   6  14
ATOM     14  C   UNL d   1      13.659  13.380  -1.371  0.00  0.00     0.084 C 
BRANCH  14  15
ATOM     15  C   UNL d   1      14.204  12.844  -1.040  0.00  0.00     0.018 A 
ATOM     16  C   UNL d   1      14.965  12.807  -1.354  0.00  0.00     0.002 A 
ATOM     17  C   UNL d   1      15.511  12.272  -1.023  0.00  0.00     0.000 A 
ATOM     18  C   UNL d   1      16.309  12.074  -1.179  0.00  0.00     0.000 C 
ATOM     19  C   UNL d   1      15.286  11.781  -0.383  0.00  0.00     0.000 A 
ATOM     20  C   UNL d   1      14.516  11.838  -0.087  0.00  0.00     0.000 A 
ATOM     21  C   UNL d   1      13.977  12.368  -0.414  0.00  0.00     0.002 A 
ENDBRANCH  14  15
ENDBRANCH   6  14
BRANCH   9  22
ATOM     22  N   UNL d   1      14.400  14.999  -2.152  0.00  0.00    -0.365 NA
BRANCH  22  23
ATOM     23  C   UNL d   1      14.688  15.755  -1.951  0.00  0.00     0.164 C 
BRANCH  23  24
ATOM     24  C   UNL d   1      15.197  15.847  -1.290  0.00  0.00     0.035 C 
ATOM     25  C   UNL d   1      15.188  16.553  -0.845  0.00  0.00     0.003 C 
ENDBRANCH  23  24
ENDBRANCH  22  23
ENDBRANCH   9  22
TORSDOF 5
ENDMDL
MODEL 2
REMARK VINA RESULT:      48.8      1.427      3.114
REMARK  5 active torsions:
REMARK  status: ('A' for Active; 'I' for Inactive)
REMARK    1  A    between atoms: C_10  and  N_6 
REMARK    2  A    between atoms: N_13  and  C_9 
REMARK    3  A    between atoms: C_14  and  C_10 
REMARK    4  A    between atoms: C_21  and  N_13 
REMARK    5  A    between atoms: C_24  and  C_21 
ROOT
ATOM      1  C   UNL d   1      13.824  14.418  -3.982  0.00  0.00     0.176 A 
ATOM      2  C   UNL d   1      13.911  14.457  -3.188  0.00  0.00     0.159 A 
ATOM      3  N   UNL d   1      13.532  13.762  -4.334  0.00  0.00    -0.181 NA
ATOM      4  N   UNL d   1      14.032  15.051  -4.445  0.00  0.00    -0.240 N 
ATOM      5  N   UNL d   1      14.413  15.754  -3.307  0.00  0.00    -0.223 N 
ATOM      6  N   UNL d   1      13.414  13.173  -3.071  0.00  0.00    -0.258 N 
ATOM      7  C   UNL d   1      14.324  15.714  -4.114  0.00  0.00     0.343 A 
ATOM      8  C   UNL d   1      14.207  15.129  -2.853  0.00  0.00     0.287 A 
ATOM      9  C   UNL d   1      13.328  13.144  -3.890  0.00  0.00     0.292 A 
ATOM     10  O   UNL d   1      14.533  16.346  -4.572  0.00  0.00    -0.245 OA
ATOM     11  O   UNL d   1      14.296  15.169  -2.039  0.00  0.00    -0.265 OA
ATOM     12  C   UNL d   1      13.944  15.011  -5.246  0.00  0.00     0.105 C 
ATOM     13  C   UNL d   1      14.719  16.446  -2.953  0.00  0.00     0.107 C 
ENDROOT
BRANCH   6  14
ATOM     14  C   UNL d   1      13.340  12.819  -2.330  0.00  0.00     0.084 C 
BRANCH  14  15
ATOM     15  C   UNL d   1      14.017  12.584  -1.904  0.00  0.00     0.018 A 
ATOM     16  C   UNL d   1      14.170  12.939  -1.175  0.00  0.00     0.002 A 
ATOM     17  C   UNL d   1      14.846  12.705  -0.749  0.00  0.00     0.000 A 
ATOM     18  C   UNL d   1      15.184  12.924  -0.015  0.00  0.00     0.000 C 
ATOM     19  C   UNL d   1      15.359  12.119  -1.059  0.00  0.00     0.000 A 
ATOM     20  C   UNL d   1      15.182  11.780  -1.791  0.00  0.00     0.000 A 
ATOM     21  C   UNL d   1      14.513  12.012  -2.213  0.00  0.00     0.002 A 
ENDBRANCH  14  15
ENDBRANCH   6  14
BRANCH   9  22
ATOM     22  N   UNL d   1      13.036  12.481  -4.221  0.00  0.00    -0.365 NA
BRANCH  22  23
ATOM     23  C   UNL d   1      12.928  11.791  -4.678  0.00  0.00     0.164 C 
BRANCH  23  24
ATOM     24  C   UNL d   1      12.996  11.828  -5.513  0.00  0.00     0.035 C 
ATOM     25  C   UNL d   1      13.744  11.780  -5.878  0.00  0.00     0.003 C 
ENDBRANCH  23  24
ENDBRANCH  22  23
ENDBRANCH   9  22
TORSDOF 5
ENDMDL
MODEL 3
REMARK VINA RESULT:      50.9      1.682      3.990
REMARK  5 active torsions:
REMARK  status: ('A' for Active; 'I' for Inactive)
REMARK    1  A    between atoms: C_10  and  N_6 
REMARK    2  A    between atoms: N_13  and  C_9 
REMARK    3  A    between atoms: C_14  and  C_10 
REMARK    4  A    between atoms: C_21  and  N_13 
REMARK    5  A    between atoms: C_24  and  C_21 
ROOT
ATOM      1  C   UNL d   1      14.780  14.708  -1.607  0.00  0.00     0.176 A 
ATOM      2  C   UNL d   1      14.353  15.038  -2.197  0.00  0.00     0.159 A 
ATOM      3  N   UNL d   1      14.711  13.930  -1.431  0.00  0.00    -0.181 NA
ATOM      4  N   UNL d   1      15.293  15.163  -1.174  0.00  0.00    -0.240 N 
ATOM      5  N   UNL d   1      14.943  16.274  -1.932  0.00  0.00    -0.223 N 
ATOM      6  N   UNL d   1      13.769  13.813  -2.459  0.00  0.00    -0.258 N 
ATOM      7  C   UNL d   1      15.376  15.939  -1.333  0.00  0.00     0.343 A 
ATOM      8  C   UNL d   1      14.437  15.824  -2.357  0.00  0.00     0.287 A 
ATOM      9  C   UNL d   1      14.214  13.484  -1.849  0.00  0.00     0.292 A 
ATOM     10  O   UNL d   1      15.887  16.396  -0.903  0.00  0.00    -0.245 OA
ATOM     11  O   UNL d   1      14.000  16.163  -2.962  0.00  0.00    -0.265 OA
ATOM     12  C   UNL d   1      15.724  14.830  -0.579  0.00  0.00     0.105 C 
ATOM     13  C   UNL d   1      15.025  17.088  -2.104  0.00  0.00     0.107 C 
ENDROOT
BRANCH   6  14
ATOM     14  C   UNL d   1      13.213  13.735  -3.062  0.00  0.00     0.084 C 
BRANCH  14  15
ATOM     15  C   UNL d   1      13.280  13.122  -3.623  0.00  0.00     0.018 A 
ATOM     16  C   UNL d   1      13.665  13.277  -4.336  0.00  0.00     0.002 A 
ATOM     17  C   UNL d   1      13.732  12.665  -4.897  0.00  0.00     0.000 A 
ATOM     18  C   UNL d   1      14.071  12.601  -5.660  0.00  0.00     0.000 C 
ATOM     19  C   UNL d   1      13.413  11.907  -4.736  0.00  0.00     0.000 A 
ATOM     20  C   UNL d   1      13.033  11.780  -4.014  0.00  0.00     0.000 A 
ATOM     21  C   UNL d   1      12.966  12.385  -3.459  0.00  0.00     0.002 A 
ENDBRANCH  14  15
ENDBRANCH   6  14
BRANCH   9  22
ATOM     22  N   UNL d   1      14.131  12.707  -1.690  0.00  0.00    -0.365 NA
BRANCH  22  23
ATOM     23  C   UNL d   1      14.222  11.935  -1.388  0.00  0.00     0.164 C 
BRANCH  23  24
ATOM     24  C   UNL d   1      14.061  11.779  -0.580  0.00  0.00     0.035 C 
ATOM     25  C   UNL d   1      14.672  11.811  -0.014  0.00  0.00     0.003 C 
ENDBRANCH  23  24
ENDBRANCH  22  23
ENDBRANCH   9  22
TORSDOF 5
ENDMDL
