MODEL 1
REMARK VINA RESULT:      30.9      0.000      0.000
REMARK  6 active torsions:
REMARK  status: ('A' for Active; 'I' for Inactive)
REMARK    1  A    between atoms: C_6  and  N_2 
REMARK    2  A    between atoms: C_7  and  C_3 
REMARK    3  A    between atoms: C_10  and  C_6 
REMARK    4  A    between atoms: C_15  and  C_7 
REMARK    5  A    between atoms: O_8  and  C_10 
REMARK    6  A    between atoms: C_9  and  O_8 
ROOT
ATOM      1  N   UNL d   1      13.529  11.781  -2.130  0.00  0.00    -0.227 NA
ATOM      2  N   UNL d   1      14.039  12.950  -2.529  0.00  0.00    -0.287 N 
ATOM      3  C   UNL d   1      13.547  12.317  -2.772  0.00  0.00     0.148 A 
ATOM      4  C   UNL d   1      14.307  12.802  -1.769  0.00  0.00     0.083 A 
ATOM      5  C   UNL d   1      13.979  12.048  -1.512  0.00  0.00     0.099 A 
ATOM      6  C   UNL d   1      14.795  13.235  -1.282  0.00  0.00     0.019 A 
ATOM      7  C   UNL d   1      14.195  11.804  -0.744  0.00  0.00     0.021 A 
ATOM      8  C   UNL d   1      14.961  12.934  -0.548  0.00  0.00     0.002 A 
ATOM      9  C   UNL d   1      14.653  12.228  -0.307  0.00  0.00     0.002 A 
ENDROOT
BRANCH   2  10
ATOM     10  C   UNL d   1      14.122  13.524  -3.080  0.00  0.00     0.108 C 
BRANCH  10  11
ATOM     11  C   UNL d   1      14.016  14.317  -2.908  0.00  0.00     0.142 C 
BRANCH  11  12
ATOM     12  O   UNL d   1      13.935  14.892  -3.482  0.00  0.00    -0.304 OA
BRANCH  12  13
ATOM     13  C   UNL d   1      14.362  15.597  -3.481  0.00  0.00     0.100 A 
ATOM     14  C   UNL d   1      14.519  16.036  -2.801  0.00  0.00     0.025 A 
ATOM     15  C   UNL d   1      14.946  16.740  -2.802  0.00  0.00     0.002 A 
ATOM     16  C   UNL d   1      15.235  17.025  -3.529  0.00  0.00     0.000 A 
ATOM     17  C   UNL d   1      15.089  16.598  -4.234  0.00  0.00     0.002 A 
ATOM     18  C   UNL d   1      14.651  15.882  -4.209  0.00  0.00     0.025 A 
ENDBRANCH  12  13
ENDBRANCH  11  12
ENDBRANCH  10  11
ENDBRANCH   2  10
BRANCH   3  19
ATOM     19  C   UNL d   1      13.380  12.613  -3.504  0.00  0.00     0.037 C 
BRANCH  19  20
ATOM     20  C   UNL d   1      12.944  12.148  -4.047  0.00  0.00     0.003 C 
ATOM     21  C   UNL d   1      13.054  12.240  -4.869  0.00  0.00     0.000 C 
ENDBRANCH  19  20
ENDBRANCH   3  19
TORSDOF 6
ENDMDL
MODEL 2
REMARK VINA RESULT:      31.1      1.237      2.734
REMARK  6 active torsions:
REMARK  status: ('A' for Active; 'I' for Inactive)
REMARK    1  A    between atoms: C_6  and  N_2 
REMARK    2  A    between atoms: C_7  and  C_3 
REMARK    3  A    between atoms: C_10  and  C_6 
REMARK    4  A    between atoms: C_15  and  C_7 
REMARK    5  A    between atoms: O_8  and  C_10 
REMARK    6  A    between atoms: C_9  and  O_8 
ROOT
ATOM      1  N   UNL d   1      13.484  11.779  -2.594  0.00  0.00    -0.227 NA
ATOM      2  N   UNL d   1      14.189  12.896  -2.384  0.00  0.00    -0.287 N 
ATOM      3  C   UNL d   1      13.982  12.161  -2.039  0.00  0.00     0.148 A 
ATOM      4  C   UNL d   1      13.830  12.955  -3.118  0.00  0.00     0.083 A 
ATOM      5  C   UNL d   1      13.376  12.235  -3.254  0.00  0.00     0.099 A 
ATOM      6  C   UNL d   1      13.849  13.549  -3.675  0.00  0.00     0.019 A 
ATOM      7  C   UNL d   1      12.969  12.197  -3.981  0.00  0.00     0.021 A 
ATOM      8  C   UNL d   1      13.429  13.441  -4.358  0.00  0.00     0.002 A 
ATOM      9  C   UNL d   1      13.003  12.766  -4.485  0.00  0.00     0.002 A 
ENDROOT
BRANCH   2  10
ATOM     10  C   UNL d   1      14.669  13.343  -1.927  0.00  0.00     0.108 C 
BRANCH  10  11
ATOM     11  C   UNL d   1      14.615  14.159  -1.902  0.00  0.00     0.142 C 
BRANCH  11  12
ATOM     12  O   UNL d   1      14.701  14.591  -1.214  0.00  0.00    -0.304 OA
BRANCH  12  13
ATOM     13  C   UNL d   1      14.927  15.384  -1.201  0.00  0.00     0.100 A 
ATOM     14  C   UNL d   1      14.765  15.916  -1.809  0.00  0.00     0.025 A 
ATOM     15  C   UNL d   1      14.991  16.707  -1.796  0.00  0.00     0.002 A 
ATOM     16  C   UNL d   1      15.407  16.986  -1.130  0.00  0.00     0.000 A 
ATOM     17  C   UNL d   1      15.584  16.466  -0.498  0.00  0.00     0.002 A 
ATOM     18  C   UNL d   1      15.343  15.663  -0.535  0.00  0.00     0.025 A 
ENDBRANCH  12  13
ENDBRANCH  11  12
ENDBRANCH  10  11
ENDBRANCH   2  10
BRANCH   3  19
ATOM     19  C   UNL d   1      14.399  12.265  -1.357  0.00  0.00     0.037 C 
BRANCH  19  20
ATOM     20  C   UNL d   1      13.990  12.335  -0.629  0.00  0.00     0.003 C 
ATOM     21  C   UNL d   1      14.111  11.779  -0.019  0.00  0.00     0.000 C 
ENDBRANCH  19  20
ENDBRANCH   3  19
TORSDOF 6
ENDMDL
