MODEL 1
REMARK VINA RESULT:      -7.3      0.000      0.000
REMARK  5 active torsions:
REMARK  status: ('A' for Active; 'I' for Inactive)
REMARK    1  A    between atoms: C_15  and  C_4 
REMARK    2  A    between atoms: S_10  and  C_5 
REMARK    3  A    between atoms: C_17  and  S_10 
REMARK    4  A    between atoms: C_11  and  C_14 
REMARK    5  A    between atoms: C_14  and  C_17 
ROOT
ATOM      1  N   UNL d   1     -47.999  13.415  22.980  0.00  0.00    -0.206 N 
ATOM      2  C   UNL d   1     -48.748  13.760  23.015  0.00  0.00     0.166 A 
ATOM      3  N   UNL d   1     -47.457  14.646  22.569  0.00  0.00    -0.163 NA
ATOM      4  C   UNL d   1     -48.851  14.542  22.829  0.00  0.00     0.055 A 
ATOM      5  C   UNL d   1     -47.918  12.636  23.169  0.00  0.00     0.116 A 
ATOM      6  C   UNL d   1     -48.193  14.985  22.604  0.00  0.00     0.104 A 
ATOM      7  N   UNL d   1     -49.396  13.317  23.239  0.00  0.00    -0.227 NA
ATOM      8  C   UNL d   1     -48.554  12.178  23.394  0.00  0.00     0.045 A 
ATOM      9  C   UNL d   1     -49.299  12.521  23.429  0.00  0.00     0.085 A 
ATOM     10  C   UNL d   1     -48.299  15.763  22.419  0.00  0.00     0.023 C 
ATOM     11  C   UNL d   1     -49.976  12.058  23.663  0.00  0.00     0.021 C 
ENDROOT
BRANCH   5  12
ATOM     12  S   UNL d   1     -47.146  12.280  23.132  0.00  0.00    -0.064 SA
BRANCH  12  13
ATOM     13  C   UNL d   1     -46.531  11.709  23.046  0.00  0.00     0.079 C 
BRANCH  13  14
ATOM     14  C   UNL d   1     -45.752  11.884  23.335  0.00  0.00     0.202 C 
ATOM     15  O   UNL d   1     -45.573  12.663  23.605  0.00  0.00    -0.286 OA
BRANCH  14  16
ATOM     16  C   UNL d   1     -45.164  11.285  23.351  0.00  0.00     0.043 A 
ATOM     17  C   UNL d   1     -44.390  11.435  23.042  0.00  0.00     0.049 A 
ATOM     18  C   UNL d   1     -43.797  10.824  23.061  0.00  0.00     0.234 A 
ATOM     19  O   UNL d   1     -43.018  10.976  22.749  0.00  0.00    -0.283 OA
ATOM     20  C   UNL d   1     -43.980  10.069  23.387  0.00  0.00     0.234 A 
ATOM     21  C   UNL d   1     -44.748   9.911  23.698  0.00  0.00     0.045 A 
ATOM     22  O   UNL d   1     -43.397   9.459  23.409  0.00  0.00    -0.283 OA
ATOM     23  C   UNL d   1     -45.340  10.521  23.679  0.00  0.00     0.007 A 
ENDBRANCH  14  16
ENDBRANCH  13  14
ENDBRANCH  12  13
ENDBRANCH   5  12
BRANCH   4  24
ATOM     24  C   UNL d   1     -49.589  14.882  22.864  0.00  0.00     0.004 A 
ATOM     25  C   UNL d   1     -49.780  15.371  23.473  0.00  0.00     0.000 A 
ATOM     26  C   UNL d   1     -50.517  15.711  23.508  0.00  0.00     0.000 A 
ATOM     27  C   UNL d   1     -51.063  15.561  22.933  0.00  0.00     0.000 A 
ATOM     28  C   UNL d   1     -50.861  15.058  22.311  0.00  0.00     0.000 A 
ATOM     29  C   UNL d   1     -50.131  14.729  22.288  0.00  0.00     0.000 A 
ENDBRANCH   4  24
TORSDOF 5
ENDMDL
MODEL 2
REMARK VINA RESULT:      -6.9      0.944      1.771
REMARK  5 active torsions:
REMARK  status: ('A' for Active; 'I' for Inactive)
REMARK    1  A    between atoms: C_15  and  C_4 
REMARK    2  A    between atoms: S_10  and  C_5 
REMARK    3  A    between atoms: C_17  and  S_10 
REMARK    4  A    between atoms: C_11  and  C_14 
REMARK    5  A    between atoms: C_14  and  C_17 
ROOT
ATOM      1  N   UNL d   1     -48.241  12.761  23.023  0.00  0.00    -0.206 N 
ATOM      2  C   UNL d   1     -48.756  13.340  22.737  0.00  0.00     0.166 A 
ATOM      3  N   UNL d   1     -49.316  11.860  23.120  0.00  0.00    -0.163 NA
ATOM      4  C   UNL d   1     -49.544  13.180  22.642  0.00  0.00     0.055 A 
ATOM      5  C   UNL d   1     -47.460  12.941  23.110  0.00  0.00     0.116 A 
ATOM      6  C   UNL d   1     -49.822  12.429  22.838  0.00  0.00     0.104 A 
ATOM      7  N   UNL d   1     -48.476  14.082  22.544  0.00  0.00    -0.227 NA
ATOM      8  C   UNL d   1     -47.164  13.677  22.922  0.00  0.00     0.045 A 
ATOM      9  C   UNL d   1     -47.675  14.253  22.637  0.00  0.00     0.085 A 
ATOM     10  C   UNL d   1     -50.607  12.273  22.743  0.00  0.00     0.023 C 
ATOM     11  C   UNL d   1     -47.383  15.028  22.437  0.00  0.00     0.021 C 
ENDROOT
BRANCH   5  12
ATOM     12  S   UNL d   1     -46.930  12.345  23.405  0.00  0.00    -0.064 SA
BRANCH  12  13
ATOM     13  C   UNL d   1     -46.234  11.964  23.691  0.00  0.00     0.079 C 
BRANCH  13  14
ATOM     14  C   UNL d   1     -46.045  11.179  23.425  0.00  0.00     0.202 C 
ATOM     15  O   UNL d   1     -46.669  10.647  23.222  0.00  0.00    -0.286 OA
BRANCH  14  16
ATOM     16  C   UNL d   1     -45.244  10.936  23.364  0.00  0.00     0.043 A 
ATOM     17  C   UNL d   1     -44.676  11.425  22.971  0.00  0.00     0.049 A 
ATOM     18  C   UNL d   1     -43.864  11.173  22.912  0.00  0.00     0.234 A 
ATOM     19  O   UNL d   1     -43.293  11.666  22.516  0.00  0.00    -0.283 OA
ATOM     20  C   UNL d   1     -43.626  10.436  23.246  0.00  0.00     0.234 A 
ATOM     21  C   UNL d   1     -44.186   9.943  23.639  0.00  0.00     0.045 A 
ATOM     22  O   UNL d   1     -42.824  10.181  23.191  0.00  0.00    -0.283 OA
ATOM     23  C   UNL d   1     -44.996  10.195  23.698  0.00  0.00     0.007 A 
ENDBRANCH  14  16
ENDBRANCH  13  14
ENDBRANCH  12  13
ENDBRANCH   5  12
BRANCH   4  24
ATOM     24  C   UNL d   1     -50.051  13.750  22.360  0.00  0.00     0.004 A 
ATOM     25  C   UNL d   1     -50.391  14.275  22.867  0.00  0.00     0.000 A 
ATOM     26  C   UNL d   1     -50.898  14.845  22.584  0.00  0.00     0.000 A 
ATOM     27  C   UNL d   1     -51.064  14.888  21.796  0.00  0.00     0.000 A 
ATOM     28  C   UNL d   1     -50.712  14.346  21.283  0.00  0.00     0.000 A 
ATOM     29  C   UNL d   1     -50.215  13.790  21.573  0.00  0.00     0.000 A 
ENDBRANCH   4  24
TORSDOF 5
ENDMDL
MODEL 3
REMARK VINA RESULT:      -5.1      5.630      8.232
REMARK  5 active torsions:
REMARK  status: ('A' for Active; 'I' for Inactive)
REMARK    1  A    between atoms: C_15  and  C_4 
REMARK    2  A    between atoms: S_10  and  C_5 
REMARK    3  A    between atoms: C_17  and  S_10 
REMARK    4  A    between atoms: C_11  and  C_14 
REMARK    5  A    between atoms: C_14  and  C_17 
ROOT
ATOM      1  N   UNL d   1     -41.075  14.154  20.009  0.00  0.00    -0.206 N 
ATOM      2  C   UNL d   1     -40.330  14.436  19.792  0.00  0.00     0.166 A 
ATOM      3  N   UNL d   1     -41.436  14.078  18.652  0.00  0.00    -0.163 NA
ATOM      4  C   UNL d   1     -40.140  14.539  19.012  0.00  0.00     0.055 A 
ATOM      5  C   UNL d   1     -41.245  14.059  20.791  0.00  0.00     0.116 A 
ATOM      6  C   UNL d   1     -40.704  14.356  18.439  0.00  0.00     0.104 A 
ATOM      7  N   UNL d   1     -39.775  14.616  20.363  0.00  0.00    -0.227 NA
ATOM      8  C   UNL d   1     -40.703  14.234  21.375  0.00  0.00     0.045 A 
ATOM      9  C   UNL d   1     -39.962  14.515  21.159  0.00  0.00     0.085 A 
ATOM     10  C   UNL d   1     -40.511  14.459  17.663  0.00  0.00     0.023 C 
ATOM     11  C   UNL d   1     -39.383  14.702  21.756  0.00  0.00     0.021 C 
ENDROOT
BRANCH   5  12
ATOM     12  S   UNL d   1     -42.013  13.769  21.015  0.00  0.00    -0.064 SA
BRANCH  12  13
ATOM     13  C   UNL d   1     -42.733  13.655  21.439  0.00  0.00     0.079 C 
BRANCH  13  14
ATOM     14  C   UNL d   1     -43.202  12.962  21.292  0.00  0.00     0.202 C 
ATOM     15  O   UNL d   1     -42.969  12.422  20.686  0.00  0.00    -0.286 OA
BRANCH  14  16
ATOM     16  C   UNL d   1     -43.893  12.815  21.746  0.00  0.00     0.043 A 
ATOM     17  C   UNL d   1     -43.926  12.155  22.274  0.00  0.00     0.049 A 
ATOM     18  C   UNL d   1     -44.629  12.010  22.733  0.00  0.00     0.234 A 
ATOM     19  O   UNL d   1     -44.662  11.344  23.264  0.00  0.00    -0.283 OA
ATOM     20  C   UNL d   1     -45.292  12.526  22.662  0.00  0.00     0.234 A 
ATOM     21  C   UNL d   1     -45.267  13.186  22.139  0.00  0.00     0.045 A 
ATOM     22  O   UNL d   1     -45.992  12.389  23.114  0.00  0.00    -0.283 OA
ATOM     23  C   UNL d   1     -44.565  13.331  21.680  0.00  0.00     0.007 A 
ENDBRANCH  14  16
ENDBRANCH  13  14
ENDBRANCH  12  13
ENDBRANCH   5  12
BRANCH   4  24
ATOM     24  C   UNL d   1     -39.406  14.817  18.798  0.00  0.00     0.004 A 
ATOM     25  C   UNL d   1     -38.803  14.302  18.662  0.00  0.00     0.000 A 
ATOM     26  C   UNL d   1     -38.069  14.580  18.449  0.00  0.00     0.000 A 
ATOM     27  C   UNL d   1     -37.940  15.372  18.371  0.00  0.00     0.000 A 
ATOM     28  C   UNL d   1     -38.563  15.894  18.512  0.00  0.00     0.000 A 
ATOM     29  C   UNL d   1     -39.281  15.609  18.722  0.00  0.00     0.000 A 
ENDBRANCH   4  24
TORSDOF 5
ENDMDL
MODEL 4
REMARK VINA RESULT:      -4.9      8.213     10.185
REMARK  5 active torsions:
REMARK  status: ('A' for Active; 'I' for Inactive)
REMARK    1  A    between atoms: C_15  and  C_4 
REMARK    2  A    between atoms: S_10  and  C_5 
REMARK    3  A    between atoms: C_17  and  S_10 
REMARK    4  A    between atoms: C_11  and  C_14 
REMARK    5  A    between atoms: C_14  and  C_17 
ROOT
ATOM      1  N   UNL d   1     -39.738  14.683  18.354  0.00  0.00    -0.206 N 
ATOM      2  C   UNL d   1     -39.504  14.568  17.570  0.00  0.00     0.166 A 
ATOM      3  N   UNL d   1     -38.764  13.759  18.775  0.00  0.00    -0.163 NA
ATOM      4  C   UNL d   1     -38.906  14.053  17.390  0.00  0.00     0.055 A 
ATOM      5  C   UNL d   1     -40.335  15.200  18.512  0.00  0.00     0.116 A 
ATOM      6  C   UNL d   1     -38.535  13.646  18.004  0.00  0.00     0.104 A 
ATOM      7  N   UNL d   1     -39.875  14.973  16.966  0.00  0.00    -0.227 NA
ATOM      8  C   UNL d   1     -40.716  15.613  17.921  0.00  0.00     0.045 A 
ATOM      9  C   UNL d   1     -40.484  15.498  17.142  0.00  0.00     0.085 A 
ATOM     10  C   UNL d   1     -37.940  13.134  17.821  0.00  0.00     0.023 C 
ATOM     11  C   UNL d   1     -40.871  15.922  16.511  0.00  0.00     0.021 C 
ENDROOT
BRANCH   5  12
ATOM     12  S   UNL d   1     -40.576  15.318  19.320  0.00  0.00    -0.064 SA
BRANCH  12  13
ATOM     13  C   UNL d   1     -40.623  15.626  20.104  0.00  0.00     0.079 C 
BRANCH  13  14
ATOM     14  C   UNL d   1     -40.711  15.092  20.759  0.00  0.00     0.202 C 
ATOM     15  O   UNL d   1     -41.335  14.523  20.752  0.00  0.00    -0.286 OA
BRANCH  14  16
ATOM     16  C   UNL d   1     -40.181  15.131  21.409  0.00  0.00     0.043 A 
ATOM     17  C   UNL d   1     -39.787  14.434  21.683  0.00  0.00     0.049 A 
ATOM     18  C   UNL d   1     -39.250  14.479  22.343  0.00  0.00     0.234 A 
ATOM     19  O   UNL d   1     -38.854  13.776  22.619  0.00  0.00    -0.283 OA
ATOM     20  C   UNL d   1     -39.111  15.218  22.724  0.00  0.00     0.234 A 
ATOM     21  C   UNL d   1     -39.499  15.917  22.457  0.00  0.00     0.045 A 
ATOM     22  O   UNL d   1     -38.580  15.269  23.378  0.00  0.00    -0.283 OA
ATOM     23  C   UNL d   1     -40.035  15.872  21.798  0.00  0.00     0.007 A 
ENDBRANCH  14  16
ENDBRANCH  13  14
ENDBRANCH  12  13
ENDBRANCH   5  12
BRANCH   4  24
ATOM     24  C   UNL d   1     -38.676  13.939  16.619  0.00  0.00     0.004 A 
ATOM     25  C   UNL d   1     -38.889  13.269  16.228  0.00  0.00     0.000 A 
ATOM     26  C   UNL d   1     -38.659  13.156  15.456  0.00  0.00     0.000 A 
ATOM     27  C   UNL d   1     -38.216  13.713  15.077  0.00  0.00     0.000 A 
ATOM     28  C   UNL d   1     -38.001  14.398  15.484  0.00  0.00     0.000 A 
ATOM     29  C   UNL d   1     -38.234  14.498  16.243  0.00  0.00     0.000 A 
ENDBRANCH   4  24
TORSDOF 5
ENDMDL
MODEL 5
REMARK VINA RESULT:      -4.5      1.999      2.854
REMARK  5 active torsions:
REMARK  status: ('A' for Active; 'I' for Inactive)
REMARK    1  A    between atoms: C_15  and  C_4 
REMARK    2  A    between atoms: S_10  and  C_5 
REMARK    3  A    between atoms: C_17  and  S_10 
REMARK    4  A    between atoms: C_11  and  C_14 
REMARK    5  A    between atoms: C_14  and  C_17 
ROOT
ATOM      1  N   UNL d   1     -47.367  12.858  22.635  0.00  0.00    -0.206 N 
ATOM      2  C   UNL d   1     -48.154  13.100  22.712  0.00  0.00     0.166 A 
ATOM      3  N   UNL d   1     -47.770  11.519  22.778  0.00  0.00    -0.163 NA
ATOM      4  C   UNL d   1     -48.743  12.555  22.821  0.00  0.00     0.055 A 
ATOM      5  C   UNL d   1     -46.796  13.417  22.528  0.00  0.00     0.116 A 
ATOM      6  C   UNL d   1     -48.543  11.756  22.854  0.00  0.00     0.104 A 
ATOM      7  N   UNL d   1     -48.347  13.892  22.679  0.00  0.00    -0.227 NA
ATOM      8  C   UNL d   1     -46.971  14.212  22.492  0.00  0.00     0.045 A 
ATOM      9  C   UNL d   1     -47.753  14.452  22.568  0.00  0.00     0.085 A 
ATOM     10  C   UNL d   1     -49.131  11.216  22.962  0.00  0.00     0.023 C 
ATOM     11  C   UNL d   1     -47.954  15.280  22.533  0.00  0.00     0.021 C 
ENDROOT
BRANCH   5  12
ATOM     12  S   UNL d   1     -45.986  13.168  22.449  0.00  0.00    -0.064 SA
BRANCH  12  13
ATOM     13  C   UNL d   1     -45.144  13.188  22.404  0.00  0.00     0.079 C 
BRANCH  13  14
ATOM     14  C   UNL d   1     -44.755  12.912  21.701  0.00  0.00     0.202 C 
ATOM     15  O   UNL d   1     -45.212  12.576  21.075  0.00  0.00    -0.286 OA
BRANCH  14  16
ATOM     16  C   UNL d   1     -43.920  12.973  21.629  0.00  0.00     0.043 A 
ATOM     17  C   UNL d   1     -43.566  13.683  21.335  0.00  0.00     0.049 A 
ATOM     18  C   UNL d   1     -42.719  13.740  21.264  0.00  0.00     0.234 A 
ATOM     19  O   UNL d   1     -42.364  14.457  20.969  0.00  0.00    -0.283 OA
ATOM     20  C   UNL d   1     -42.233  13.089  21.486  0.00  0.00     0.234 A 
ATOM     21  C   UNL d   1     -42.578  12.378  21.780  0.00  0.00     0.045 A 
ATOM     22  O   UNL d   1     -41.393  13.139  21.419  0.00  0.00    -0.283 OA
ATOM     23  C   UNL d   1     -43.423  12.320  21.851  0.00  0.00     0.007 A 
ENDBRANCH  14  16
ENDBRANCH  13  14
ENDBRANCH  12  13
ENDBRANCH   5  12
BRANCH   4  24
ATOM     24  C   UNL d   1     -49.517  12.792  22.896  0.00  0.00     0.004 A 
ATOM     25  C   UNL d   1     -49.816  12.969  23.622  0.00  0.00     0.000 A 
ATOM     26  C   UNL d   1     -50.590  13.206  23.697  0.00  0.00     0.000 A 
ATOM     27  C   UNL d   1     -51.064  13.267  23.047  0.00  0.00     0.000 A 
ATOM     28  C   UNL d   1     -50.750  13.084  22.306  0.00  0.00     0.000 A 
ATOM     29  C   UNL d   1     -49.986  12.852  22.244  0.00  0.00     0.000 A 
ENDBRANCH   4  24
TORSDOF 5
ENDMDL
