MODEL 1
REMARK VINA RESULT:      70.4      0.000      0.000
REMARK  10 active torsions:
REMARK  status: ('A' for Active; 'I' for Inactive)
REMARK    1  A    between atoms: C_11  and  C_1 
REMARK    2  A    between atoms: C_21  and  N_5 
REMARK    3  A    between atoms: N_20  and  C_8 
REMARK    4  A    between atoms: C_9  and  C_11 
REMARK    5  A    between atoms: C_25  and  N_20 
REMARK    6  A    between atoms: C_28  and  C_21 
REMARK    7  A    between atoms: C_22  and  C_25 
REMARK    8  A    between atoms: C_26  and  C_22 
REMARK    9  A    between atoms: O_24  and  C_26 
REMARK   10  A    between atoms: C_27  and  O_24 
ROOT
ATOM      1  C   UNL d   1     -50.078  26.183  33.319  0.00  0.00     0.093 A 
ATOM      2  N   UNL d   1     -49.643  24.813  33.314  0.00  0.00    -0.258 N 
ATOM      3  N   UNL d   1     -51.050  25.113  33.314  0.00  0.00    -0.209 NA
ATOM      4  C   UNL d   1     -50.440  24.555  33.312  0.00  0.00     0.152 A 
ATOM      5  C   UNL d   1     -49.453  25.620  33.317  0.00  0.00     0.269 A 
ATOM      6  C   UNL d   1     -50.876  25.929  33.318  0.00  0.00     0.169 A 
ATOM      7  C   UNL d   1     -50.613  23.752  33.309  0.00  0.00     0.035 A 
ATOM      8  C   UNL d   1     -49.033  24.255  33.312  0.00  0.00     0.084 A 
ATOM      9  O   UNL d   1     -48.676  25.867  33.319  0.00  0.00    -0.266 OA
ATOM     10  C   UNL d   1     -49.218  23.448  33.309  0.00  0.00     0.019 A 
ATOM     11  C   UNL d   1     -50.005  23.199  33.307  0.00  0.00     0.005 A 
ATOM     12  C   UNL d   1     -51.399  23.503  33.307  0.00  0.00     0.003 C 
ENDROOT
BRANCH   1  13
ATOM     13  C   UNL d   1     -49.909  26.984  33.323  0.00  0.00     0.019 C 
BRANCH  13  14
ATOM     14  C   UNL d   1     -49.619  27.336  34.011  0.00  0.00     0.088 A 
ATOM     15  C   UNL d   1     -49.302  28.097  34.068  0.00  0.00     0.272 A 
ATOM     16  N   UNL d   1     -49.080  28.225  34.854  0.00  0.00    -0.259 N 
ATOM     17  O   UNL d   1     -49.219  28.639  33.446  0.00  0.00    -0.266 OA
ATOM     18  C   UNL d   1     -49.264  27.536  35.283  0.00  0.00     0.153 A 
ATOM     19  S   UNL d   1     -49.596  26.993  34.755  0.00  0.00    -0.053 SA
ATOM     20  S   UNL d   1     -49.137  27.422  36.082  0.00  0.00    -0.052 SA
BRANCH  16  21
ATOM     21  C   UNL d   1     -48.740  28.907  35.162  0.00  0.00     0.084 C 
BRANCH  21  22
ATOM     22  C   UNL d   1     -48.713  29.597  34.702  0.00  0.00     0.019 C 
ATOM     23  C   UNL d   1     -48.080  30.121  34.777  0.00  0.00     0.002 C 
ENDBRANCH  21  22
ENDBRANCH  16  21
ENDBRANCH  13  14
ENDBRANCH   1  13
BRANCH   6  24
ATOM     24  N   UNL d   1     -51.485  26.484  33.320  0.00  0.00    -0.225 NA
BRANCH  24  25
ATOM     25  C   UNL d   1     -52.200  26.313  33.680  0.00  0.00     0.103 C 
BRANCH  25  26
ATOM     26  C   UNL d   1     -52.735  25.799  33.321  0.00  0.00     0.047 C 
BRANCH  26  27
ATOM     27  C   UNL d   1     -53.407  25.557  33.725  0.00  0.00     0.124 C 
BRANCH  27  28
ATOM     28  O   UNL d   1     -54.021  25.186  33.320  0.00  0.00    -0.303 OA
BRANCH  28  29
ATOM     29  C   UNL d   1     -54.373  24.502  33.633  0.00  0.00     0.123 C 
ATOM     30  C   UNL d   1     -54.061  23.760  33.451  0.00  0.00     0.029 C 
ENDBRANCH  28  29
ENDBRANCH  27  28
ENDBRANCH  26  27
ENDBRANCH  25  26
ENDBRANCH  24  25
ENDBRANCH   6  24
TORSDOF 10
ENDMDL
