MODEL 1
REMARK VINA RESULT:      -1.4      0.000      0.000
REMARK  8 active torsions:
REMARK  status: ('A' for Active; 'I' for Inactive)
REMARK    1  A    between atoms: C_5  and  C_1 
REMARK       I    between atoms: C_2  and  N_4 
REMARK    2  A    between atoms: C_7  and  C_2 
REMARK    3  A    between atoms: N_4  and  C_3 
REMARK    4  A    between atoms: N_6  and  C_5 
REMARK    5  A    between atoms: C_13  and  C_5 
REMARK    6  A    between atoms: C_15  and  N_6 
REMARK    7  A    between atoms: C_9  and  C_15 
REMARK    8  A    between atoms: O_19  and  C_9 
ROOT
ATOM      1  C   UNL d   1     -49.253  12.420  22.775  0.00  0.00     0.035 A 
ATOM      2  C   UNL d   1     -48.474  12.218  22.998  0.00  0.00     0.086 A 
ATOM      3  C   UNL d   1     -49.879  11.937  23.011  0.00  0.00     0.003 A 
ATOM      4  C   UNL d   1     -48.333  11.536  23.454  0.00  0.00     0.019 A 
ATOM      5  C   UNL d   1     -49.739  11.255  23.466  0.00  0.00     0.000 A 
ATOM      6  C   UNL d   1     -48.972  11.060  23.684  0.00  0.00     0.002 A 
ATOM      7  C   UNL d   1     -50.373  10.780  23.697  0.00  0.00     0.000 C 
ENDROOT
BRANCH   1   8
ATOM      8  C   UNL d   1     -49.391  13.094  22.325  0.00  0.00     0.083 C 
BRANCH   8   9
ATOM      9  N   UNL d   1     -49.251  13.847  22.645  0.00  0.00    -0.238 NA
BRANCH   9  10
ATOM     10  C   UNL d   1     -49.830  14.428  22.587  0.00  0.00     0.167 C 
BRANCH  10  11
ATOM     11  C   UNL d   1     -49.758  15.129  23.013  0.00  0.00     0.315 C 
ATOM     12  O   UNL d   1     -49.228  15.723  22.771  0.00  0.00    -0.257 OA
BRANCH  11  13
ATOM     13  O   UNL d   1     -50.219  15.254  23.698  0.00  0.00    -0.295 OA
ATOM     14  C   UNL d   1     -50.783  15.920  23.677  0.00  0.00     0.185 C 
ENDBRANCH  11  13
ENDBRANCH  10  11
ENDBRANCH   9  10
ENDBRANCH   8   9
BRANCH   8  15
ATOM     15  C   UNL d   1     -49.670  13.022  21.557  0.00  0.00     0.018 A 
ATOM     16  C   UNL d   1     -50.481  12.977  21.410  0.00  0.00     0.002 A 
ATOM     17  C   UNL d   1     -50.760  12.906  20.648  0.00  0.00     0.000 A 
ATOM     18  C   UNL d   1     -50.224  12.878  20.006  0.00  0.00     0.000 A 
ATOM     19  C   UNL d   1     -49.417  12.923  20.150  0.00  0.00     0.000 A 
ATOM     20  C   UNL d   1     -49.133  12.995  20.922  0.00  0.00     0.002 A 
ENDBRANCH   8  15
ENDBRANCH   1   8
BRANCH   2  21
ATOM     21  N   UNL d   1     -47.851  12.700  22.763  0.00  0.00    -0.208 NA
ATOM     22  C   UNL d   1     -47.060  12.471  22.927  0.00  0.00     0.279 C 
ATOM     23  O   UNL d   1     -46.916  11.761  23.325  0.00  0.00    -0.265 OA
BRANCH  22  24
ATOM     24  C   UNL d   1     -46.433  12.954  22.691  0.00  0.00     0.059 A 
ATOM     25  C   UNL d   1     -46.418  13.747  22.918  0.00  0.00     0.016 A 
ATOM     26  C   UNL d   1     -45.791  14.230  22.683  0.00  0.00     0.058 A 
ATOM     27 CL   UNL d   1     -45.788  15.018  22.915  0.00  0.00    -0.082 Cl
ATOM     28  C   UNL d   1     -45.183  13.921  22.223  0.00  0.00     0.011 A 
ATOM     29  C   UNL d   1     -45.198  13.129  21.997  0.00  0.00     0.001 A 
ATOM     30  C   UNL d   1     -45.825  12.646  22.232  0.00  0.00     0.005 A 
ENDBRANCH  22  24
ENDBRANCH   2  21
TORSDOF 8
ENDMDL
MODEL 2
REMARK VINA RESULT:       1.0      1.635      4.143
REMARK  8 active torsions:
REMARK  status: ('A' for Active; 'I' for Inactive)
REMARK    1  A    between atoms: C_5  and  C_1 
REMARK       I    between atoms: C_2  and  N_4 
REMARK    2  A    between atoms: C_7  and  C_2 
REMARK    3  A    between atoms: N_4  and  C_3 
REMARK    4  A    between atoms: N_6  and  C_5 
REMARK    5  A    between atoms: C_13  and  C_5 
REMARK    6  A    between atoms: C_15  and  N_6 
REMARK    7  A    between atoms: C_9  and  C_15 
REMARK    8  A    between atoms: O_19  and  C_9 
ROOT
ATOM      1  C   UNL d   1     -47.111  13.365  22.555  0.00  0.00     0.035 A 
ATOM      2  C   UNL d   1     -47.443  14.105  22.753  0.00  0.00     0.086 A 
ATOM      3  C   UNL d   1     -46.290  13.282  22.533  0.00  0.00     0.003 A 
ATOM      4  C   UNL d   1     -46.948  14.751  22.927  0.00  0.00     0.019 A 
ATOM      5  C   UNL d   1     -45.796  13.928  22.707  0.00  0.00     0.000 A 
ATOM      6  C   UNL d   1     -46.124  14.654  22.902  0.00  0.00     0.002 A 
ATOM      7  C   UNL d   1     -44.976  13.834  22.683  0.00  0.00     0.000 C 
ENDROOT
BRANCH   1   8
ATOM      8  C   UNL d   1     -47.600  12.727  22.383  0.00  0.00     0.083 C 
BRANCH   8   9
ATOM      9  N   UNL d   1     -48.158  12.780  21.770  0.00  0.00    -0.238 NA
BRANCH   9  10
ATOM     10  C   UNL d   1     -48.454  12.092  21.430  0.00  0.00     0.167 C 
BRANCH  10  11
ATOM     11  C   UNL d   1     -49.098  12.128  20.917  0.00  0.00     0.315 C 
ATOM     12  O   UNL d   1     -48.990  12.093  20.093  0.00  0.00    -0.257 OA
BRANCH  11  13
ATOM     13  O   UNL d   1     -49.873  12.200  21.221  0.00  0.00    -0.295 OA
ATOM     14  C   UNL d   1     -50.491  12.466  20.664  0.00  0.00     0.185 C 
ENDBRANCH  11  13
ENDBRANCH  10  11
ENDBRANCH   9  10
ENDBRANCH   8   9
BRANCH   8  15
ATOM     15  C   UNL d   1     -47.537  12.035  22.818  0.00  0.00     0.018 A 
ATOM     16  C   UNL d   1     -46.811  11.646  22.881  0.00  0.00     0.002 A 
ATOM     17  C   UNL d   1     -46.746  10.959  23.313  0.00  0.00     0.000 A 
ATOM     18  C   UNL d   1     -47.418  10.640  23.698  0.00  0.00     0.000 A 
ATOM     19  C   UNL d   1     -48.140  11.025  23.636  0.00  0.00     0.000 A 
ATOM     20  C   UNL d   1     -48.207  11.722  23.199  0.00  0.00     0.002 A 
ENDBRANCH   8  15
ENDBRANCH   1   8
BRANCH   2  21
ATOM     21  N   UNL d   1     -48.260  14.186  22.774  0.00  0.00    -0.208 NA
ATOM     22  C   UNL d   1     -48.602  14.922  22.994  0.00  0.00     0.279 C 
ATOM     23  O   UNL d   1     -48.110  15.558  23.187  0.00  0.00    -0.265 OA
BRANCH  22  24
ATOM     24  C   UNL d   1     -49.424  15.005  23.015  0.00  0.00     0.059 A 
ATOM     25  C   UNL d   1     -49.817  15.353  22.380  0.00  0.00     0.016 A 
ATOM     26  C   UNL d   1     -50.638  15.437  22.401  0.00  0.00     0.058 A 
ATOM     27 CL   UNL d   1     -51.019  15.785  21.762  0.00  0.00    -0.082 Cl
ATOM     28  C   UNL d   1     -51.063  15.174  23.054  0.00  0.00     0.011 A 
ATOM     29  C   UNL d   1     -50.669  14.826  23.689  0.00  0.00     0.001 A 
ATOM     30  C   UNL d   1     -49.848  14.742  23.669  0.00  0.00     0.005 A 
ENDBRANCH  22  24
ENDBRANCH   2  21
TORSDOF 8
ENDMDL
MODEL 3
REMARK VINA RESULT:       1.5      9.267     10.872
REMARK  8 active torsions:
REMARK  status: ('A' for Active; 'I' for Inactive)
REMARK    1  A    between atoms: C_5  and  C_1 
REMARK       I    between atoms: C_2  and  N_4 
REMARK    2  A    between atoms: C_7  and  C_2 
REMARK    3  A    between atoms: N_4  and  C_3 
REMARK    4  A    between atoms: N_6  and  C_5 
REMARK    5  A    between atoms: C_13  and  C_5 
REMARK    6  A    between atoms: C_15  and  N_6 
REMARK    7  A    between atoms: C_9  and  C_15 
REMARK    8  A    between atoms: O_19  and  C_9 
ROOT
ATOM      1  C   UNL d   1     -38.520  13.217  18.362  0.00  0.00     0.035 A 
ATOM      2  C   UNL d   1     -38.231  13.098  19.136  0.00  0.00     0.086 A 
ATOM      3  C   UNL d   1     -38.530  12.584  17.832  0.00  0.00     0.003 A 
ATOM      4  C   UNL d   1     -37.957  12.348  19.369  0.00  0.00     0.019 A 
ATOM      5  C   UNL d   1     -38.256  11.834  18.065  0.00  0.00     0.000 A 
ATOM      6  C   UNL d   1     -37.972  11.720  18.827  0.00  0.00     0.002 A 
ATOM      7  C   UNL d   1     -38.270  11.208  17.527  0.00  0.00     0.000 C 
ENDROOT
BRANCH   1   8
ATOM      8  C   UNL d   1     -38.791  13.958  18.132  0.00  0.00     0.083 C 
BRANCH   8   9
ATOM      9  N   UNL d   1     -38.256  14.539  17.876  0.00  0.00    -0.238 NA
BRANCH   9  10
ATOM     10  C   UNL d   1     -37.940  14.495  17.118  0.00  0.00     0.167 C 
BRANCH  10  11
ATOM     11  C   UNL d   1     -38.038  15.120  16.591  0.00  0.00     0.315 C 
ATOM     12  O   UNL d   1     -38.217  15.886  16.865  0.00  0.00    -0.257 OA
BRANCH  11  13
ATOM     13  O   UNL d   1     -37.959  14.993  15.770  0.00  0.00    -0.295 OA
ATOM     14  C   UNL d   1     -38.094  15.681  15.249  0.00  0.00     0.185 C 
ENDBRANCH  11  13
ENDBRANCH  10  11
ENDBRANCH   9  10
ENDBRANCH   8   9
BRANCH   8  15
ATOM     15  C   UNL d   1     -39.594  14.125  18.154  0.00  0.00     0.018 A 
ATOM     16  C   UNL d   1     -40.102  13.811  17.584  0.00  0.00     0.002 A 
ATOM     17  C   UNL d   1     -40.899  13.976  17.605  0.00  0.00     0.000 A 
ATOM     18  C   UNL d   1     -41.211  14.466  18.207  0.00  0.00     0.000 A 
ATOM     19  C   UNL d   1     -40.708  14.779  18.775  0.00  0.00     0.000 A 
ATOM     20  C   UNL d   1     -39.900  14.613  18.755  0.00  0.00     0.002 A 
ENDBRANCH   8  15
ENDBRANCH   1   8
BRANCH   2  21
ATOM     21  N   UNL d   1     -38.222  13.730  19.662  0.00  0.00    -0.208 NA
ATOM     22  C   UNL d   1     -38.257  13.585  20.489  0.00  0.00     0.279 C 
ATOM     23  O   UNL d   1     -38.301  12.807  20.765  0.00  0.00    -0.265 OA
BRANCH  22  24
ATOM     24  C   UNL d   1     -38.248  14.218  21.019  0.00  0.00     0.059 A 
ATOM     25  C   UNL d   1     -38.539  14.116  21.784  0.00  0.00     0.016 A 
ATOM     26  C   UNL d   1     -38.531  14.748  22.315  0.00  0.00     0.058 A 
ATOM     27 CL   UNL d   1     -38.823  14.635  23.074  0.00  0.00    -0.082 Cl
ATOM     28  C   UNL d   1     -38.232  15.479  22.081  0.00  0.00     0.011 A 
ATOM     29  C   UNL d   1     -37.942  15.580  21.317  0.00  0.00     0.001 A 
ATOM     30  C   UNL d   1     -37.950  14.948  20.786  0.00  0.00     0.005 A 
ENDBRANCH  22  24
ENDBRANCH   2  21
TORSDOF 8
ENDMDL
