MODEL 1
REMARK VINA RESULT:      32.0      0.000      0.000
REMARK  3 active torsions:
REMARK  status: ('A' for Active; 'I' for Inactive)
REMARK    1  A    between atoms: C_8  and  C_2 
REMARK    2  A    between atoms: C_7  and  C_5 
REMARK    3  A    between atoms: C_10  and  C_8 
ROOT
ATOM      1  C   UNL d   1      15.289  14.557  -0.621  0.00  0.00     0.101 A 
ATOM      2  O   UNL d   1      14.766  13.957  -0.791  0.00  0.00    -0.307 OA
ATOM      3  C   UNL d   1      15.045  13.278  -0.397  0.00  0.00     0.101 A 
ATOM      4  C   UNL d   1      15.861  14.237  -0.140  0.00  0.00     0.027 A 
ATOM      5  C   UNL d   1      15.683  13.455  -0.023  0.00  0.00     0.027 A 
ENDROOT
BRANCH   1   6
ATOM      6  C   UNL d   1      15.218  15.332  -0.903  0.00  0.00     0.034 A 
ATOM      7  C   UNL d   1      15.059  15.449  -1.730  0.00  0.00     0.070 A 
ATOM      8  C   UNL d   1      14.985  16.238  -2.029  0.00  0.00     0.068 A 
ATOM      9 CL   UNL d   1      14.956  14.822  -2.348  0.00  0.00    -0.081 Cl
ATOM     10 CL   UNL d   1      14.834  16.206  -2.830  0.00  0.00    -0.082 Cl
ATOM     11  C   UNL d   1      15.072  16.871  -1.499  0.00  0.00     0.012 A 
ATOM     12  C   UNL d   1      15.229  16.735  -0.686  0.00  0.00     0.001 A 
ATOM     13  C   UNL d   1      15.299  15.979  -0.404  0.00  0.00     0.003 A 
ENDBRANCH   1   6
BRANCH   3  14
ATOM     14  C   UNL d   1      14.703  12.511  -0.396  0.00  0.00     0.036 C 
BRANCH  14  15
ATOM     15  C   UNL d   1      14.267  12.266  -1.052  0.00  0.00     0.094 A 
ATOM     16  C   UNL d   1      13.502  11.987  -0.971  0.00  0.00     0.288 A 
ATOM     17  N   UNL d   1      13.207  11.783  -1.729  0.00  0.00    -0.163 NA
ATOM     18  O   UNL d   1      13.064  11.914  -0.228  0.00  0.00    -0.265 OA
ATOM     19  C   UNL d   1      13.776  11.936  -2.229  0.00  0.00     0.313 A 
ATOM     20  S   UNL d   1      14.456  12.240  -1.845  0.00  0.00    -0.021 SA
ATOM     21  O   UNL d   1      13.645  11.787  -3.041  0.00  0.00    -0.258 OA
ENDBRANCH  14  15
ENDBRANCH   3  14
TORSDOF 3
ENDMDL
MODEL 2
REMARK VINA RESULT:      34.3      2.013      2.952
REMARK  3 active torsions:
REMARK  status: ('A' for Active; 'I' for Inactive)
REMARK    1  A    between atoms: C_8  and  C_2 
REMARK    2  A    between atoms: C_7  and  C_5 
REMARK    3  A    between atoms: C_10  and  C_8 
ROOT
ATOM      1  C   UNL d   1      13.459  13.670  -3.715  0.00  0.00     0.101 A 
ATOM      2  O   UNL d   1      13.916  13.276  -3.169  0.00  0.00    -0.307 OA
ATOM      3  C   UNL d   1      13.692  12.474  -3.203  0.00  0.00     0.101 A 
ATOM      4  C   UNL d   1      12.978  13.113  -4.061  0.00  0.00     0.027 A 
ATOM      5  C   UNL d   1      13.145  12.394  -3.727  0.00  0.00     0.027 A 
ENDROOT
BRANCH   1   6
ATOM      6  C   UNL d   1      13.503  14.483  -3.862  0.00  0.00     0.034 A 
ATOM      7  C   UNL d   1      13.958  14.967  -3.331  0.00  0.00     0.070 A 
ATOM      8  C   UNL d   1      14.010  15.801  -3.472  0.00  0.00     0.068 A 
ATOM      9 CL   UNL d   1      14.407  14.697  -2.615  0.00  0.00    -0.081 Cl
ATOM     10 CL   UNL d   1      14.474  16.140  -2.892  0.00  0.00    -0.082 Cl
ATOM     11  C   UNL d   1      13.611  16.116  -4.128  0.00  0.00     0.012 A 
ATOM     12  C   UNL d   1      13.166  15.622  -4.641  0.00  0.00     0.001 A 
ATOM     13  C   UNL d   1      13.119  14.825  -4.502  0.00  0.00     0.003 A 
ENDBRANCH   1   6
BRANCH   3  14
ATOM     14  C   UNL d   1      13.999  11.838  -2.749  0.00  0.00     0.036 C 
BRANCH  14  15
ATOM     15  C   UNL d   1      13.859  11.823  -1.936  0.00  0.00     0.094 A 
ATOM     16  C   UNL d   1      14.478  11.795  -1.402  0.00  0.00     0.288 A 
ATOM     17  N   UNL d   1      14.163  11.785  -0.624  0.00  0.00    -0.163 NA
ATOM     18  O   UNL d   1      15.321  11.779  -1.601  0.00  0.00    -0.265 OA
ATOM     19  C   UNL d   1      13.396  11.805  -0.703  0.00  0.00     0.313 A 
ATOM     20  S   UNL d   1      13.165  11.830  -1.509  0.00  0.00    -0.021 SA
ATOM     21  O   UNL d   1      12.923  11.801  -0.014  0.00  0.00    -0.258 OA
ENDBRANCH  14  15
ENDBRANCH   3  14
TORSDOF 3
ENDMDL
