MODEL 1
REMARK VINA RESULT:      -2.6      0.000      0.000
REMARK  2 active torsions:
REMARK  status: ('A' for Active; 'I' for Inactive)
REMARK    1  A    between atoms: S_5  and  C_3 
REMARK    2  A    between atoms: C_12  and  S_5 
ROOT
ATOM      1  C   UNL d   1      33.027  21.274 -22.490  0.00  0.00     0.155 A 
ATOM      2  C   UNL d   1      32.870  20.747 -21.887  0.00  0.00     0.092 A 
ATOM      3  C   UNL d   1      32.818  19.688 -22.823  0.00  0.00     0.124 A 
ATOM      4  N   UNL d   1      33.132  22.074 -22.321  0.00  0.00    -0.210 NA
ATOM      5  N   UNL d   1      33.080  21.014 -23.256  0.00  0.00    -0.272 N 
ATOM      6  C   UNL d   1      32.977  20.221 -23.432  0.00  0.00     0.181 A 
ATOM      7  C   UNL d   1      32.817  21.011 -21.111  0.00  0.00     0.269 A 
ATOM      8  N   UNL d   1      32.921  21.807 -20.946  0.00  0.00    -0.258 N 
ATOM      9  C   UNL d   1      32.765  19.954 -22.050  0.00  0.00     0.022 A 
ATOM     10  C   UNL d   1      33.080  22.337 -21.558  0.00  0.00     0.152 A 
ATOM     11  N   UNL d   1      33.032  19.959 -24.218  0.00  0.00    -0.128 N 
ATOM     12  C   UNL d   1      32.870  22.083 -20.171  0.00  0.00     0.084 A 
ATOM     13  O   UNL d   1      32.657  20.476 -20.492  0.00  0.00    -0.266 OA
ATOM     14  C   UNL d   1      33.185  23.136 -21.390  0.00  0.00     0.038 A 
ATOM     15  C   UNL d   1      32.974  22.870 -20.013  0.00  0.00     0.019 A 
ATOM     16  C   UNL d   1      33.133  23.400 -20.626  0.00  0.00     0.005 A 
ATOM     17  C   UNL d   1      33.241  21.556 -23.876  0.00  0.00     0.102 C 
ENDROOT
BRANCH   3  18
ATOM     18  S   UNL d   1      32.713  18.884 -22.995  0.00  0.00     0.213 S 
ATOM     19  O   UNL d   1      33.230  18.672 -22.376  0.00  0.00    -0.217 OA
ATOM     20  O   UNL d   1      32.198  19.084 -23.612  0.00  0.00    -0.217 OA
BRANCH  18  21
ATOM     21  C   UNL d   1      32.599  18.077 -23.177  0.00  0.00     0.088 A 
ATOM     22  C   UNL d   1      33.240  17.554 -23.162  0.00  0.00     0.014 A 
ATOM     23  C   UNL d   1      33.126  16.746 -23.345  0.00  0.00     0.030 A 
ATOM     24  C   UNL d   1      32.371  16.468 -23.542  0.00  0.00     0.140 A 
ATOM     25  C   UNL d   1      31.725  17.005 -23.555  0.00  0.00     0.030 A 
ATOM     26  F   UNL d   1      32.250  15.668 -23.724  0.00  0.00    -0.204 F 
ATOM     27  C   UNL d   1      31.839  17.807 -23.374  0.00  0.00     0.014 A 
ENDBRANCH  18  21
ENDBRANCH   3  18
TORSDOF 2
ENDMDL
MODEL 2
REMARK VINA RESULT:      -1.4      1.946      4.745
REMARK  2 active torsions:
REMARK  status: ('A' for Active; 'I' for Inactive)
REMARK    1  A    between atoms: S_5  and  C_3 
REMARK    2  A    between atoms: C_12  and  S_5 
ROOT
ATOM      1  C   UNL d   1      32.874  18.688 -23.938  0.00  0.00     0.155 A 
ATOM      2  C   UNL d   1      32.693  18.431 -23.184  0.00  0.00     0.092 A 
ATOM      3  C   UNL d   1      32.872  19.744 -22.691  0.00  0.00     0.124 A 
ATOM      4  N   UNL d   1      32.875  18.154 -24.566  0.00  0.00    -0.210 NA
ATOM      5  N   UNL d   1      33.054  19.467 -24.071  0.00  0.00    -0.272 N 
ATOM      6  C   UNL d   1      33.055  20.003 -23.453  0.00  0.00     0.181 A 
ATOM      7  C   UNL d   1      32.512  17.641 -23.050  0.00  0.00     0.269 A 
ATOM      8  N   UNL d   1      32.513  17.112 -23.676  0.00  0.00    -0.258 N 
ATOM      9  C   UNL d   1      32.691  18.957 -22.560  0.00  0.00     0.022 A 
ATOM     10  C   UNL d   1      32.697  17.376 -24.436  0.00  0.00     0.152 A 
ATOM     11  N   UNL d   1      33.239  20.800 -23.594  0.00  0.00    -0.128 N 
ATOM     12  C   UNL d   1      32.333  16.318 -23.552  0.00  0.00     0.084 A 
ATOM     13  O   UNL d   1      32.326  17.375 -22.282  0.00  0.00    -0.266 OA
ATOM     14  C   UNL d   1      32.698  16.842 -25.064  0.00  0.00     0.038 A 
ATOM     15  C   UNL d   1      32.336  15.800 -24.174  0.00  0.00     0.019 A 
ATOM     16  C   UNL d   1      32.520  16.064 -24.934  0.00  0.00     0.005 A 
ATOM     17  C   UNL d   1      33.240  19.731 -24.845  0.00  0.00     0.102 C 
ENDROOT
BRANCH   3  18
ATOM     18  S   UNL d   1      32.871  20.283 -22.061  0.00  0.00     0.213 S 
ATOM     19  O   UNL d   1      32.500  20.858 -22.538  0.00  0.00    -0.217 OA
ATOM     20  O   UNL d   1      33.240  19.719 -21.579  0.00  0.00    -0.217 OA
BRANCH  18  21
ATOM     21  C   UNL d   1      32.876  20.817 -21.419  0.00  0.00     0.088 A 
ATOM     22  C   UNL d   1      32.530  21.565 -21.499  0.00  0.00     0.014 A 
ATOM     23  C   UNL d   1      32.535  22.099 -20.856  0.00  0.00     0.030 A 
ATOM     24  C   UNL d   1      32.887  21.882 -20.138  0.00  0.00     0.140 A 
ATOM     25  C   UNL d   1      33.237  21.121 -20.064  0.00  0.00     0.030 A 
ATOM     26  F   UNL d   1      32.896  22.407 -19.496  0.00  0.00    -0.204 F 
ATOM     27  C   UNL d   1      33.231  20.591 -20.704  0.00  0.00     0.014 A 
ENDBRANCH  18  21
ENDBRANCH   3  18
TORSDOF 2
ENDMDL
MODEL 3
REMARK VINA RESULT:      -1.4      2.123      4.710
REMARK  2 active torsions:
REMARK  status: ('A' for Active; 'I' for Inactive)
REMARK    1  A    between atoms: S_5  and  C_3 
REMARK    2  A    between atoms: C_12  and  S_5 
ROOT
ATOM      1  C   UNL d   1      33.033  20.266 -23.598  0.00  0.00     0.155 A 
ATOM      2  C   UNL d   1      32.884  19.944 -22.864  0.00  0.00     0.092 A 
ATOM      3  C   UNL d   1      32.845  21.240 -22.299  0.00  0.00     0.124 A 
ATOM      4  N   UNL d   1      33.127  19.774 -24.253  0.00  0.00    -0.210 NA
ATOM      5  N   UNL d   1      33.088  21.070 -23.688  0.00  0.00    -0.272 N 
ATOM      6  C   UNL d   1      32.996  21.566 -23.042  0.00  0.00     0.181 A 
ATOM      7  C   UNL d   1      32.828  19.129 -22.774  0.00  0.00     0.269 A 
ATOM      8  N   UNL d   1      32.922  18.642 -23.426  0.00  0.00    -0.258 N 
ATOM      9  C   UNL d   1      32.790  20.428 -22.213  0.00  0.00     0.022 A 
ATOM     10  C   UNL d   1      33.072  18.972 -24.167  0.00  0.00     0.152 A 
ATOM     11  N   UNL d   1      33.053  22.388 -23.138  0.00  0.00    -0.128 N 
ATOM     12  C   UNL d   1      32.868  17.823 -23.348  0.00  0.00     0.084 A 
ATOM     13  O   UNL d   1      32.676  18.795 -22.025  0.00  0.00    -0.266 OA
ATOM     14  C   UNL d   1      33.167  18.481 -24.822  0.00  0.00     0.038 A 
ATOM     15  C   UNL d   1      32.962  17.347 -23.996  0.00  0.00     0.019 A 
ATOM     16  C   UNL d   1      33.112  17.678 -24.737  0.00  0.00     0.005 A 
ATOM     17  C   UNL d   1      33.241  21.402 -24.443  0.00  0.00     0.102 C 
ENDROOT
BRANCH   3  18
ATOM     18  S   UNL d   1      32.751  21.736 -21.643  0.00  0.00     0.213 S 
ATOM     19  O   UNL d   1      32.257  22.244 -22.083  0.00  0.00    -0.217 OA
ATOM     20  O   UNL d   1      33.240  21.239 -21.196  0.00  0.00    -0.217 OA
BRANCH  18  21
ATOM     21  C   UNL d   1      32.663  22.230 -20.974  0.00  0.00     0.088 A 
ATOM     22  C   UNL d   1      32.237  22.937 -21.033  0.00  0.00     0.014 A 
ATOM     23  C   UNL d   1      32.149  23.430 -20.365  0.00  0.00     0.030 A 
ATOM     24  C   UNL d   1      32.488  23.212 -19.640  0.00  0.00     0.140 A 
ATOM     25  C   UNL d   1      32.918  22.492 -19.587  0.00  0.00     0.030 A 
ATOM     26  F   UNL d   1      32.405  23.696 -18.972  0.00  0.00    -0.204 F 
ATOM     27  C   UNL d   1      33.005  22.003 -20.253  0.00  0.00     0.014 A 
ENDBRANCH  18  21
ENDBRANCH   3  18
TORSDOF 2
ENDMDL
MODEL 4
REMARK VINA RESULT:      -1.3      2.584      5.063
REMARK  2 active torsions:
REMARK  status: ('A' for Active; 'I' for Inactive)
REMARK    1  A    between atoms: S_5  and  C_3 
REMARK    2  A    between atoms: C_12  and  S_5 
ROOT
ATOM      1  C   UNL d   1      32.998  21.549 -22.131  0.00  0.00     0.155 A 
ATOM      2  C   UNL d   1      33.041  21.022 -21.510  0.00  0.00     0.092 A 
ATOM      3  C   UNL d   1      32.942  22.092 -20.591  0.00  0.00     0.124 A 
ATOM      4  N   UNL d   1      33.026  21.274 -22.908  0.00  0.00    -0.210 NA
ATOM      5  N   UNL d   1      32.926  22.343 -21.988  0.00  0.00    -0.272 N 
ATOM      6  C   UNL d   1      32.898  22.624 -21.219  0.00  0.00     0.181 A 
ATOM      7  C   UNL d   1      33.114  20.216 -21.656  0.00  0.00     0.269 A 
ATOM      8  N   UNL d   1      33.141  19.945 -22.429  0.00  0.00    -0.258 N 
ATOM      9  C   UNL d   1      33.014  21.290 -20.739  0.00  0.00     0.022 A 
ATOM     10  C   UNL d   1      33.097  20.482 -23.054  0.00  0.00     0.152 A 
ATOM     11  N   UNL d   1      32.825  23.439 -21.077  0.00  0.00    -0.128 N 
ATOM     12  C   UNL d   1      33.214  19.140 -22.587  0.00  0.00     0.084 A 
ATOM     13  O   UNL d   1      33.159  19.674 -21.024  0.00  0.00    -0.266 OA
ATOM     14  C   UNL d   1      33.125  20.207 -23.830  0.00  0.00     0.038 A 
ATOM     15  C   UNL d   1      33.241  18.878 -23.352  0.00  0.00     0.019 A 
ATOM     16  C   UNL d   1      33.196  19.414 -23.978  0.00  0.00     0.005 A 
ATOM     17  C   UNL d   1      32.881  22.886 -22.626  0.00  0.00     0.102 C 
ENDROOT
BRANCH   3  18
ATOM     18  S   UNL d   1      32.913  22.370 -19.811  0.00  0.00     0.213 S 
ATOM     19  O   UNL d   1      32.595  21.645 -19.551  0.00  0.00    -0.217 OA
ATOM     20  O   UNL d   1      33.229  23.095 -20.059  0.00  0.00    -0.217 OA
BRANCH  18  21
ATOM     21  C   UNL d   1      32.889  22.662 -19.029  0.00  0.00     0.088 A 
ATOM     22  C   UNL d   1      33.198  22.211 -18.408  0.00  0.00     0.014 A 
ATOM     23  C   UNL d   1      33.174  22.502 -17.625  0.00  0.00     0.030 A 
ATOM     24  C   UNL d   1      32.841  23.245 -17.469  0.00  0.00     0.140 A 
ATOM     25  C   UNL d   1      32.528  23.698 -18.104  0.00  0.00     0.030 A 
ATOM     26  F   UNL d   1      32.813  23.541 -16.695  0.00  0.00    -0.204 F 
ATOM     27  C   UNL d   1      32.553  23.407 -18.882  0.00  0.00     0.014 A 
ENDBRANCH  18  21
ENDBRANCH   3  18
TORSDOF 2
ENDMDL
MODEL 5
REMARK VINA RESULT:      -0.8      1.080      1.630
REMARK  2 active torsions:
REMARK  status: ('A' for Active; 'I' for Inactive)
REMARK    1  A    between atoms: S_5  and  C_3 
REMARK    2  A    between atoms: C_12  and  S_5 
ROOT
ATOM      1  C   UNL d   1      33.164  22.258 -21.342  0.00  0.00     0.155 A 
ATOM      2  C   UNL d   1      33.187  21.553 -20.930  0.00  0.00     0.092 A 
ATOM      3  C   UNL d   1      33.161  20.836 -22.149  0.00  0.00     0.124 A 
ATOM      4  N   UNL d   1      33.165  22.974 -20.934  0.00  0.00    -0.210 NA
ATOM      5  N   UNL d   1      33.139  22.256 -22.152  0.00  0.00    -0.272 N 
ATOM      6  C   UNL d   1      33.137  21.548 -22.565  0.00  0.00     0.181 A 
ATOM      7  C   UNL d   1      33.212  21.556 -20.109  0.00  0.00     0.269 A 
ATOM      8  N   UNL d   1      33.214  22.270 -19.706  0.00  0.00    -0.258 N 
ATOM      9  C   UNL d   1      33.186  20.842 -21.330  0.00  0.00     0.022 A 
ATOM     10  C   UNL d   1      33.190  22.979 -20.126  0.00  0.00     0.152 A 
ATOM     11  N   UNL d   1      33.112  21.551 -23.394  0.00  0.00    -0.128 N 
ATOM     12  C   UNL d   1      33.239  22.284 -18.882  0.00  0.00     0.084 A 
ATOM     13  O   UNL d   1      33.236  20.839 -19.684  0.00  0.00    -0.266 OA
ATOM     14  C   UNL d   1      33.192  23.695 -19.719  0.00  0.00     0.038 A 
ATOM     15  C   UNL d   1      33.240  22.992 -18.489  0.00  0.00     0.019 A 
ATOM     16  C   UNL d   1      33.216  23.701 -18.910  0.00  0.00     0.005 A 
ATOM     17  C   UNL d   1      33.115  22.979 -22.576  0.00  0.00     0.102 C 
ENDROOT
BRANCH   3  18
ATOM     18  S   UNL d   1      33.159  20.117 -22.561  0.00  0.00     0.213 S 
ATOM     19  O   UNL d   1      33.145  20.522 -23.290  0.00  0.00    -0.217 OA
ATOM     20  O   UNL d   1      33.172  19.705 -21.842  0.00  0.00    -0.217 OA
BRANCH  18  21
ATOM     21  C   UNL d   1      33.157  19.387 -22.965  0.00  0.00     0.088 A 
ATOM     22  C   UNL d   1      33.090  18.678 -22.543  0.00  0.00     0.014 A 
ATOM     23  C   UNL d   1      33.089  17.947 -22.948  0.00  0.00     0.030 A 
ATOM     24  C   UNL d   1      33.154  17.930 -23.774  0.00  0.00     0.140 A 
ATOM     25  C   UNL d   1      33.222  18.653 -24.197  0.00  0.00     0.030 A 
ATOM     26  F   UNL d   1      33.154  17.209 -24.183  0.00  0.00    -0.204 F 
ATOM     27  C   UNL d   1      33.224  19.379 -23.793  0.00  0.00     0.014 A 
ENDBRANCH  18  21
ENDBRANCH   3  18
TORSDOF 2
ENDMDL
