MODEL 1
REMARK VINA RESULT:      18.0      0.000      0.000
REMARK  1 active torsions:
REMARK  status: ('A' for Active; 'I' for Inactive)
REMARK    1  A    between atoms: C_6  and  C_2 
ROOT
ATOM      1  N   UNL d   1     -51.292  24.616  33.378  0.00  0.00    -0.220 NA
ATOM      2  C   UNL d   1     -51.472  25.408  33.344  0.00  0.00     0.182 A 
ATOM      3  O   UNL d   1     -52.240  25.542  33.317  0.00  0.00    -0.288 OA
ATOM      4  C   UNL d   1     -52.028  24.243  33.372  0.00  0.00     0.106 A 
ATOM      5  C   UNL d   1     -52.617  24.819  33.333  0.00  0.00     0.119 A 
ATOM      6  C   UNL d   1     -52.217  23.439  33.396  0.00  0.00     0.021 A 
ATOM      7  C   UNL d   1     -53.396  24.591  33.320  0.00  0.00     0.026 A 
ATOM      8  C   UNL d   1     -53.620  23.794  33.344  0.00  0.00     0.002 A 
ATOM      9  C   UNL d   1     -53.010  23.197  33.383  0.00  0.00     0.002 A 
ENDROOT
BRANCH   2  10
ATOM     10  C   UNL d   1     -50.926  26.022  33.336  0.00  0.00     0.041 A 
ATOM     11  C   UNL d   1     -51.193  26.794  33.348  0.00  0.00     0.005 A 
ATOM     12  C   UNL d   1     -50.631  27.418  33.340  0.00  0.00     0.021 A 
ATOM     13  C   UNL d   1     -49.831  27.259  33.321  0.00  0.00     0.103 A 
ATOM     14  C   UNL d   1     -49.566  26.463  33.308  0.00  0.00     0.021 A 
ATOM     15  N   UNL d   1     -49.322  27.889  33.314  0.00  0.00    -0.148 N 
ATOM     16  C   UNL d   1     -50.126  25.855  33.316  0.00  0.00     0.005 A 
ENDBRANCH   2  10
TORSDOF 1
ENDMDL
