MODEL 1
REMARK VINA RESULT:      10.2      0.000      0.000
REMARK  0 active torsions:
REMARK  status: ('A' for Active; 'I' for Inactive)
ROOT
ATOM      1  C   UNL d   1      57.419  49.695  50.312  0.00  0.00     0.116 A 
ATOM      2  C   UNL d   1      57.611  49.690  49.510  0.00  0.00     0.192 A 
ATOM      3  N   UNL d   1      58.991  49.679  49.852  0.00  0.00    -0.145 NA
ATOM      4  C   UNL d   1      56.630  49.703  50.526  0.00  0.00     0.285 A 
ATOM      5  N   UNL d   1      57.033  49.693  48.942  0.00  0.00    -0.203 NA
ATOM      6  N   UNL d   1      58.395  49.682  49.281  0.00  0.00    -0.128 NA
ATOM      7  N   UNL d   1      56.035  49.706  49.951  0.00  0.00    -0.185 NA
ATOM      8  C   UNL d   1      56.243  49.701  49.161  0.00  0.00     0.203 A 
ATOM      9  C   UNL d   1      58.796  49.684  50.644  0.00  0.00     0.130 A 
ATOM     10  O   UNL d   1      56.421  49.708  51.325  0.00  0.00    -0.265 OA
ENDROOT
TORSDOF 0
ENDMDL
MODEL 2
REMARK VINA RESULT:      10.6      2.318      3.267
REMARK  0 active torsions:
REMARK  status: ('A' for Active; 'I' for Inactive)
ROOT
ATOM      1  C   UNL d   1      59.832  49.701  51.172  0.00  0.00     0.116 A 
ATOM      2  C   UNL d   1      60.646  49.699  51.033  0.00  0.00     0.192 A 
ATOM      3  N   UNL d   1      60.875  49.693  52.436  0.00  0.00    -0.145 NA
ATOM      4  C   UNL d   1      59.325  49.706  50.532  0.00  0.00     0.285 A 
ATOM      5  N   UNL d   1      60.939  49.702  50.278  0.00  0.00    -0.203 NA
ATOM      6  N   UNL d   1      61.165  49.695  51.663  0.00  0.00    -0.128 NA
ATOM      7  N   UNL d   1      59.618  49.708  49.758  0.00  0.00    -0.185 NA
ATOM      8  C   UNL d   1      60.427  49.706  49.638  0.00  0.00     0.203 A 
ATOM      9  C   UNL d   1      60.070  49.695  52.569  0.00  0.00     0.130 A 
ATOM     10  O   UNL d   1      58.508  49.708  50.654  0.00  0.00    -0.265 OA
ENDROOT
TORSDOF 0
ENDMDL
MODEL 3
REMARK VINA RESULT:      10.9      2.167      3.439
REMARK  0 active torsions:
REMARK  status: ('A' for Active; 'I' for Inactive)
ROOT
ATOM      1  C   UNL d   1      59.832  49.700  51.205  0.00  0.00     0.116 A 
ATOM      2  C   UNL d   1      59.855  49.705  50.380  0.00  0.00     0.192 A 
ATOM      3  N   UNL d   1      58.434  49.704  50.350  0.00  0.00    -0.145 NA
ATOM      4  C   UNL d   1      60.537  49.698  51.618  0.00  0.00     0.285 A 
ATOM      5  N   UNL d   1      60.562  49.708  49.983  0.00  0.00    -0.203 NA
ATOM      6  N   UNL d   1      59.158  49.707  49.955  0.00  0.00    -0.128 NA
ATOM      7  N   UNL d   1      61.262  49.700  51.218  0.00  0.00    -0.185 NA
ATOM      8  C   UNL d   1      61.267  49.705  50.400  0.00  0.00     0.203 A 
ATOM      9  C   UNL d   1      58.416  49.699  51.166  0.00  0.00     0.130 A 
ATOM     10  O   UNL d   1      60.531  49.692  52.443  0.00  0.00    -0.265 OA
ENDROOT
TORSDOF 0
ENDMDL
MODEL 4
REMARK VINA RESULT:      11.6      1.301      2.429
REMARK  0 active torsions:
REMARK  status: ('A' for Active; 'I' for Inactive)
ROOT
ATOM      1  C   UNL d   1      57.639  49.702  49.823  0.00  0.00     0.116 A 
ATOM      2  C   UNL d   1      57.085  49.701  50.434  0.00  0.00     0.192 A 
ATOM      3  N   UNL d   1      56.039  49.696  49.471  0.00  0.00    -0.145 NA
ATOM      4  C   UNL d   1      58.434  49.706  50.014  0.00  0.00     0.285 A 
ATOM      5  N   UNL d   1      57.319  49.702  51.209  0.00  0.00    -0.203 NA
ATOM      6  N   UNL d   1      56.287  49.697  50.258  0.00  0.00    -0.128 NA
ATOM      7  N   UNL d   1      58.680  49.707  50.804  0.00  0.00    -0.185 NA
ATOM      8  C   UNL d   1      58.117  49.705  51.398  0.00  0.00     0.203 A 
ATOM      9  C   UNL d   1      56.592  49.698  48.870  0.00  0.00     0.130 A 
ATOM     10  O   UNL d   1      59.002  49.707  49.414  0.00  0.00    -0.265 OA
ENDROOT
TORSDOF 0
ENDMDL
MODEL 5
REMARK VINA RESULT:      11.9      2.314      3.635
REMARK  0 active torsions:
REMARK  status: ('A' for Active; 'I' for Inactive)
ROOT
ATOM      1  C   UNL d   1      59.918  49.701  51.204  0.00  0.00     0.116 A 
ATOM      2  C   UNL d   1      60.565  49.699  50.692  0.00  0.00     0.192 A 
ATOM      3  N   UNL d   1      59.675  49.695  49.584  0.00  0.00    -0.145 NA
ATOM      4  C   UNL d   1      60.055  49.703  52.010  0.00  0.00     0.285 A 
ATOM      5  N   UNL d   1      61.322  49.701  50.979  0.00  0.00    -0.203 NA
ATOM      6  N   UNL d   1      60.443  49.697  49.885  0.00  0.00    -0.128 NA
ATOM      7  N   UNL d   1      60.826  49.705  52.309  0.00  0.00    -0.185 NA
ATOM      8  C   UNL d   1      61.456  49.703  51.787  0.00  0.00     0.203 A 
ATOM      9  C   UNL d   1      59.037  49.697  50.094  0.00  0.00     0.130 A 
ATOM     10  O   UNL d   1      59.417  49.705  52.536  0.00  0.00    -0.265 OA
ENDROOT
TORSDOF 0
ENDMDL
