MODEL 1
REMARK VINA RESULT:      -5.6      0.000      0.000
REMARK  6 active torsions:
REMARK  status: ('A' for Active; 'I' for Inactive)
REMARK    1  A    between atoms: C_3  and  S_1 
REMARK    2  A    between atoms: N_12  and  S_1 
REMARK    3  A    between atoms: C_6  and  C_16 
REMARK    4  A    between atoms: C_17  and  N_12 
REMARK    5  A    between atoms: O_18  and  C_13 
REMARK    6  A    between atoms: C_16  and  C_17 
ROOT
ATOM      1  S   UNL d   1     -47.666  13.688  22.912  0.00  0.00     0.285 S 
ATOM      2  O   UNL d   1     -47.324  14.153  22.314  0.00  0.00    -0.198 OA
ATOM      3  O   UNL d   1     -48.009  13.224  23.507  0.00  0.00    -0.198 OA
ENDROOT
BRANCH   1   4
ATOM      4  C   UNL d   1     -48.415  13.917  22.659  0.00  0.00     0.105 A 
ATOM      5  C   UNL d   1     -48.859  14.439  23.111  0.00  0.00     0.015 A 
ATOM      6  C   UNL d   1     -49.615  14.666  22.848  0.00  0.00     0.023 A 
ATOM      7  C   UNL d   1     -50.066  15.193  23.302  0.00  0.00     0.002 C 
ATOM      8  C   UNL d   1     -49.912  14.373  22.149  0.00  0.00     0.094 A 
ATOM      9  C   UNL d   1     -49.463  13.848  21.697  0.00  0.00     0.025 A 
ATOM     10  C   UNL d   1     -48.718  13.621  21.950  0.00  0.00     0.015 A 
BRANCH   8  11
ATOM     11  O   UNL d   1     -50.659  14.599  21.892  0.00  0.00    -0.328 OA
ATOM     12  C   UNL d   1     -51.063  14.141  21.343  0.00  0.00     0.181 C 
ENDBRANCH   8  11
ENDBRANCH   1   4
BRANCH   1  13
ATOM     13  N   UNL d   1     -46.912  13.463  23.159  0.00  0.00    -0.157 NA
BRANCH  13  14
ATOM     14  C   UNL d   1     -46.690  12.653  23.119  0.00  0.00     0.114 C 
BRANCH  14  15
ATOM     15  C   UNL d   1     -45.902  12.444  23.195  0.00  0.00     0.041 C 
BRANCH  15  16
ATOM     16  C   UNL d   1     -45.688  11.666  23.374  0.00  0.00     0.090 A 
ATOM     17  N   UNL d   1     -44.913  11.377  23.400  0.00  0.00    -0.238 NA
ATOM     18  C   UNL d   1     -44.954  10.575  23.601  0.00  0.00     0.111 A 
ATOM     19  C   UNL d   1     -44.308  10.056  23.691  0.00  0.00     0.028 C 
ATOM     20  S   UNL d   1     -45.747  10.369  23.698  0.00  0.00    -0.066 SA
ATOM     21  C   UNL d   1     -46.203  11.049  23.557  0.00  0.00     0.056 A 
ENDBRANCH  15  16
ENDBRANCH  14  15
ENDBRANCH  13  14
ENDBRANCH   1  13
TORSDOF 6
ENDMDL
MODEL 2
REMARK VINA RESULT:      -5.6      1.707      4.930
REMARK  6 active torsions:
REMARK  status: ('A' for Active; 'I' for Inactive)
REMARK    1  A    between atoms: C_3  and  S_1 
REMARK    2  A    between atoms: N_12  and  S_1 
REMARK    3  A    between atoms: C_6  and  C_16 
REMARK    4  A    between atoms: C_17  and  N_12 
REMARK    5  A    between atoms: O_18  and  C_13 
REMARK    6  A    between atoms: C_16  and  C_17 
ROOT
ATOM      1  S   UNL d   1     -46.647  13.752  22.714  0.00  0.00     0.285 S 
ATOM      2  O   UNL d   1     -46.895  13.495  21.963  0.00  0.00    -0.198 OA
ATOM      3  O   UNL d   1     -46.398  14.006  23.462  0.00  0.00    -0.198 OA
ENDROOT
BRANCH   1   4
ATOM      4  C   UNL d   1     -46.080  13.156  22.727  0.00  0.00     0.105 A 
ATOM      5  C   UNL d   1     -45.406  13.218  22.262  0.00  0.00     0.015 A 
ATOM      6  C   UNL d   1     -44.838  12.611  22.281  0.00  0.00     0.023 A 
ATOM      7  C   UNL d   1     -44.157  12.672  21.812  0.00  0.00     0.002 C 
ATOM      8  C   UNL d   1     -44.948  11.961  22.758  0.00  0.00     0.094 A 
ATOM      9  C   UNL d   1     -45.626  11.900  23.225  0.00  0.00     0.025 A 
ATOM     10  C   UNL d   1     -46.189  12.495  23.210  0.00  0.00     0.015 A 
BRANCH   8  11
ATOM     11  O   UNL d   1     -44.385  11.362  22.776  0.00  0.00    -0.328 OA
ATOM     12  C   UNL d   1     -44.420  10.778  23.351  0.00  0.00     0.181 C 
ENDBRANCH   8  11
ENDBRANCH   1   4
BRANCH   1  13
ATOM     13  N   UNL d   1     -47.218  14.347  22.692  0.00  0.00    -0.157 NA
BRANCH  13  14
ATOM     14  C   UNL d   1     -48.011  14.163  22.898  0.00  0.00     0.114 C 
BRANCH  14  15
ATOM     15  C   UNL d   1     -48.570  14.761  22.935  0.00  0.00     0.041 C 
BRANCH  15  16
ATOM     16  C   UNL d   1     -49.375  14.582  22.998  0.00  0.00     0.090 A 
ATOM     17  N   UNL d   1     -49.692  13.958  23.439  0.00  0.00    -0.238 NA
ATOM     18  C   UNL d   1     -50.515  13.984  23.348  0.00  0.00     0.111 A 
ATOM     19  C   UNL d   1     -51.064  13.461  23.692  0.00  0.00     0.028 C 
ATOM     20  S   UNL d   1     -50.704  14.617  22.855  0.00  0.00    -0.066 SA
ATOM     21  C   UNL d   1     -49.994  14.990  22.638  0.00  0.00     0.056 A 
ENDBRANCH  15  16
ENDBRANCH  14  15
ENDBRANCH  13  14
ENDBRANCH   1  13
TORSDOF 6
ENDMDL
MODEL 3
REMARK VINA RESULT:      -4.9      8.606     10.105
REMARK  6 active torsions:
REMARK  status: ('A' for Active; 'I' for Inactive)
REMARK    1  A    between atoms: C_3  and  S_1 
REMARK    2  A    between atoms: N_12  and  S_1 
REMARK    3  A    between atoms: C_6  and  C_16 
REMARK    4  A    between atoms: C_17  and  N_12 
REMARK    5  A    between atoms: O_18  and  C_13 
REMARK    6  A    between atoms: C_16  and  C_17 
ROOT
ATOM      1  S   UNL d   1     -39.685  14.301  18.485  0.00  0.00     0.285 S 
ATOM      2  O   UNL d   1     -40.205  13.660  18.379  0.00  0.00    -0.198 OA
ATOM      3  O   UNL d   1     -39.166  14.938  18.588  0.00  0.00    -0.198 OA
ENDROOT
BRANCH   1   4
ATOM      4  C   UNL d   1     -39.299  14.099  17.787  0.00  0.00     0.105 A 
ATOM      5  C   UNL d   1     -38.815  13.436  17.760  0.00  0.00     0.015 A 
ATOM      6  C   UNL d   1     -38.429  13.239  17.051  0.00  0.00     0.023 A 
ATOM      7  C   UNL d   1     -37.940  12.571  17.022  0.00  0.00     0.002 C 
ATOM      8  C   UNL d   1     -38.530  13.700  16.387  0.00  0.00     0.094 A 
ATOM      9  C   UNL d   1     -39.016  14.366  16.416  0.00  0.00     0.025 A 
ATOM     10  C   UNL d   1     -39.399  14.565  17.112  0.00  0.00     0.015 A 
BRANCH   8  11
ATOM     11  O   UNL d   1     -38.146  13.504  15.687  0.00  0.00    -0.328 OA
ATOM     12  C   UNL d   1     -37.951  14.088  15.145  0.00  0.00     0.181 C 
ENDBRANCH   8  11
ENDBRANCH   1   4
BRANCH   1  13
ATOM     13  N   UNL d   1     -40.077  14.496  19.184  0.00  0.00    -0.157 NA
BRANCH  13  14
ATOM     14  C   UNL d   1     -39.663  14.451  19.914  0.00  0.00     0.114 C 
BRANCH  14  15
ATOM     15  C   UNL d   1     -40.073  14.529  20.619  0.00  0.00     0.041 C 
BRANCH  15  16
ATOM     16  C   UNL d   1     -39.679  14.482  21.343  0.00  0.00     0.090 A 
ATOM     17  N   UNL d   1     -39.490  13.781  21.741  0.00  0.00    -0.238 NA
ATOM     18  C   UNL d   1     -39.098  13.991  22.440  0.00  0.00     0.111 A 
ATOM     19  C   UNL d   1     -38.805  13.465  23.016  0.00  0.00     0.028 C 
ATOM     20  S   UNL d   1     -39.045  14.813  22.475  0.00  0.00    -0.066 SA
ATOM     21  C   UNL d   1     -39.407  15.119  21.792  0.00  0.00     0.056 A 
ENDBRANCH  15  16
ENDBRANCH  14  15
ENDBRANCH  13  14
ENDBRANCH   1  13
TORSDOF 6
ENDMDL
MODEL 4
REMARK VINA RESULT:      -4.8      8.334      9.219
REMARK  6 active torsions:
REMARK  status: ('A' for Active; 'I' for Inactive)
REMARK    1  A    between atoms: C_3  and  S_1 
REMARK    2  A    between atoms: N_12  and  S_1 
REMARK    3  A    between atoms: C_6  and  C_16 
REMARK    4  A    between atoms: C_17  and  N_12 
REMARK    5  A    between atoms: O_18  and  C_13 
REMARK    6  A    between atoms: C_16  and  C_17 
ROOT
ATOM      1  S   UNL d   1     -40.433  14.817  19.141  0.00  0.00     0.285 S 
ATOM      2  O   UNL d   1     -40.572  14.055  18.836  0.00  0.00    -0.198 OA
ATOM      3  O   UNL d   1     -40.295  15.576  19.442  0.00  0.00    -0.198 OA
ENDROOT
BRANCH   1   4
ATOM      4  C   UNL d   1     -40.268  15.088  18.382  0.00  0.00     0.105 A 
ATOM      5  C   UNL d   1     -40.875  15.367  17.904  0.00  0.00     0.015 A 
ATOM      6  C   UNL d   1     -40.700  15.639  17.138  0.00  0.00     0.023 A 
ATOM      7  C   UNL d   1     -41.311  15.922  16.654  0.00  0.00     0.002 C 
ATOM      8  C   UNL d   1     -39.934  15.629  16.864  0.00  0.00     0.094 A 
ATOM      9  C   UNL d   1     -39.326  15.347  17.346  0.00  0.00     0.025 A 
ATOM     10  C   UNL d   1     -39.492  15.078  18.101  0.00  0.00     0.015 A 
BRANCH   8  11
ATOM     11  O   UNL d   1     -39.763  15.898  16.106  0.00  0.00    -0.328 OA
ATOM     12  C   UNL d   1     -38.987  15.922  15.841  0.00  0.00     0.181 C 
ENDBRANCH   8  11
ENDBRANCH   1   4
BRANCH   1  13
ATOM     13  N   UNL d   1     -40.600  14.537  19.899  0.00  0.00    -0.157 NA
BRANCH  13  14
ATOM     14  C   UNL d   1     -39.987  14.512  20.472  0.00  0.00     0.114 C 
BRANCH  14  15
ATOM     15  C   UNL d   1     -40.152  14.257  21.234  0.00  0.00     0.041 C 
BRANCH  15  16
ATOM     16  C   UNL d   1     -39.554  14.211  21.801  0.00  0.00     0.090 A 
ATOM     17  N   UNL d   1     -39.344  14.816  22.325  0.00  0.00    -0.238 NA
ATOM     18  C   UNL d   1     -38.722  14.534  22.793  0.00  0.00     0.111 A 
ATOM     19  C   UNL d   1     -38.332  14.954  23.399  0.00  0.00     0.028 C 
ATOM     20  S   UNL d   1     -38.548  13.762  22.562  0.00  0.00    -0.066 SA
ATOM     21  C   UNL d   1     -39.067  13.561  21.944  0.00  0.00     0.056 A 
ENDBRANCH  15  16
ENDBRANCH  14  15
ENDBRANCH  13  14
ENDBRANCH   1  13
TORSDOF 6
ENDMDL
