MODEL 1
REMARK VINA RESULT:      -6.0      0.000      0.000
REMARK  5 active torsions:
REMARK  status: ('A' for Active; 'I' for Inactive)
REMARK    1  A    between atoms: C_20  and  C_3 
REMARK    2  A    between atoms: C_6  and  C_8 
REMARK       I    between atoms: C_8  and  N_17 
REMARK    3  A    between atoms: N_17  and  C_21 
REMARK    4  A    between atoms: O_22  and  C_18 
REMARK    5  A    between atoms: C_21  and  C_20 
ROOT
ATOM      1  N   UNL d   1     -41.231-121.733 -52.619  0.00  0.00    -0.208 NA
ATOM      2  C   UNL d   1     -41.186-121.877 -51.807  0.00  0.00     0.279 A 
ATOM      3  C   UNL d   1     -41.204-122.659 -51.522  0.00  0.00     0.059 A 
ATOM      4  C   UNL d   1     -41.295-122.372 -53.150  0.00  0.00     0.087 A 
ATOM      5  C   UNL d   1     -41.267-123.289 -52.052  0.00  0.00     0.006 A 
ATOM      6  C   UNL d   1     -41.312-123.144 -52.860  0.00  0.00     0.018 A 
ATOM      7  C   UNL d   1     -41.340-122.219 -53.961  0.00  0.00     0.043 A 
ATOM      8  O   UNL d   1     -41.123-121.248 -51.280  0.00  0.00    -0.265 OA
ATOM      9  C   UNL d   1     -41.376-123.776 -53.394  0.00  0.00     0.004 A 
ATOM     10  C   UNL d   1     -41.403-122.848 -54.488  0.00  0.00     0.096 A 
ATOM     11  C   UNL d   1     -41.421-123.631 -54.203  0.00  0.00     0.024 A 
ENDROOT
BRANCH   3  12
ATOM     12  C   UNL d   1     -41.158-122.797 -50.716  0.00  0.00     0.026 C 
BRANCH  12  13
ATOM     13  C   UNL d   1     -41.812-123.057 -50.296  0.00  0.00     0.102 C 
BRANCH  13  14
ATOM     14  N   UNL d   1     -41.763-123.220 -49.488  0.00  0.00    -0.206 NA
ATOM     15  C   UNL d   1     -42.439-123.187 -49.015  0.00  0.00     0.285 C 
ATOM     16  O   UNL d   1     -43.165-122.991 -49.342  0.00  0.00    -0.265 OA
BRANCH  15  17
ATOM     17  C   UNL d   1     -42.380-123.352 -48.207  0.00  0.00     0.087 A 
ATOM     18  S   UNL d   1     -42.917-123.781 -47.765  0.00  0.00    -0.082 SA
ATOM     19  C   UNL d   1     -42.660-123.817 -46.998  0.00  0.00     0.036 A 
ATOM     20  C   UNL d   1     -41.944-123.402 -46.953  0.00  0.00     0.008 A 
ATOM     21  C   UNL d   1     -41.771-123.113 -47.705  0.00  0.00     0.012 A 
ENDBRANCH  15  17
ENDBRANCH  13  14
ENDBRANCH  12  13
ENDBRANCH   3  12
BRANCH  10  22
ATOM     22  O   UNL d   1     -41.449-122.703 -55.297  0.00  0.00    -0.328 OA
ATOM     23  C   UNL d   1     -42.086-122.283 -55.604  0.00  0.00     0.181 C 
ENDBRANCH  10  22
TORSDOF 5
ENDMDL
MODEL 2
REMARK VINA RESULT:      -5.8      1.802      5.412
REMARK  5 active torsions:
REMARK  status: ('A' for Active; 'I' for Inactive)
REMARK    1  A    between atoms: C_20  and  C_3 
REMARK    2  A    between atoms: C_6  and  C_8 
REMARK       I    between atoms: C_8  and  N_17 
REMARK    3  A    between atoms: N_17  and  C_21 
REMARK    4  A    between atoms: O_22  and  C_18 
REMARK    5  A    between atoms: C_21  and  C_20 
ROOT
ATOM      1  N   UNL d   1     -42.838-122.342 -49.780  0.00  0.00    -0.208 NA
ATOM      2  C   UNL d   1     -42.566-122.081 -50.515  0.00  0.00     0.279 A 
ATOM      3  C   UNL d   1     -41.808-122.303 -50.780  0.00  0.00     0.059 A 
ATOM      4  C   UNL d   1     -42.352-122.825 -49.305  0.00  0.00     0.087 A 
ATOM      5  C   UNL d   1     -41.330-122.782 -50.306  0.00  0.00     0.006 A 
ATOM      6  C   UNL d   1     -41.602-123.040 -49.574  0.00  0.00     0.018 A 
ATOM      7  C   UNL d   1     -42.632-123.081 -48.571  0.00  0.00     0.043 A 
ATOM      8  O   UNL d   1     -43.044-121.604 -50.985  0.00  0.00    -0.265 OA
ATOM      9  C   UNL d   1     -41.124-123.521 -49.098  0.00  0.00     0.004 A 
ATOM     10  C   UNL d   1     -42.154-123.559 -48.101  0.00  0.00     0.096 A 
ATOM     11  C   UNL d   1     -41.396-123.780 -48.366  0.00  0.00     0.024 A 
ENDROOT
BRANCH   3  12
ATOM     12  C   UNL d   1     -41.543-122.042 -51.509  0.00  0.00     0.026 C 
BRANCH  12  13
ATOM     13  C   UNL d   1     -41.484-122.557 -52.144  0.00  0.00     0.102 C 
BRANCH  13  14
ATOM     14  N   UNL d   1     -41.581-122.292 -52.920  0.00  0.00    -0.206 NA
ATOM     15  C   UNL d   1     -41.560-122.826 -53.548  0.00  0.00     0.285 C 
ATOM     16  O   UNL d   1     -41.442-123.626 -53.409  0.00  0.00    -0.265 OA
BRANCH  15  17
ATOM     17  C   UNL d   1     -41.658-122.552 -54.322  0.00  0.00     0.087 A 
ATOM     18  S   UNL d   1     -42.278-122.095 -54.594  0.00  0.00    -0.082 SA
ATOM     19  C   UNL d   1     -42.170-121.943 -55.382  0.00  0.00     0.036 A 
ATOM     20  C   UNL d   1     -41.466-122.313 -55.615  0.00  0.00     0.008 A 
ATOM     21  C   UNL d   1     -41.148-122.691 -54.955  0.00  0.00     0.012 A 
ENDBRANCH  15  17
ENDBRANCH  13  14
ENDBRANCH  12  13
ENDBRANCH   3  12
BRANCH  10  22
ATOM     22  O   UNL d   1     -42.426-123.817 -47.368  0.00  0.00    -0.328 OA
ATOM     23  C   UNL d   1     -41.967-123.702 -46.696  0.00  0.00     0.181 C 
ENDBRANCH  10  22
TORSDOF 5
ENDMDL
