MODEL 1
REMARK VINA RESULT:      -7.1      0.000      0.000
REMARK  3 active torsions:
REMARK  status: ('A' for Active; 'I' for Inactive)
REMARK    1  A    between atoms: C_5  and  C_3 
REMARK       I    between atoms: N_10  and  C_5 
REMARK    2  A    between atoms: C_13  and  N_10 
REMARK    3  A    between atoms: C_15  and  C_13 
ROOT
ATOM      1  N   UNL d   1     -46.686  12.093  22.906  0.00  0.00    -0.254 N 
ATOM      2  C   UNL d   1     -47.293  12.531  22.550  0.00  0.00     0.272 A 
ATOM      3  C   UNL d   1     -48.085  12.359  22.716  0.00  0.00     0.133 A 
ATOM      4  C   UNL d   1     -46.881  11.485  23.428  0.00  0.00     0.182 A 
ATOM      5  N   UNL d   1     -47.667  11.312  23.595  0.00  0.00    -0.220 NA
ATOM      6  C   UNL d   1     -48.272  11.749  23.239  0.00  0.00     0.111 A 
ATOM      7  S   UNL d   1     -46.178  11.146  23.698  0.00  0.00    -0.048 SA
ATOM      8  C   UNL d   1     -45.870  12.134  22.851  0.00  0.00     0.075 A 
ATOM      9  C   UNL d   1     -45.549  11.555  23.335  0.00  0.00     0.056 A 
ATOM     10  O   UNL d   1     -47.098  13.140  22.028  0.00  0.00    -0.266 OA
ATOM     11  C   UNL d   1     -45.442  12.662  22.391  0.00  0.00     0.020 C 
ENDROOT
BRANCH   3  12
ATOM     12  C   UNL d   1     -48.682  12.805  22.352  0.00  0.00     0.285 C 
ATOM     13  N   UNL d   1     -49.088  13.369  22.795  0.00  0.00    -0.208 NA
ATOM     14  O   UNL d   1     -48.866  12.689  21.565  0.00  0.00    -0.265 OA
BRANCH  13  15
ATOM     15  C   UNL d   1     -49.682  13.817  22.444  0.00  0.00     0.085 C 
ATOM     16  C   UNL d   1     -49.944  13.642  21.689  0.00  0.00     0.021 C 
BRANCH  15  17
ATOM     17  C   UNL d   1     -50.012  14.446  22.862  0.00  0.00     0.018 A 
ATOM     18  C   UNL d   1     -49.620  15.175  22.859  0.00  0.00     0.002 A 
ATOM     19  C   UNL d   1     -49.950  15.805  23.277  0.00  0.00     0.000 A 
ATOM     20  C   UNL d   1     -50.666  15.715  23.698  0.00  0.00     0.000 A 
ATOM     21  C   UNL d   1     -51.047  14.981  23.692  0.00  0.00     0.000 A 
ATOM     22  C   UNL d   1     -50.726  14.345  23.277  0.00  0.00     0.002 A 
ENDBRANCH  15  17
ENDBRANCH  13  15
ENDBRANCH   3  12
TORSDOF 3
ENDMDL
MODEL 2
REMARK VINA RESULT:      -6.8      8.654     10.220
REMARK  3 active torsions:
REMARK  status: ('A' for Active; 'I' for Inactive)
REMARK    1  A    between atoms: C_5  and  C_3 
REMARK       I    between atoms: N_10  and  C_5 
REMARK    2  A    between atoms: C_13  and  N_10 
REMARK    3  A    between atoms: C_15  and  C_13 
ROOT
ATOM      1  N   UNL d   1     -38.819  14.049  16.789  0.00  0.00    -0.254 N 
ATOM      2  C   UNL d   1     -39.279  13.914  17.466  0.00  0.00     0.272 A 
ATOM      3  C   UNL d   1     -39.823  14.482  17.722  0.00  0.00     0.133 A 
ATOM      4  C   UNL d   1     -38.911  14.756  16.374  0.00  0.00     0.182 A 
ATOM      5  N   UNL d   1     -39.452  15.323  16.627  0.00  0.00    -0.220 NA
ATOM      6  C   UNL d   1     -39.909  15.187  17.302  0.00  0.00     0.111 A 
ATOM      7  S   UNL d   1     -38.392  14.745  15.733  0.00  0.00    -0.048 SA
ATOM      8  C   UNL d   1     -38.249  13.601  16.411  0.00  0.00     0.075 A 
ATOM      9  C   UNL d   1     -37.980  14.021  15.759  0.00  0.00     0.056 A 
ATOM     10  O   UNL d   1     -39.187  13.207  17.881  0.00  0.00    -0.266 OA
ATOM     11  C   UNL d   1     -37.986  12.857  16.639  0.00  0.00     0.020 C 
ENDROOT
BRANCH   3  12
ATOM     12  C   UNL d   1     -40.276  14.333  18.400  0.00  0.00     0.285 C 
ATOM     13  N   UNL d   1     -40.084  14.717  19.103  0.00  0.00    -0.208 NA
ATOM     14  O   UNL d   1     -40.904  13.812  18.374  0.00  0.00    -0.265 OA
BRANCH  13  15
ATOM     15  C   UNL d   1     -40.527  14.577  19.782  0.00  0.00     0.085 C 
ATOM     16  C   UNL d   1     -41.226  14.155  19.743  0.00  0.00     0.021 C 
BRANCH  15  17
ATOM     17  C   UNL d   1     -40.257  14.867  20.506  0.00  0.00     0.018 A 
ATOM     18  C   UNL d   1     -40.479  15.630  20.736  0.00  0.00     0.002 A 
ATOM     19  C   UNL d   1     -40.209  15.920  21.459  0.00  0.00     0.000 A 
ATOM     20  C   UNL d   1     -39.722  15.457  21.955  0.00  0.00     0.000 A 
ATOM     21  C   UNL d   1     -39.509  14.696  21.712  0.00  0.00     0.000 A 
ATOM     22  C   UNL d   1     -39.772  14.396  20.991  0.00  0.00     0.002 A 
ENDBRANCH  15  17
ENDBRANCH  13  15
ENDBRANCH   3  12
TORSDOF 3
ENDMDL
MODEL 3
REMARK VINA RESULT:      -6.0      1.632      2.130
REMARK  3 active torsions:
REMARK  status: ('A' for Active; 'I' for Inactive)
REMARK    1  A    between atoms: C_5  and  C_3 
REMARK       I    between atoms: N_10  and  C_5 
REMARK    2  A    between atoms: C_13  and  N_10 
REMARK    3  A    between atoms: C_15  and  C_13 
ROOT
ATOM      1  N   UNL d   1     -45.086  11.847  22.935  0.00  0.00    -0.254 N 
ATOM      2  C   UNL d   1     -45.645  12.453  22.845  0.00  0.00     0.272 A 
ATOM      3  C   UNL d   1     -46.397  12.380  23.181  0.00  0.00     0.133 A 
ATOM      4  C   UNL d   1     -45.289  11.171  23.363  0.00  0.00     0.182 A 
ATOM      5  N   UNL d   1     -46.036  11.097  23.698  0.00  0.00    -0.220 NA
ATOM      6  C   UNL d   1     -46.593  11.702  23.607  0.00  0.00     0.111 A 
ATOM      7  S   UNL d   1     -44.636  10.666  23.365  0.00  0.00    -0.048 SA
ATOM      8  C   UNL d   1     -44.315  11.763  22.672  0.00  0.00     0.075 A 
ATOM      9  C   UNL d   1     -44.031  11.040  22.932  0.00  0.00     0.056 A 
ATOM     10  O   UNL d   1     -45.442  13.128  22.417  0.00  0.00    -0.266 OA
ATOM     11  C   UNL d   1     -43.894  12.308  22.225  0.00  0.00     0.020 C 
ENDROOT
BRANCH   3  12
ATOM     12  C   UNL d   1     -46.947  12.993  23.082  0.00  0.00     0.285 C 
ATOM     13  N   UNL d   1     -47.676  12.828  22.738  0.00  0.00    -0.208 NA
ATOM     14  O   UNL d   1     -46.768  13.753  23.324  0.00  0.00    -0.265 OA
BRANCH  13  15
ATOM     15  C   UNL d   1     -48.228  13.429  22.636  0.00  0.00     0.085 C 
ATOM     16  C   UNL d   1     -48.051  14.198  22.852  0.00  0.00     0.021 C 
BRANCH  15  17
ATOM     17  C   UNL d   1     -48.965  13.249  22.312  0.00  0.00     0.018 A 
ATOM     18  C   UNL d   1     -49.568  12.991  22.816  0.00  0.00     0.002 A 
ATOM     19  C   UNL d   1     -50.305  12.810  22.492  0.00  0.00     0.000 A 
ATOM     20  C   UNL d   1     -50.446  12.885  21.673  0.00  0.00     0.000 A 
ATOM     21  C   UNL d   1     -49.834  13.144  21.181  0.00  0.00     0.000 A 
ATOM     22  C   UNL d   1     -49.093  13.327  21.494  0.00  0.00     0.002 A 
ENDBRANCH  15  17
ENDBRANCH  13  15
ENDBRANCH   3  12
TORSDOF 3
ENDMDL
MODEL 4
REMARK VINA RESULT:      -5.6      9.490     10.501
REMARK  3 active torsions:
REMARK  status: ('A' for Active; 'I' for Inactive)
REMARK    1  A    between atoms: C_5  and  C_3 
REMARK       I    between atoms: N_10  and  C_5 
REMARK    2  A    between atoms: C_13  and  N_10 
REMARK    3  A    between atoms: C_15  and  C_13 
ROOT
ATOM      1  N   UNL d   1     -39.858  15.165  17.455  0.00  0.00    -0.254 N 
ATOM      2  C   UNL d   1     -39.324  14.812  17.982  0.00  0.00     0.272 A 
ATOM      3  C   UNL d   1     -39.600  14.335  18.599  0.00  0.00     0.133 A 
ATOM      4  C   UNL d   1     -40.667  15.036  17.553  0.00  0.00     0.182 A 
ATOM      5  N   UNL d   1     -40.944  14.562  18.166  0.00  0.00    -0.220 NA
ATOM      6  C   UNL d   1     -40.411  14.210  18.691  0.00  0.00     0.111 A 
ATOM      7  S   UNL d   1     -41.064  15.449  16.959  0.00  0.00    -0.048 SA
ATOM      8  C   UNL d   1     -39.752  15.653  16.807  0.00  0.00     0.075 A 
ATOM      9  C   UNL d   1     -40.489  15.833  16.495  0.00  0.00     0.056 A 
ATOM     10  O   UNL d   1     -38.515  14.941  17.884  0.00  0.00    -0.266 OA
ATOM     11  C   UNL d   1     -39.033  15.921  16.514  0.00  0.00     0.020 C 
ENDROOT
BRANCH   3  12
ATOM     12  C   UNL d   1     -39.055  13.988  19.119  0.00  0.00     0.285 C 
ATOM     13  N   UNL d   1     -39.070  14.198  19.915  0.00  0.00    -0.208 NA
ATOM     14  O   UNL d   1     -38.509  13.444  18.846  0.00  0.00    -0.265 OA
BRANCH  13  15
ATOM     15  C   UNL d   1     -38.534  13.859  20.439  0.00  0.00     0.085 C 
ATOM     16  C   UNL d   1     -37.997  13.299  20.181  0.00  0.00     0.021 C 
BRANCH  15  17
ATOM     17  C   UNL d   1     -38.543  14.092  21.230  0.00  0.00     0.018 A 
ATOM     18  C   UNL d   1     -38.223  14.828  21.432  0.00  0.00     0.002 A 
ATOM     19  C   UNL d   1     -38.232  15.060  22.224  0.00  0.00     0.000 A 
ATOM     20  C   UNL d   1     -38.555  14.567  22.814  0.00  0.00     0.000 A 
ATOM     21  C   UNL d   1     -38.872  13.834  22.598  0.00  0.00     0.000 A 
ATOM     22  C   UNL d   1     -38.868  13.591  21.810  0.00  0.00     0.002 A 
ENDBRANCH  15  17
ENDBRANCH  13  15
ENDBRANCH   3  12
TORSDOF 3
ENDMDL
MODEL 5
REMARK VINA RESULT:      -5.3      9.193     10.407
REMARK  3 active torsions:
REMARK  status: ('A' for Active; 'I' for Inactive)
REMARK    1  A    between atoms: C_5  and  C_3 
REMARK       I    between atoms: N_10  and  C_5 
REMARK    2  A    between atoms: C_13  and  N_10 
REMARK    3  A    between atoms: C_15  and  C_13 
ROOT
ATOM      1  N   UNL d   1     -39.295  14.780  21.214  0.00  0.00    -0.254 N 
ATOM      2  C   UNL d   1     -39.413  14.475  20.452  0.00  0.00     0.272 A 
ATOM      3  C   UNL d   1     -39.870  14.890  19.902  0.00  0.00     0.133 A 
ATOM      4  C   UNL d   1     -39.638  15.502  21.416  0.00  0.00     0.182 A 
ATOM      5  N   UNL d   1     -40.093  15.917  20.871  0.00  0.00    -0.220 NA
ATOM      6  C   UNL d   1     -40.211  15.612  20.112  0.00  0.00     0.111 A 
ATOM      7  S   UNL d   1     -39.433  15.671  22.198  0.00  0.00    -0.048 SA
ATOM      8  C   UNL d   1     -38.880  14.501  21.861  0.00  0.00     0.075 A 
ATOM      9  C   UNL d   1     -38.959  15.043  22.472  0.00  0.00     0.056 A 
ATOM     10  O   UNL d   1     -39.070  13.752  20.249  0.00  0.00    -0.266 OA
ATOM     11  C   UNL d   1     -38.455  13.800  21.900  0.00  0.00     0.020 C 
ENDROOT
BRANCH   3  12
ATOM     12  C   UNL d   1     -39.980  14.573  19.143  0.00  0.00     0.285 C 
ATOM     13  N   UNL d   1     -39.586  14.913  18.506  0.00  0.00    -0.208 NA
ATOM     14  O   UNL d   1     -40.473  13.932  19.029  0.00  0.00    -0.265 OA
BRANCH  13  15
ATOM     15  C   UNL d   1     -39.688  14.606  17.749  0.00  0.00     0.085 C 
ATOM     16  C   UNL d   1     -40.338  14.143  17.571  0.00  0.00     0.021 C 
BRANCH  15  17
ATOM     17  C   UNL d   1     -39.125  14.771  17.168  0.00  0.00     0.018 A 
ATOM     18  C   UNL d   1     -39.052  15.549  16.895  0.00  0.00     0.002 A 
ATOM     19  C   UNL d   1     -38.490  15.714  16.314  0.00  0.00     0.000 A 
ATOM     20  C   UNL d   1     -38.001  15.112  16.004  0.00  0.00     0.000 A 
ATOM     21  C   UNL d   1     -38.085  14.340  16.287  0.00  0.00     0.000 A 
ATOM     22  C   UNL d   1     -38.644  14.163  16.867  0.00  0.00     0.002 A 
ENDBRANCH  15  17
ENDBRANCH  13  15
ENDBRANCH   3  12
TORSDOF 3
ENDMDL
MODEL 6
REMARK VINA RESULT:      -5.1      9.582     10.132
REMARK  3 active torsions:
REMARK  status: ('A' for Active; 'I' for Inactive)
REMARK    1  A    between atoms: C_5  and  C_3 
REMARK       I    between atoms: N_10  and  C_5 
REMARK    2  A    between atoms: C_13  and  N_10 
REMARK    3  A    between atoms: C_15  and  C_13 
ROOT
ATOM      1  N   UNL d   1     -38.625  14.546  22.252  0.00  0.00    -0.254 N 
ATOM      2  C   UNL d   1     -38.618  14.994  21.554  0.00  0.00     0.272 A 
ATOM      3  C   UNL d   1     -38.489  14.628  20.824  0.00  0.00     0.133 A 
ATOM      4  C   UNL d   1     -38.502  13.731  22.209  0.00  0.00     0.182 A 
ATOM      5  N   UNL d   1     -38.374  13.365  21.484  0.00  0.00    -0.220 NA
ATOM      6  C   UNL d   1     -38.367  13.813  20.789  0.00  0.00     0.111 A 
ATOM      7  S   UNL d   1     -38.537  13.427  22.976  0.00  0.00    -0.048 SA
ATOM      8  C   UNL d   1     -38.736  14.748  23.037  0.00  0.00     0.075 A 
ATOM      9  C   UNL d   1     -38.683  14.067  23.490  0.00  0.00     0.056 A 
ATOM     10  O   UNL d   1     -38.741  15.809  21.597  0.00  0.00    -0.266 OA
ATOM     11  C   UNL d   1     -38.876  15.503  23.328  0.00  0.00     0.020 C 
ENDROOT
BRANCH   3  12
ATOM     12  C   UNL d   1     -38.485  15.088  20.134  0.00  0.00     0.285 C 
ATOM     13  N   UNL d   1     -39.036  14.931  19.543  0.00  0.00    -0.208 NA
ATOM     14  O   UNL d   1     -37.941  15.691  20.041  0.00  0.00    -0.265 OA
BRANCH  13  15
ATOM     15  C   UNL d   1     -39.041  15.382  18.855  0.00  0.00     0.085 C 
ATOM     16  C   UNL d   1     -38.406  15.862  18.668  0.00  0.00     0.021 C 
BRANCH  15  17
ATOM     17  C   UNL d   1     -39.695  15.345  18.354  0.00  0.00     0.018 A 
ATOM     18  C   UNL d   1     -39.737  14.731  17.800  0.00  0.00     0.002 A 
ATOM     19  C   UNL d   1     -40.391  14.694  17.298  0.00  0.00     0.000 A 
ATOM     20  C   UNL d   1     -41.001  15.262  17.343  0.00  0.00     0.000 A 
ATOM     21  C   UNL d   1     -40.946  15.870  17.901  0.00  0.00     0.000 A 
ATOM     22  C   UNL d   1     -40.297  15.917  18.408  0.00  0.00     0.002 A 
ENDBRANCH  15  17
ENDBRANCH  13  15
ENDBRANCH   3  12
TORSDOF 3
ENDMDL
