MODEL 1
REMARK VINA RESULT:       8.7      0.000      0.000
REMARK  7 active torsions:
REMARK  status: ('A' for Active; 'I' for Inactive)
REMARK    1  A    between atoms: C_7  and  C_1 
REMARK    2  A    between atoms: C_9  and  N_2 
REMARK    3  A    between atoms: C_15  and  C_7 
REMARK    4  A    between atoms: C_8  and  C_9 
REMARK       I    between atoms: N_14  and  C_8 
REMARK    5  A    between atoms: C_20  and  N_14 
REMARK    6  A    between atoms: C_33  and  C_27 
REMARK    7  A    between atoms: C_34  and  C_32 
ROOT
ATOM      1  C   UNL d   1     -42.400-122.816 -50.642  0.00  0.00     0.095 A 
ATOM      2  N   UNL d   1     -41.588-122.647 -51.811  0.00  0.00    -0.300 N 
ATOM      3  C   UNL d   1     -42.378-121.971 -50.524  0.00  0.00     0.202 A 
ATOM      4  C   UNL d   1     -42.009-123.151 -51.279  0.00  0.00     0.087 A 
ATOM      5  C   UNL d   1     -41.956-121.498 -51.062  0.00  0.00     0.055 A 
ATOM      6  C   UNL d   1     -41.561-121.822 -51.703  0.00  0.00     0.067 A 
ATOM      7  C   UNL d   1     -41.148-121.326 -52.224  0.00  0.00     0.018 A 
ATOM      8  C   UNL d   1     -41.925-120.660 -50.958  0.00  0.00     0.005 A 
ATOM      9  O   UNL d   1     -42.764-121.640 -49.895  0.00  0.00    -0.286 OA
ATOM     10  C   UNL d   1     -41.512-120.180 -51.482  0.00  0.00     0.000 A 
ATOM     11  C   UNL d   1     -41.123-120.513 -52.116  0.00  0.00     0.002 A 
ENDROOT
BRANCH   2  12
ATOM     12  C   UNL d   1     -41.199-122.980 -52.444  0.00  0.00     0.144 C 
BRANCH  12  13
ATOM     13  C   UNL d   1     -41.576-123.040 -53.175  0.00  0.00     0.297 C 
ATOM     14  N   UNL d   1     -41.293-122.621 -53.819  0.00  0.00    -0.207 NA
ATOM     15  O   UNL d   1     -42.240-123.524 -53.257  0.00  0.00    -0.264 OA
BRANCH  14  16
ATOM     16  C   UNL d   1     -41.671-122.681 -54.550  0.00  0.00     0.087 A 
ATOM     17  C   UNL d   1     -42.092-122.046 -54.837  0.00  0.00     0.045 A 
ATOM     18  C   UNL d   1     -42.470-122.103 -55.566  0.00  0.00     0.121 A 
ATOM     19  O   UNL d   1     -42.932-121.549 -55.987  0.00  0.00    -0.299 OA
ATOM     20  C   UNL d   1     -42.419-122.804 -56.001  0.00  0.00     0.119 A 
ATOM     21  C   UNL d   1     -43.174-121.912 -56.700  0.00  0.00     0.304 A 
ATOM     22  O   UNL d   1     -42.855-122.691 -56.709  0.00  0.00    -0.300 OA
ATOM     23  C   UNL d   1     -41.997-123.439 -55.714  0.00  0.00     0.028 A 
ATOM     24  C   UNL d   1     -41.620-123.379 -54.983  0.00  0.00     0.021 A 
ENDBRANCH  14  16
ENDBRANCH  12  13
ENDBRANCH   2  12
BRANCH   1  25
ATOM     25  C   UNL d   1     -42.814-123.296 -50.118  0.00  0.00     0.200 C 
ATOM     26  O   UNL d   1     -43.503-123.665 -50.360  0.00  0.00    -0.286 OA
BRANCH  25  27
ATOM     27  C   UNL d   1     -42.538-123.409 -49.350  0.00  0.00     0.039 A 
ATOM     28  C   UNL d   1     -43.017-123.222 -48.693  0.00  0.00     0.003 A 
ATOM     29  C   UNL d   1     -42.743-123.334 -47.914  0.00  0.00     0.000 A 
ATOM     30  C   UNL d   1     -41.990-123.632 -47.791  0.00  0.00     0.000 A 
ATOM     31  C   UNL d   1     -41.519-123.816 -48.462  0.00  0.00     0.000 A 
ATOM     32  C   UNL d   1     -41.788-123.706 -49.240  0.00  0.00     0.003 A 
BRANCH  30  33
ATOM     33  C   UNL d   1     -41.717-123.744 -47.011  0.00  0.00     0.000 C 
ATOM     34  C   UNL d   1     -41.184-123.209 -46.707  0.00  0.00     0.000 C 
ENDBRANCH  30  33
ENDBRANCH  25  27
ENDBRANCH   1  25
BRANCH  10  35
ATOM     35  C   UNL d   1     -41.495-119.360 -51.361  0.00  0.00     0.000 C 
ATOM     36  C   UNL d   1     -41.173-118.860 -51.948  0.00  0.00     0.000 C 
ENDBRANCH  10  35
TORSDOF 7
ENDMDL
