MODEL 1
REMARK VINA RESULT:      68.7      0.000      0.000
REMARK  3 active torsions:
REMARK  status: ('A' for Active; 'I' for Inactive)
REMARK    1  A    between atoms: C_2  and  C_1 
REMARK       I    between atoms: N_4  and  C_2 
REMARK    2  A    between atoms: C_6  and  N_4 
REMARK    3  A    between atoms: S_12  and  C_5 
ROOT
ATOM      1  C   UNL d   1     -47.327  31.825  35.043  0.00  0.00     0.298 C 
ATOM      2  N   UNL d   1     -47.559  31.049  34.880  0.00  0.00    -0.207 NA
ATOM      3  O   UNL d   1     -46.999  32.023  35.783  0.00  0.00    -0.264 OA
ENDROOT
BRANCH   1   4
ATOM      4  C   UNL d   1     -47.419  32.410  34.467  0.00  0.00     0.153 A 
ATOM      5  N   UNL d   1     -48.170  32.757  34.333  0.00  0.00    -0.216 NA
ATOM      6  C   UNL d   1     -48.255  33.344  33.753  0.00  0.00     0.190 A 
ATOM      7  N   UNL d   1     -47.604  33.587  33.307  0.00  0.00    -0.219 NA
ATOM      8  C   UNL d   1     -46.861  33.244  33.439  0.00  0.00     0.114 A 
ATOM      9  C   UNL d   1     -46.766  32.656  34.018  0.00  0.00     0.099 A 
ATOM     10 CL   UNL d   1     -46.021  32.315  34.148  0.00  0.00    -0.079 Cl
BRANCH   6  11
ATOM     11  S   UNL d   1     -48.993  33.688  33.618  0.00  0.00    -0.075 SA
ATOM     12  C   UNL d   1     -49.649  33.207  33.432  0.00  0.00     0.077 C 
ENDBRANCH   6  11
ENDBRANCH   1   4
BRANCH   2  13
ATOM     13  C   UNL d   1     -47.468  30.463  35.452  0.00  0.00     0.085 A 
ATOM     14  C   UNL d   1     -47.820  29.730  35.353  0.00  0.00     0.018 A 
ATOM     15  C   UNL d   1     -47.733  29.143  35.919  0.00  0.00     0.002 A 
ATOM     16  C   UNL d   1     -48.266  29.580  34.675  0.00  0.00     0.002 A 
ATOM     17  C   UNL d   1     -48.089  28.408  35.812  0.00  0.00     0.000 A 
ATOM     18  C   UNL d   1     -47.287  29.292  36.595  0.00  0.00     0.000 A 
ATOM     19  C   UNL d   1     -48.531  28.260  35.141  0.00  0.00     0.000 A 
ATOM     20  C   UNL d   1     -48.621  28.845  34.570  0.00  0.00     0.000 A 
ATOM     21  C   UNL d   1     -46.931  30.032  36.700  0.00  0.00     0.002 A 
ATOM     22  C   UNL d   1     -47.024  30.616  36.124  0.00  0.00     0.019 A 
ENDBRANCH   2  13
TORSDOF 3
ENDMDL
MODEL 2
REMARK VINA RESULT:      68.8      4.992      6.831
REMARK  3 active torsions:
REMARK  status: ('A' for Active; 'I' for Inactive)
REMARK    1  A    between atoms: C_2  and  C_1 
REMARK       I    between atoms: N_4  and  C_2 
REMARK    2  A    between atoms: C_6  and  N_4 
REMARK    3  A    between atoms: S_12  and  C_5 
ROOT
ATOM      1  C   UNL d   1     -51.017  26.286  33.788  0.00  0.00     0.298 C 
ATOM      2  N   UNL d   1     -50.276  26.600  33.598  0.00  0.00    -0.207 NA
ATOM      3  O   UNL d   1     -51.625  26.778  34.075  0.00  0.00    -0.264 OA
ENDROOT
BRANCH   1   4
ATOM      4  C   UNL d   1     -51.155  25.477  33.692  0.00  0.00     0.153 A 
ATOM      5  N   UNL d   1     -51.917  25.158  33.835  0.00  0.00    -0.216 NA
ATOM      6  C   UNL d   1     -52.048  24.344  33.736  0.00  0.00     0.190 A 
ATOM      7  N   UNL d   1     -51.432  23.849  33.498  0.00  0.00    -0.219 NA
ATOM      8  C   UNL d   1     -50.678  24.164  33.356  0.00  0.00     0.114 A 
ATOM      9  C   UNL d   1     -50.537  24.977  33.452  0.00  0.00     0.099 A 
ATOM     10 CL   UNL d   1     -49.783  25.289  33.309  0.00  0.00    -0.079 Cl
BRANCH   6  11
ATOM     11  S   UNL d   1     -52.796  24.027  33.877  0.00  0.00    -0.075 SA
ATOM     12  C   UNL d   1     -53.150  23.529  33.309  0.00  0.00     0.077 C 
ENDBRANCH   6  11
ENDBRANCH   1   4
BRANCH   2  13
ATOM     13  C   UNL d   1     -50.135  27.407  33.693  0.00  0.00     0.085 A 
ATOM     14  C   UNL d   1     -49.520  27.665  34.169  0.00  0.00     0.018 A 
ATOM     15  C   UNL d   1     -49.374  28.466  34.267  0.00  0.00     0.002 A 
ATOM     16  C   UNL d   1     -49.042  27.114  34.553  0.00  0.00     0.002 A 
ATOM     17  C   UNL d   1     -48.755  28.719  34.747  0.00  0.00     0.000 A 
ATOM     18  C   UNL d   1     -49.852  29.017  33.883  0.00  0.00     0.000 A 
ATOM     19  C   UNL d   1     -48.281  28.173  35.127  0.00  0.00     0.000 A 
ATOM     20  C   UNL d   1     -48.423  27.368  35.032  0.00  0.00     0.000 A 
ATOM     21  C   UNL d   1     -50.474  28.760  33.402  0.00  0.00     0.002 A 
ATOM     22  C   UNL d   1     -50.612  27.952  33.310  0.00  0.00     0.019 A 
ENDBRANCH   2  13
TORSDOF 3
ENDMDL
