MODEL 1
REMARK VINA RESULT:      -3.2      0.000      0.000
REMARK  3 active torsions:
REMARK  status: ('A' for Active; 'I' for Inactive)
REMARK    1  A    between atoms: C_9  and  C_4 
REMARK       I    between atoms: C_6  and  N_8 
REMARK    2  A    between atoms: C_13  and  C_6 
REMARK    3  A    between atoms: N_8  and  C_16 
ROOT
ATOM      1  C   UNL d   1      33.063  19.016 -23.045  0.00  0.00     0.019 A 
ATOM      2  C   UNL d   1      32.994  18.302 -22.652  0.00  0.00     0.003 A 
ATOM      3  C   UNL d   1      33.184  19.039 -23.854  0.00  0.00     0.003 A 
ATOM      4  C   UNL d   1      33.168  17.616 -23.891  0.00  0.00     0.085 A 
ATOM      5  C   UNL d   1      33.237  18.332 -24.279  0.00  0.00     0.019 A 
ATOM      6  C   UNL d   1      33.046  17.599 -23.075  0.00  0.00     0.019 A 
ENDROOT
BRANCH   1   7
ATOM      7  C   UNL d   1      33.011  19.728 -22.619  0.00  0.00     0.101 A 
ATOM      8  N   UNL d   1      32.723  19.775 -21.859  0.00  0.00    -0.221 NA
ATOM      9  C   UNL d   1      32.755  20.562 -21.617  0.00  0.00     0.179 A 
ATOM     10  N   UNL d   1      33.064  21.010 -22.229  0.00  0.00    -0.282 N 
ATOM     11  S   UNL d   1      32.590  21.072 -20.985  0.00  0.00    -0.048 SA
ATOM     12  C   UNL d   1      33.225  20.490 -22.857  0.00  0.00     0.101 A 
ATOM     13  C   UNL d   1      33.095  21.799 -21.987  0.00  0.00     0.089 A 
ATOM     14  C   UNL d   1      32.800  21.831 -21.215  0.00  0.00     0.057 A 
ENDBRANCH   1   7
BRANCH   4  15
ATOM     15  N   UNL d   1      33.220  16.903 -24.317  0.00  0.00    -0.208 NA
ATOM     16  C   UNL d   1      32.539  16.560 -24.650  0.00  0.00     0.279 C 
ATOM     17  O   UNL d   1      32.585  15.864 -25.067  0.00  0.00    -0.265 OA
BRANCH  16  18
ATOM     18  C   UNL d   1      31.813  16.937 -24.550  0.00  0.00     0.058 A 
ATOM     19  C   UNL d   1      31.260  16.645 -24.008  0.00  0.00     0.005 A 
ATOM     20  C   UNL d   1      30.598  17.135 -24.035  0.00  0.00     0.000 A 
ATOM     21  C   UNL d   1      30.728  17.724 -24.582  0.00  0.00     0.000 A 
ATOM     22  C   UNL d   1      31.484  17.608 -24.908  0.00  0.00     0.005 A 
ENDBRANCH  16  18
ENDBRANCH   4  15
TORSDOF 3
ENDMDL
MODEL 2
REMARK VINA RESULT:      -2.3      2.629      5.300
REMARK  3 active torsions:
REMARK  status: ('A' for Active; 'I' for Inactive)
REMARK    1  A    between atoms: C_9  and  C_4 
REMARK       I    between atoms: C_6  and  N_8 
REMARK    2  A    between atoms: C_13  and  C_6 
REMARK    3  A    between atoms: N_8  and  C_16 
ROOT
ATOM      1  C   UNL d   1      32.595  20.586 -21.573  0.00  0.00     0.019 A 
ATOM      2  C   UNL d   1      33.241  20.947 -21.223  0.00  0.00     0.003 A 
ATOM      3  C   UNL d   1      31.833  20.793 -21.357  0.00  0.00     0.003 A 
ATOM      4  C   UNL d   1      32.356  21.736 -20.428  0.00  0.00     0.085 A 
ATOM      5  C   UNL d   1      31.714  21.372 -20.781  0.00  0.00     0.019 A 
ATOM      6  C   UNL d   1      33.123  21.523 -20.649  0.00  0.00     0.019 A 
ENDROOT
BRANCH   1   7
ATOM      7  C   UNL d   1      32.713  20.003 -22.152  0.00  0.00     0.101 A 
ATOM      8  N   UNL d   1      32.955  19.245 -21.983  0.00  0.00    -0.221 NA
ATOM      9  C   UNL d   1      33.011  18.825 -22.690  0.00  0.00     0.179 A 
ATOM     10  N   UNL d   1      32.804  19.324 -23.306  0.00  0.00    -0.282 N 
ATOM     11  S   UNL d   1      33.201  18.086 -23.013  0.00  0.00    -0.048 SA
ATOM     12  C   UNL d   1      32.616  20.061 -22.971  0.00  0.00     0.101 A 
ATOM     13  C   UNL d   1      32.861  18.904 -24.015  0.00  0.00     0.089 A 
ATOM     14  C   UNL d   1      33.107  18.137 -23.827  0.00  0.00     0.057 A 
ENDBRANCH   1   7
BRANCH   4  15
ATOM     15  N   UNL d   1      32.239  22.320 -19.848  0.00  0.00    -0.208 NA
ATOM     16  C   UNL d   1      32.259  23.127 -20.050  0.00  0.00     0.279 C 
ATOM     17  O   UNL d   1      32.145  23.701 -19.486  0.00  0.00    -0.265 OA
BRANCH  16  18
ATOM     18  C   UNL d   1      32.398  23.337 -20.835  0.00  0.00     0.058 A 
ATOM     19  C   UNL d   1      31.767  23.514 -21.339  0.00  0.00     0.005 A 
ATOM     20  C   UNL d   1      32.079  23.702 -22.079  0.00  0.00     0.000 A 
ATOM     21  C   UNL d   1      32.892  23.645 -22.043  0.00  0.00     0.000 A 
ATOM     22  C   UNL d   1      33.098  23.418 -21.270  0.00  0.00     0.005 A 
ENDBRANCH  16  18
ENDBRANCH   4  15
TORSDOF 3
ENDMDL
MODEL 3
REMARK VINA RESULT:      -1.2      1.070      1.372
REMARK  3 active torsions:
REMARK  status: ('A' for Active; 'I' for Inactive)
REMARK    1  A    between atoms: C_9  and  C_4 
REMARK       I    between atoms: C_6  and  N_8 
REMARK    2  A    between atoms: C_13  and  C_6 
REMARK    3  A    between atoms: N_8  and  C_16 
ROOT
ATOM      1  C   UNL d   1      32.245  18.498 -23.596  0.00  0.00     0.019 A 
ATOM      2  C   UNL d   1      32.091  17.853 -23.117  0.00  0.00     0.003 A 
ATOM      3  C   UNL d   1      32.161  18.445 -24.409  0.00  0.00     0.003 A 
ATOM      4  C   UNL d   1      31.763  17.085 -24.274  0.00  0.00     0.085 A 
ATOM      5  C   UNL d   1      31.918  17.733 -24.749  0.00  0.00     0.019 A 
ATOM      6  C   UNL d   1      31.850  17.144 -23.455  0.00  0.00     0.019 A 
ENDROOT
BRANCH   1   7
ATOM      7  C   UNL d   1      32.489  19.216 -23.256  0.00  0.00     0.101 A 
ATOM      8  N   UNL d   1      32.641  19.306 -22.462  0.00  0.00    -0.221 NA
ATOM      9  C   UNL d   1      32.868  20.087 -22.327  0.00  0.00     0.179 A 
ATOM     10  N   UNL d   1      32.858  20.488 -23.041  0.00  0.00    -0.282 N 
ATOM     11  S   UNL d   1      33.104  20.620 -21.738  0.00  0.00    -0.048 SA
ATOM     12  C   UNL d   1      32.621  19.944 -23.624  0.00  0.00     0.101 A 
ATOM     13  C   UNL d   1      33.086  21.270 -22.907  0.00  0.00     0.089 A 
ATOM     14  C   UNL d   1      33.237  21.346 -22.097  0.00  0.00     0.057 A 
ENDBRANCH   1   7
BRANCH   4  15
ATOM     15  N   UNL d   1      31.519  16.366 -24.615  0.00  0.00    -0.208 NA
ATOM     16  C   UNL d   1      30.713  16.222 -24.761  0.00  0.00     0.279 C 
ATOM     17  O   UNL d   1      30.469  15.521 -25.094  0.00  0.00    -0.265 OA
BRANCH  16  18
ATOM     18  C   UNL d   1      30.161  16.802 -24.564  0.00  0.00     0.058 A 
ATOM     19  C   UNL d   1      29.706  16.731 -23.877  0.00  0.00     0.005 A 
ATOM     20  C   UNL d   1      29.212  17.389 -23.832  0.00  0.00     0.000 A 
ATOM     21  C   UNL d   1      29.352  17.867 -24.478  0.00  0.00     0.000 A 
ATOM     22  C   UNL d   1      29.942  17.507 -24.939  0.00  0.00     0.005 A 
ENDBRANCH  16  18
ENDBRANCH   4  15
TORSDOF 3
ENDMDL
