MODEL 1
REMARK VINA RESULT:      55.0      0.000      0.000
REMARK  6 active torsions:
REMARK  status: ('A' for Active; 'I' for Inactive)
REMARK    1  A    between atoms: S_3  and  N_1 
REMARK    2  A    between atoms: C_19  and  S_3 
REMARK    3  A    between atoms: S_4  and  N_8 
REMARK    4  A    between atoms: C_12  and  C_5 
REMARK    5  A    between atoms: C_9  and  C_6 
REMARK    6  A    between atoms: N_8  and  C_16 
ROOT
ATOM      1  N   UNL d   1      45.310 -16.048  37.691  0.00  0.00    -0.152 N 
ATOM      2  N   UNL d   1      45.827 -16.449  38.202  0.00  0.00    -0.155 NA
ATOM      3  C   UNL d   1      44.541 -16.325  37.845  0.00  0.00     0.096 A 
ATOM      4  C   UNL d   1      45.383 -16.966  38.667  0.00  0.00     0.104 A 
ATOM      5  C   UNL d   1      44.590 -16.887  38.443  0.00  0.00     0.041 A 
ENDROOT
BRANCH   4   6
ATOM      6  C   UNL d   1      45.676 -17.471  39.248  0.00  0.00     0.021 A 
ATOM      7  C   UNL d   1      45.295 -17.521  39.974  0.00  0.00     0.021 A 
ATOM      8  C   UNL d   1      45.590 -18.029  40.560  0.00  0.00     0.093 A 
ATOM      9  C   UNL d   1      46.268 -18.486  40.413  0.00  0.00     0.020 A 
ATOM     10  C   UNL d   1      46.646 -18.429  39.678  0.00  0.00     0.002 A 
ATOM     11  C   UNL d   1      46.355 -17.927  39.097  0.00  0.00     0.002 A 
BRANCH   8  12
ATOM     12  N   UNL d   1      45.205 -18.081  41.297  0.00  0.00    -0.162 NA
BRANCH  12  13
ATOM     13  S   UNL d   1      45.644 -18.085  41.990  0.00  0.00     0.266 S 
ATOM     14  O   UNL d   1      45.913 -17.838  42.738  0.00  0.00    -0.203 OA
ATOM     15  O   UNL d   1      45.201 -17.406  42.166  0.00  0.00    -0.203 OA
ATOM     16  C   UNL d   1      46.088 -18.756  41.828  0.00  0.00     0.165 C 
ENDBRANCH  12  13
ENDBRANCH   8  12
ENDBRANCH   4   6
BRANCH   1  17
ATOM     17  S   UNL d   1      45.529 -15.479  37.132  0.00  0.00     0.287 S 
ATOM     18  O   UNL d   1      45.604 -15.239  36.346  0.00  0.00    -0.198 OA
ATOM     19  O   UNL d   1      45.220 -16.205  36.885  0.00  0.00    -0.198 OA
BRANCH  17  20
ATOM     20  C   UNL d   1      45.828 -14.784  37.443  0.00  0.00     0.118 C 
ATOM     21  C   UNL d   1      46.544 -14.479  37.157  0.00  0.00     0.014 C 
ENDBRANCH  17  20
ENDBRANCH   1  17
BRANCH   3  22
ATOM     22  C   UNL d   1      43.861 -16.075  37.462  0.00  0.00     0.018 A 
ATOM     23  C   UNL d   1      43.343 -15.565  37.852  0.00  0.00     0.002 A 
ATOM     24  C   UNL d   1      42.656 -15.309  37.472  0.00  0.00     0.000 A 
ATOM     25  C   UNL d   1      42.491 -15.561  36.711  0.00  0.00     0.000 A 
ATOM     26  C   UNL d   1      43.016 -16.072  36.330  0.00  0.00     0.000 A 
ATOM     27  C   UNL d   1      41.803 -15.305  36.330  0.00  0.00     0.000 C 
ATOM     28  C   UNL d   1      43.692 -16.327  36.697  0.00  0.00     0.002 A 
ENDBRANCH   3  22
TORSDOF 6
ENDMDL
