MODEL 1
REMARK VINA RESULT:      -6.4      0.000      0.000
REMARK  6 active torsions:
REMARK  status: ('A' for Active; 'I' for Inactive)
REMARK    1  A    between atoms: C_2  and  C_1 
REMARK    2  A    between atoms: C_6  and  C_1 
REMARK       I    between atoms: N_10  and  C_2 
REMARK    3  A    between atoms: C_14  and  C_3 
REMARK    4  A    between atoms: C_4  and  C_12 
REMARK    5  A    between atoms: C_7  and  C_6 
REMARK    6  A    between atoms: C_15  and  N_10 
ROOT
ATOM      1  C   UNL d   1     -47.386  12.119  23.430  0.00  0.00     0.128 C 
ATOM      2  C   UNL d   1     -47.097  11.363  23.561  0.00  0.00     0.106 C 
ATOM      3  N   UNL d   1     -46.789  10.612  23.697  0.00  0.00    -0.191 NA
ENDROOT
BRANCH   1   4
ATOM      4  C   UNL d   1     -48.196  12.200  23.201  0.00  0.00     0.289 C 
ATOM      5  N   UNL d   1     -48.670  12.744  23.528  0.00  0.00    -0.207 NA
ATOM      6  O   UNL d   1     -48.501  11.677  22.602  0.00  0.00    -0.264 OA
BRANCH   5   7
ATOM      7  C   UNL d   1     -49.467  12.818  23.298  0.00  0.00     0.085 A 
ATOM      8  C   UNL d   1     -49.684  13.354  22.696  0.00  0.00     0.023 A 
ATOM      9  C   UNL d   1     -50.460  13.435  22.464  0.00  0.00     0.073 A 
ATOM     10  C   UNL d   1     -51.063  12.980  22.825  0.00  0.00     0.004 A 
ATOM     11  C   UNL d   1     -50.851  12.444  23.425  0.00  0.00     0.002 A 
ATOM     12  C   UNL d   1     -50.064  12.376  23.647  0.00  0.00     0.019 A 
BRANCH   9  13
ATOM     13  C   UNL d   1     -50.630  13.963  21.879  0.00  0.00     0.419 C 
ATOM     14  F   UNL d   1     -50.817  14.447  21.240  0.00  0.00    -0.166 F 
ATOM     15  F   UNL d   1     -50.583  14.853  22.014  0.00  0.00    -0.166 F 
ATOM     16  F   UNL d   1     -50.835  13.665  21.201  0.00  0.00    -0.166 F 
ENDBRANCH   9  13
ENDBRANCH   5   7
ENDBRANCH   1   4
BRANCH   1  17
ATOM     17  C   UNL d   1     -46.915  12.787  23.515  0.00  0.00     0.040 C 
BRANCH  17  18
ATOM     18  C   UNL d   1     -46.312  12.947  22.954  0.00  0.00     0.101 A 
ATOM     19  O   UNL d   1     -45.553  12.599  22.971  0.00  0.00    -0.307 OA
ATOM     20  C   UNL d   1     -45.141  12.912  22.322  0.00  0.00     0.100 A 
ATOM     21  C   UNL d   1     -45.658  13.447  21.919  0.00  0.00     0.027 A 
ATOM     22  C   UNL d   1     -46.374  13.450  22.331  0.00  0.00     0.027 A 
BRANCH  20  23
ATOM     23  C   UNL d   1     -44.359  12.778  22.043  0.00  0.00     0.024 A 
ATOM     24  C   UNL d   1     -43.857  12.191  22.342  0.00  0.00     0.013 A 
ATOM     25  C   UNL d   1     -43.074  12.081  22.041  0.00  0.00     0.058 A 
ATOM     26 CL   UNL d   1     -42.595  11.469  22.376  0.00  0.00    -0.082 Cl
ATOM     27  C   UNL d   1     -42.809  12.570  21.438  0.00  0.00     0.011 A 
ATOM     28  C   UNL d   1     -43.280  13.150  21.130  0.00  0.00     0.001 A 
ATOM     29  C   UNL d   1     -44.028  13.277  21.397  0.00  0.00     0.002 A 
ENDBRANCH  20  23
ENDBRANCH  17  18
ENDBRANCH   1  17
TORSDOF 6
ENDMDL
MODEL 2
REMARK VINA RESULT:      -6.0      1.742      2.412
REMARK  6 active torsions:
REMARK  status: ('A' for Active; 'I' for Inactive)
REMARK    1  A    between atoms: C_2  and  C_1 
REMARK    2  A    between atoms: C_6  and  C_1 
REMARK       I    between atoms: N_10  and  C_2 
REMARK    3  A    between atoms: C_14  and  C_3 
REMARK    4  A    between atoms: C_4  and  C_12 
REMARK    5  A    between atoms: C_7  and  C_6 
REMARK    6  A    between atoms: C_15  and  N_10 
ROOT
ATOM      1  C   UNL d   1     -47.077  14.307  22.935  0.00  0.00     0.128 C 
ATOM      2  C   UNL d   1     -46.655  14.872  22.518  0.00  0.00     0.106 C 
ATOM      3  N   UNL d   1     -46.214  15.434  22.108  0.00  0.00    -0.191 NA
ENDROOT
BRANCH   1   4
ATOM      4  C   UNL d   1     -47.908  14.245  22.789  0.00  0.00     0.289 C 
ATOM      5  N   UNL d   1     -48.419  14.060  23.364  0.00  0.00    -0.207 NA
ATOM      6  O   UNL d   1     -48.190  14.386  21.998  0.00  0.00    -0.264 OA
BRANCH   5   7
ATOM      7  C   UNL d   1     -49.237  14.001  23.214  0.00  0.00     0.085 A 
ATOM      8  C   UNL d   1     -49.604  13.252  23.169  0.00  0.00     0.023 A 
ATOM      9  C   UNL d   1     -50.402  13.182  23.022  0.00  0.00     0.073 A 
ATOM     10  C   UNL d   1     -50.876  13.863  22.912  0.00  0.00     0.004 A 
ATOM     11  C   UNL d   1     -50.514  14.611  22.956  0.00  0.00     0.002 A 
ATOM     12  C   UNL d   1     -49.710  14.663  23.105  0.00  0.00     0.019 A 
BRANCH   9  13
ATOM     13  C   UNL d   1     -50.719  12.442  22.986  0.00  0.00     0.419 C 
ATOM     14  F   UNL d   1     -51.060  11.701  22.881  0.00  0.00    -0.166 F 
ATOM     15  F   UNL d   1     -50.719  11.889  23.697  0.00  0.00    -0.166 F 
ATOM     16  F   UNL d   1     -51.022  12.236  22.310  0.00  0.00    -0.166 F 
ENDBRANCH   9  13
ENDBRANCH   5   7
ENDBRANCH   1   4
BRANCH   1  17
ATOM     17  C   UNL d   1     -46.718  13.809  23.482  0.00  0.00     0.040 C 
BRANCH  17  18
ATOM     18  C   UNL d   1     -46.183  13.218  23.221  0.00  0.00     0.101 A 
ATOM     19  O   UNL d   1     -46.021  12.515  23.642  0.00  0.00    -0.307 OA
ATOM     20  C   UNL d   1     -45.467  12.097  23.188  0.00  0.00     0.100 A 
ATOM     21  C   UNL d   1     -45.300  12.553  22.496  0.00  0.00     0.027 A 
ATOM     22  C   UNL d   1     -45.755  13.241  22.542  0.00  0.00     0.027 A 
BRANCH  20  23
ATOM     23  C   UNL d   1     -45.090  11.355  23.315  0.00  0.00     0.024 A 
ATOM     24  C   UNL d   1     -44.279  11.228  23.210  0.00  0.00     0.013 A 
ATOM     25  C   UNL d   1     -43.928  10.470  23.345  0.00  0.00     0.058 A 
ATOM     26 CL   UNL d   1     -43.094  10.384  23.225  0.00  0.00    -0.082 Cl
ATOM     27  C   UNL d   1     -44.406   9.848  23.585  0.00  0.00     0.011 A 
ATOM     28  C   UNL d   1     -45.201   9.949  23.694  0.00  0.00     0.001 A 
ATOM     29  C   UNL d   1     -45.561  10.658  23.573  0.00  0.00     0.002 A 
ENDBRANCH  20  23
ENDBRANCH  17  18
ENDBRANCH   1  17
TORSDOF 6
ENDMDL
MODEL 3
REMARK VINA RESULT:      -5.7      3.312      5.894
REMARK  6 active torsions:
REMARK  status: ('A' for Active; 'I' for Inactive)
REMARK    1  A    between atoms: C_2  and  C_1 
REMARK    2  A    between atoms: C_6  and  C_1 
REMARK       I    between atoms: N_10  and  C_2 
REMARK    3  A    between atoms: C_14  and  C_3 
REMARK    4  A    between atoms: C_4  and  C_12 
REMARK    5  A    between atoms: C_7  and  C_6 
REMARK    6  A    between atoms: C_15  and  N_10 
ROOT
ATOM      1  C   UNL d   1     -46.566  13.077  23.317  0.00  0.00     0.128 C 
ATOM      2  C   UNL d   1     -46.651  13.869  23.122  0.00  0.00     0.106 C 
ATOM      3  N   UNL d   1     -46.757  14.663  22.933  0.00  0.00    -0.191 NA
ENDROOT
BRANCH   1   4
ATOM      4  C   UNL d   1     -45.825  12.706  23.150  0.00  0.00     0.289 C 
ATOM      5  N   UNL d   1     -45.387  12.911  22.522  0.00  0.00    -0.207 NA
ATOM      6  O   UNL d   1     -45.550  12.095  23.677  0.00  0.00    -0.264 OA
BRANCH   5   7
ATOM      7  C   UNL d   1     -44.658  12.541  22.363  0.00  0.00     0.085 A 
ATOM      8  C   UNL d   1     -44.107  12.898  21.847  0.00  0.00     0.023 A 
ATOM      9  C   UNL d   1     -43.392  12.546  21.684  0.00  0.00     0.073 A 
ATOM     10  C   UNL d   1     -43.190  11.812  22.033  0.00  0.00     0.004 A 
ATOM     11  C   UNL d   1     -43.735  11.452  22.548  0.00  0.00     0.002 A 
ATOM     12  C   UNL d   1     -44.451  11.821  22.700  0.00  0.00     0.019 A 
BRANCH   9  13
ATOM     13  C   UNL d   1     -42.887  12.921  21.182  0.00  0.00     0.419 C 
ATOM     14  F   UNL d   1     -42.347  13.341  20.724  0.00  0.00    -0.166 F 
ATOM     15  F   UNL d   1     -42.866  12.733  20.300  0.00  0.00    -0.166 F 
ATOM     16  F   UNL d   1     -42.424  13.448  21.496  0.00  0.00    -0.166 F 
ENDBRANCH   9  13
ENDBRANCH   5   7
ENDBRANCH   1   4
BRANCH   1  17
ATOM     17  C   UNL d   1     -47.172  12.645  23.665  0.00  0.00     0.040 C 
BRANCH  17  18
ATOM     18  C   UNL d   1     -47.895  12.534  23.254  0.00  0.00     0.101 A 
ATOM     19  O   UNL d   1     -48.386  13.157  22.992  0.00  0.00    -0.307 OA
ATOM     20  C   UNL d   1     -49.034  12.798  22.619  0.00  0.00     0.100 A 
ATOM     21  C   UNL d   1     -48.927  11.960  22.660  0.00  0.00     0.027 A 
ATOM     22  C   UNL d   1     -48.217  11.824  23.057  0.00  0.00     0.027 A 
BRANCH  20  23
ATOM     23  C   UNL d   1     -49.712  13.127  22.244  0.00  0.00     0.024 A 
ATOM     24  C   UNL d   1     -50.055  13.847  22.464  0.00  0.00     0.013 A 
ATOM     25  C   UNL d   1     -50.737  14.153  22.068  0.00  0.00     0.058 A 
ATOM     26 CL   UNL d   1     -51.056  14.893  22.325  0.00  0.00    -0.082 Cl
ATOM     27  C   UNL d   1     -51.064  13.722  21.451  0.00  0.00     0.011 A 
ATOM     28  C   UNL d   1     -50.746  13.016  21.218  0.00  0.00     0.001 A 
ATOM     29  C   UNL d   1     -50.098  12.702  21.576  0.00  0.00     0.002 A 
ENDBRANCH  20  23
ENDBRANCH  17  18
ENDBRANCH   1  17
TORSDOF 6
ENDMDL
MODEL 4
REMARK VINA RESULT:      -5.5      2.085      3.231
REMARK  6 active torsions:
REMARK  status: ('A' for Active; 'I' for Inactive)
REMARK    1  A    between atoms: C_2  and  C_1 
REMARK    2  A    between atoms: C_6  and  C_1 
REMARK       I    between atoms: N_10  and  C_2 
REMARK    3  A    between atoms: C_14  and  C_3 
REMARK    4  A    between atoms: C_4  and  C_12 
REMARK    5  A    between atoms: C_7  and  C_6 
REMARK    6  A    between atoms: C_15  and  N_10 
ROOT
ATOM      1  C   UNL d   1     -44.736  12.647  22.128  0.00  0.00     0.128 C 
ATOM      2  C   UNL d   1     -44.443  12.019  22.566  0.00  0.00     0.106 C 
ATOM      3  N   UNL d   1     -44.135  11.386  22.992  0.00  0.00    -0.191 NA
ENDROOT
BRANCH   1   4
ATOM      4  C   UNL d   1     -45.402  13.068  22.435  0.00  0.00     0.289 C 
ATOM      5  N   UNL d   1     -46.058  13.182  22.005  0.00  0.00    -0.207 NA
ATOM      6  O   UNL d   1     -45.356  13.374  23.229  0.00  0.00    -0.264 OA
BRANCH   5   7
ATOM      7  C   UNL d   1     -46.710  13.598  22.314  0.00  0.00     0.085 A 
ATOM      8  C   UNL d   1     -47.432  13.204  22.458  0.00  0.00     0.023 A 
ATOM      9  C   UNL d   1     -48.077  13.600  22.759  0.00  0.00     0.073 A 
ATOM     10  C   UNL d   1     -48.030  14.417  22.932  0.00  0.00     0.004 A 
ATOM     11  C   UNL d   1     -47.313  14.815  22.791  0.00  0.00     0.002 A 
ATOM     12  C   UNL d   1     -46.675  14.400  22.487  0.00  0.00     0.019 A 
BRANCH   9  13
ATOM     13  C   UNL d   1     -48.756  13.185  22.884  0.00  0.00     0.419 C 
ATOM     14  F   UNL d   1     -49.432  12.760  23.082  0.00  0.00    -0.166 F 
ATOM     15  F   UNL d   1     -49.309  12.962  22.208  0.00  0.00    -0.166 F 
ATOM     16  F   UNL d   1     -48.904  12.989  23.613  0.00  0.00    -0.166 F 
ENDBRANCH   9  13
ENDBRANCH   5   7
ENDBRANCH   1   4
BRANCH   1  17
ATOM     17  C   UNL d   1     -44.404  12.872  21.411  0.00  0.00     0.040 C 
BRANCH  17  18
ATOM     18  C   UNL d   1     -43.578  13.013  21.358  0.00  0.00     0.101 A 
ATOM     19  O   UNL d   1     -43.238  13.772  21.277  0.00  0.00    -0.307 OA
ATOM     20  C   UNL d   1     -42.417  13.653  21.247  0.00  0.00     0.100 A 
ATOM     21  C   UNL d   1     -42.271  12.822  21.310  0.00  0.00     0.027 A 
ATOM     22  C   UNL d   1     -43.005  12.451  21.377  0.00  0.00     0.027 A 
BRANCH  20  23
ATOM     23  C   UNL d   1     -41.779  14.197  21.170  0.00  0.00     0.024 A 
ATOM     24  C   UNL d   1     -40.982  13.983  21.237  0.00  0.00     0.013 A 
ATOM     25  C   UNL d   1     -40.361  14.552  21.154  0.00  0.00     0.058 A 
ATOM     26 CL   UNL d   1     -39.561  14.290  21.230  0.00  0.00    -0.082 Cl
ATOM     27  C   UNL d   1     -40.558  15.335  21.004  0.00  0.00     0.011 A 
ATOM     28  C   UNL d   1     -41.329  15.567  20.934  0.00  0.00     0.001 A 
ATOM     29  C   UNL d   1     -41.939  15.047  21.008  0.00  0.00     0.002 A 
ENDBRANCH  20  23
ENDBRANCH  17  18
ENDBRANCH   1  17
TORSDOF 6
ENDMDL
MODEL 5
REMARK VINA RESULT:      -5.1      8.747     10.021
REMARK  6 active torsions:
REMARK  status: ('A' for Active; 'I' for Inactive)
REMARK    1  A    between atoms: C_2  and  C_1 
REMARK    2  A    between atoms: C_6  and  C_1 
REMARK       I    between atoms: N_10  and  C_2 
REMARK    3  A    between atoms: C_14  and  C_3 
REMARK    4  A    between atoms: C_4  and  C_12 
REMARK    5  A    between atoms: C_7  and  C_6 
REMARK    6  A    between atoms: C_15  and  N_10 
ROOT
ATOM      1  C   UNL d   1     -40.233  15.120  18.652  0.00  0.00     0.128 C 
ATOM      2  C   UNL d   1     -40.505  14.400  18.370  0.00  0.00     0.106 C 
ATOM      3  N   UNL d   1     -40.778  13.685  18.068  0.00  0.00    -0.191 NA
ENDROOT
BRANCH   1   4
ATOM      4  C   UNL d   1     -40.130  15.205  19.488  0.00  0.00     0.289 C 
ATOM      5  N   UNL d   1     -39.727  14.674  19.915  0.00  0.00    -0.207 NA
ATOM      6  O   UNL d   1     -40.473  15.884  19.870  0.00  0.00    -0.264 OA
BRANCH   5   7
ATOM      7  C   UNL d   1     -39.629  14.763  20.737  0.00  0.00     0.085 A 
ATOM      8  C   UNL d   1     -39.316  14.139  21.195  0.00  0.00     0.023 A 
ATOM      9  C   UNL d   1     -39.216  14.216  22.000  0.00  0.00     0.073 A 
ATOM     10  C   UNL d   1     -39.426  14.926  22.389  0.00  0.00     0.004 A 
ATOM     11  C   UNL d   1     -39.739  15.551  21.937  0.00  0.00     0.002 A 
ATOM     12  C   UNL d   1     -39.832  15.456  21.127  0.00  0.00     0.019 A 
BRANCH   9  13
ATOM     13  C   UNL d   1     -38.911  13.591  22.407  0.00  0.00     0.419 C 
ATOM     14  F   UNL d   1     -38.649  12.966  22.873  0.00  0.00    -0.166 F 
ATOM     15  F   UNL d   1     -38.206  13.121  22.100  0.00  0.00    -0.166 F 
ATOM     16  F   UNL d   1     -39.255  13.420  23.073  0.00  0.00    -0.166 F 
ENDBRANCH   9  13
ENDBRANCH   5   7
ENDBRANCH   1   4
BRANCH   1  17
ATOM     17  C   UNL d   1     -40.060  15.749  18.152  0.00  0.00     0.040 C 
BRANCH  17  18
ATOM     18  C   UNL d   1     -39.431  15.685  17.601  0.00  0.00     0.101 A 
ATOM     19  O   UNL d   1     -39.516  15.381  16.827  0.00  0.00    -0.307 OA
ATOM     20  C   UNL d   1     -38.763  15.420  16.481  0.00  0.00     0.100 A 
ATOM     21  C   UNL d   1     -38.230  15.748  17.051  0.00  0.00     0.027 A 
ATOM     22  C   UNL d   1     -38.669  15.902  17.734  0.00  0.00     0.027 A 
BRANCH  20  23
ATOM     23  C   UNL d   1     -38.489  15.199  15.717  0.00  0.00     0.024 A 
ATOM     24  C   UNL d   1     -38.396  14.414  15.471  0.00  0.00     0.013 A 
ATOM     25  C   UNL d   1     -38.120  14.222  14.695  0.00  0.00     0.058 A 
ATOM     26 CL   UNL d   1     -38.039  13.406  14.485  0.00  0.00    -0.082 Cl
ATOM     27  C   UNL d   1     -37.940  14.832  14.176  0.00  0.00     0.011 A 
ATOM     28  C   UNL d   1     -38.022  15.606  14.393  0.00  0.00     0.001 A 
ATOM     29  C   UNL d   1     -38.283  15.817  15.124  0.00  0.00     0.002 A 
ENDBRANCH  20  23
ENDBRANCH  17  18
ENDBRANCH   1  17
TORSDOF 6
ENDMDL
MODEL 6
REMARK VINA RESULT:      -5.0      4.087      6.821
REMARK  6 active torsions:
REMARK  status: ('A' for Active; 'I' for Inactive)
REMARK    1  A    between atoms: C_2  and  C_1 
REMARK    2  A    between atoms: C_6  and  C_1 
REMARK       I    between atoms: N_10  and  C_2 
REMARK    3  A    between atoms: C_14  and  C_3 
REMARK    4  A    between atoms: C_4  and  C_12 
REMARK    5  A    between atoms: C_7  and  C_6 
REMARK    6  A    between atoms: C_15  and  N_10 
ROOT
ATOM      1  C   UNL d   1     -43.592  12.752  21.593  0.00  0.00     0.128 C 
ATOM      2  C   UNL d   1     -43.475  12.108  22.087  0.00  0.00     0.106 C 
ATOM      3  N   UNL d   1     -43.377  11.458  22.581  0.00  0.00    -0.191 NA
ENDROOT
BRANCH   1   4
ATOM      4  C   UNL d   1     -42.929  13.249  21.426  0.00  0.00     0.289 C 
ATOM      5  N   UNL d   1     -42.332  13.008  20.965  0.00  0.00    -0.207 NA
ATOM      6  O   UNL d   1     -42.914  14.030  21.767  0.00  0.00    -0.264 OA
BRANCH   5   7
ATOM      7  C   UNL d   1     -41.681  13.503  20.805  0.00  0.00     0.085 A 
ATOM      8  C   UNL d   1     -41.545  13.783  20.030  0.00  0.00     0.023 A 
ATOM      9  C   UNL d   1     -40.913  14.267  19.861  0.00  0.00     0.073 A 
ATOM     10  C   UNL d   1     -40.381  14.498  20.465  0.00  0.00     0.004 A 
ATOM     11  C   UNL d   1     -40.513  14.222  21.239  0.00  0.00     0.002 A 
ATOM     12  C   UNL d   1     -41.154  13.735  21.390  0.00  0.00     0.019 A 
BRANCH   9  13
ATOM     13  C   UNL d   1     -40.815  14.516  19.101  0.00  0.00     0.419 C 
ATOM     14  F   UNL d   1     -40.738  14.835  18.347  0.00  0.00    -0.166 F 
ATOM     15  F   UNL d   1     -40.519  13.964  18.454  0.00  0.00    -0.166 F 
ATOM     16  F   UNL d   1     -40.989  15.252  18.960  0.00  0.00    -0.166 F 
ENDBRANCH   9  13
ENDBRANCH   5   7
ENDBRANCH   1   4
BRANCH   1  17
ATOM     17  C   UNL d   1     -44.325  12.920  21.262  0.00  0.00     0.040 C 
BRANCH  17  18
ATOM     18  C   UNL d   1     -44.981  13.083  21.760  0.00  0.00     0.101 A 
ATOM     19  O   UNL d   1     -45.627  12.564  21.866  0.00  0.00    -0.307 OA
ATOM     20  C   UNL d   1     -46.141  12.941  22.397  0.00  0.00     0.100 A 
ATOM     21  C   UNL d   1     -45.798  13.686  22.606  0.00  0.00     0.027 A 
ATOM     22  C   UNL d   1     -45.083  13.748  22.198  0.00  0.00     0.027 A 
BRANCH  20  23
ATOM     23  C   UNL d   1     -46.880  12.703  22.720  0.00  0.00     0.024 A 
ATOM     24  C   UNL d   1     -47.612  12.978  22.446  0.00  0.00     0.013 A 
ATOM     25  C   UNL d   1     -48.340  12.720  22.791  0.00  0.00     0.058 A 
ATOM     26 CL   UNL d   1     -49.065  13.026  22.479  0.00  0.00    -0.082 Cl
ATOM     27  C   UNL d   1     -48.317  12.185  23.413  0.00  0.00     0.011 A 
ATOM     28  C   UNL d   1     -47.615  11.904  23.698  0.00  0.00     0.001 A 
ATOM     29  C   UNL d   1     -46.908  12.131  23.389  0.00  0.00     0.002 A 
ENDBRANCH  20  23
ENDBRANCH  17  18
ENDBRANCH   1  17
TORSDOF 6
ENDMDL
MODEL 7
REMARK VINA RESULT:      -4.6      4.741      7.013
REMARK  6 active torsions:
REMARK  status: ('A' for Active; 'I' for Inactive)
REMARK    1  A    between atoms: C_2  and  C_1 
REMARK    2  A    between atoms: C_6  and  C_1 
REMARK       I    between atoms: N_10  and  C_2 
REMARK    3  A    between atoms: C_14  and  C_3 
REMARK    4  A    between atoms: C_4  and  C_12 
REMARK    5  A    between atoms: C_7  and  C_6 
REMARK    6  A    between atoms: C_15  and  N_10 
ROOT
ATOM      1  C   UNL d   1     -41.003  14.899  20.687  0.00  0.00     0.128 C 
ATOM      2  C   UNL d   1     -40.454  15.253  21.182  0.00  0.00     0.106 C 
ATOM      3  N   UNL d   1     -39.898  15.623  21.663  0.00  0.00    -0.191 NA
ENDROOT
BRANCH   1   4
ATOM      4  C   UNL d   1     -41.453  14.252  20.995  0.00  0.00     0.289 C 
ATOM      5  N   UNL d   1     -42.237  14.204  20.893  0.00  0.00    -0.207 NA
ATOM      6  O   UNL d   1     -41.042  13.641  21.424  0.00  0.00    -0.264 OA
BRANCH   5   7
ATOM      7  C   UNL d   1     -42.675  13.564  21.198  0.00  0.00     0.085 A 
ATOM      8  C   UNL d   1     -43.494  13.642  21.338  0.00  0.00     0.023 A 
ATOM      9  C   UNL d   1     -43.932  13.023  21.636  0.00  0.00     0.073 A 
ATOM     10  C   UNL d   1     -43.568  12.290  21.810  0.00  0.00     0.004 A 
ATOM     11  C   UNL d   1     -42.751  12.207  21.673  0.00  0.00     0.002 A 
ATOM     12  C   UNL d   1     -42.326  12.841  21.373  0.00  0.00     0.019 A 
BRANCH   9  13
ATOM     13  C   UNL d   1     -44.720  13.137  21.757  0.00  0.00     0.419 C 
ATOM     14  F   UNL d   1     -45.537  13.217  21.820  0.00  0.00    -0.166 F 
ATOM     15  F   UNL d   1     -45.031  13.584  22.474  0.00  0.00    -0.166 F 
ATOM     16  F   UNL d   1     -45.191  12.842  21.225  0.00  0.00    -0.166 F 
ENDBRANCH   9  13
ENDBRANCH   5   7
ENDBRANCH   1   4
BRANCH   1  17
ATOM     17  C   UNL d   1     -41.124  15.152  19.915  0.00  0.00     0.040 C 
BRANCH  17  18
ATOM     18  C   UNL d   1     -40.507  15.081  19.350  0.00  0.00     0.101 A 
ATOM     19  O   UNL d   1     -40.325  14.375  18.943  0.00  0.00    -0.307 OA
ATOM     20  C   UNL d   1     -39.686  14.555  18.446  0.00  0.00     0.100 A 
ATOM     21  C   UNL d   1     -39.489  15.370  18.558  0.00  0.00     0.027 A 
ATOM     22  C   UNL d   1     -40.012  15.671  19.122  0.00  0.00     0.027 A 
BRANCH  20  23
ATOM     23  C   UNL d   1     -39.254  14.081  17.901  0.00  0.00     0.024 A 
ATOM     24  C   UNL d   1     -38.966  13.324  18.077  0.00  0.00     0.013 A 
ATOM     25  C   UNL d   1     -38.534  12.870  17.509  0.00  0.00     0.058 A 
ATOM     26 CL   UNL d   1     -38.259  12.102  17.730  0.00  0.00    -0.082 Cl
ATOM     27  C   UNL d   1     -38.400  13.191  16.765  0.00  0.00     0.011 A 
ATOM     28  C   UNL d   1     -38.671  13.927  16.570  0.00  0.00     0.001 A 
ATOM     29  C   UNL d   1     -39.083  14.380  17.091  0.00  0.00     0.002 A 
ENDBRANCH  20  23
ENDBRANCH  17  18
ENDBRANCH   1  17
TORSDOF 6
ENDMDL
MODEL 8
REMARK VINA RESULT:      -4.5      1.642      2.466
REMARK  6 active torsions:
REMARK  status: ('A' for Active; 'I' for Inactive)
REMARK    1  A    between atoms: C_2  and  C_1 
REMARK    2  A    between atoms: C_6  and  C_1 
REMARK       I    between atoms: N_10  and  C_2 
REMARK    3  A    between atoms: C_14  and  C_3 
REMARK    4  A    between atoms: C_4  and  C_12 
REMARK    5  A    between atoms: C_7  and  C_6 
REMARK    6  A    between atoms: C_15  and  N_10 
ROOT
ATOM      1  C   UNL d   1     -46.105  13.302  22.415  0.00  0.00     0.128 C 
ATOM      2  C   UNL d   1     -45.954  14.055  22.701  0.00  0.00     0.106 C 
ATOM      3  N   UNL d   1     -45.787  14.813  22.973  0.00  0.00    -0.191 NA
ENDROOT
BRANCH   1   4
ATOM      4  C   UNL d   1     -46.700  12.842  22.803  0.00  0.00     0.289 C 
ATOM      5  N   UNL d   1     -47.349  12.594  22.423  0.00  0.00    -0.207 NA
ATOM      6  O   UNL d   1     -46.589  12.648  23.625  0.00  0.00    -0.264 OA
BRANCH   5   7
ATOM      7  C   UNL d   1     -47.931  12.142  22.812  0.00  0.00     0.085 A 
ATOM      8  C   UNL d   1     -48.741  12.312  22.701  0.00  0.00     0.023 A 
ATOM      9  C   UNL d   1     -49.319  11.877  23.075  0.00  0.00     0.073 A 
ATOM     10  C   UNL d   1     -49.113  11.245  23.583  0.00  0.00     0.004 A 
ATOM     11  C   UNL d   1     -48.307  11.071  23.697  0.00  0.00     0.002 A 
ATOM     12  C   UNL d   1     -47.739  11.520  23.312  0.00  0.00     0.019 A 
BRANCH   9  13
ATOM     13  C   UNL d   1     -50.089  12.072  22.942  0.00  0.00     0.419 C 
ATOM     14  F   UNL d   1     -50.888  12.259  22.876  0.00  0.00    -0.166 F 
ATOM     15  F   UNL d   1     -50.384  12.317  22.127  0.00  0.00    -0.166 F 
ATOM     16  F   UNL d   1     -50.557  12.037  23.551  0.00  0.00    -0.166 F 
ENDBRANCH   9  13
ENDBRANCH   5   7
ENDBRANCH   1   4
BRANCH   1  17
ATOM     17  C   UNL d   1     -45.700  12.989  21.773  0.00  0.00     0.040 C 
BRANCH  17  18
ATOM     18  C   UNL d   1     -44.863  12.932  21.793  0.00  0.00     0.101 A 
ATOM     19  O   UNL d   1     -44.349  13.449  21.384  0.00  0.00    -0.307 OA
ATOM     20  C   UNL d   1     -43.579  13.193  21.558  0.00  0.00     0.100 A 
ATOM     21  C   UNL d   1     -43.637  12.523  22.071  0.00  0.00     0.027 A 
ATOM     22  C   UNL d   1     -44.440  12.383  22.200  0.00  0.00     0.027 A 
BRANCH  20  23
ATOM     23  C   UNL d   1     -42.828  13.485  21.315  0.00  0.00     0.024 A 
ATOM     24  C   UNL d   1     -42.631  14.289  21.295  0.00  0.00     0.013 A 
ATOM     25  C   UNL d   1     -41.867  14.552  21.046  0.00  0.00     0.058 A 
ATOM     26 CL   UNL d   1     -41.707  15.383  21.041  0.00  0.00    -0.082 Cl
ATOM     27  C   UNL d   1     -41.309  13.994  20.819  0.00  0.00     0.011 A 
ATOM     28  C   UNL d   1     -41.479  13.204  20.830  0.00  0.00     0.001 A 
ATOM     29  C   UNL d   1     -42.197  12.925  21.062  0.00  0.00     0.002 A 
ENDBRANCH  20  23
ENDBRANCH  17  18
ENDBRANCH   1  17
TORSDOF 6
ENDMDL
MODEL 9
REMARK VINA RESULT:      -3.6      4.852      7.023
REMARK  6 active torsions:
REMARK  status: ('A' for Active; 'I' for Inactive)
REMARK    1  A    between atoms: C_2  and  C_1 
REMARK    2  A    between atoms: C_6  and  C_1 
REMARK       I    between atoms: N_10  and  C_2 
REMARK    3  A    between atoms: C_14  and  C_3 
REMARK    4  A    between atoms: C_4  and  C_12 
REMARK    5  A    between atoms: C_7  and  C_6 
REMARK    6  A    between atoms: C_15  and  N_10 
ROOT
ATOM      1  C   UNL d   1     -41.193  14.203  20.824  0.00  0.00     0.128 C 
ATOM      2  C   UNL d   1     -40.873  14.890  21.137  0.00  0.00     0.106 C 
ATOM      3  N   UNL d   1     -40.535  15.577  21.438  0.00  0.00    -0.191 NA
ENDROOT
BRANCH   1   4
ATOM      4  C   UNL d   1     -41.952  13.956  21.105  0.00  0.00     0.289 C 
ATOM      5  N   UNL d   1     -42.167  13.194  21.109  0.00  0.00    -0.207 NA
ATOM      6  O   UNL d   1     -42.491  14.551  21.390  0.00  0.00    -0.264 OA
BRANCH   5   7
ATOM      7  C   UNL d   1     -42.915  12.957  21.387  0.00  0.00     0.085 A 
ATOM      8  C   UNL d   1     -42.986  12.310  21.910  0.00  0.00     0.023 A 
ATOM      9  C   UNL d   1     -43.712  12.069  22.188  0.00  0.00     0.073 A 
ATOM     10  C   UNL d   1     -44.410  12.468  21.955  0.00  0.00     0.004 A 
ATOM     11  C   UNL d   1     -44.345  13.114  21.435  0.00  0.00     0.002 A 
ATOM     12  C   UNL d   1     -43.606  13.342  21.164  0.00  0.00     0.019 A 
BRANCH   9  13
ATOM     13  C   UNL d   1     -43.739  11.440  22.691  0.00  0.00     0.419 C 
ATOM     14  F   UNL d   1     -43.830  10.822  23.227  0.00  0.00    -0.166 F 
ATOM     15  F   UNL d   1     -43.073  10.835  22.731  0.00  0.00    -0.166 F 
ATOM     16  F   UNL d   1     -44.365  11.387  23.134  0.00  0.00    -0.166 F 
ENDBRANCH   9  13
ENDBRANCH   5   7
ENDBRANCH   1   4
BRANCH   1  17
ATOM     17  C   UNL d   1     -40.802  13.758  20.256  0.00  0.00     0.040 C 
BRANCH  17  18
ATOM     18  C   UNL d   1     -40.468  14.136  19.585  0.00  0.00     0.101 A 
ATOM     19  O   UNL d   1     -40.915  14.445  18.951  0.00  0.00    -0.307 OA
ATOM     20  C   UNL d   1     -40.367  14.764  18.416  0.00  0.00     0.100 A 
ATOM     21  C   UNL d   1     -39.592  14.644  18.734  0.00  0.00     0.027 A 
ATOM     22  C   UNL d   1     -39.684  14.255  19.456  0.00  0.00     0.027 A 
BRANCH  20  23
ATOM     23  C   UNL d   1     -40.472  15.151  17.676  0.00  0.00     0.024 A 
ATOM     24  C   UNL d   1     -41.212  15.349  17.361  0.00  0.00     0.013 A 
ATOM     25  C   UNL d   1     -41.286  15.738  16.614  0.00  0.00     0.058 A 
ATOM     26 CL   UNL d   1     -42.062  15.922  16.329  0.00  0.00    -0.082 Cl
ATOM     27  C   UNL d   1     -40.606  15.922  16.193  0.00  0.00     0.011 A 
ATOM     28  C   UNL d   1     -39.873  15.738  16.480  0.00  0.00     0.001 A 
ATOM     29  C   UNL d   1     -39.773  15.369  17.187  0.00  0.00     0.002 A 
ENDBRANCH  20  23
ENDBRANCH  17  18
ENDBRANCH   1  17
TORSDOF 6
ENDMDL
