MODEL 1
REMARK VINA RESULT:      -9.1      0.000      0.000
REMARK  5 active torsions:
REMARK  status: ('A' for Active; 'I' for Inactive)
REMARK    1  A    between atoms: C_3  and  C_1 
REMARK    2  A    between atoms: N_8  and  C_3 
REMARK    3  A    between atoms: C_9  and  C_3 
REMARK    4  A    between atoms: C_17  and  C_7 
REMARK    5  A    between atoms: C_10  and  N_8 
ROOT
ATOM      1  C   UNL d   1      53.334  32.293  53.306  0.00  0.00     0.109 C 
ENDROOT
BRANCH   1   2
ATOM      2  C   UNL d   1      53.835  32.750  53.778  0.00  0.00     0.160 A 
ATOM      3  C   UNL d   1      54.628  32.885  53.566  0.00  0.00     0.258 A 
ATOM      4  C   UNL d   1      55.113  33.354  54.068  0.00  0.00     0.238 A 
ATOM      5  O   UNL d   1      54.928  32.565  52.878  0.00  0.00    -0.281 OA
ATOM      6  O   UNL d   1      55.907  33.490  53.855  0.00  0.00    -0.283 OA
ATOM      7  C   UNL d   1      54.812  33.674  54.755  0.00  0.00     0.073 A 
ATOM      8  C   UNL d   1      54.019  33.538  54.968  0.00  0.00     0.146 A 
ATOM      9  O   UNL d   1      53.537  33.085  54.490  0.00  0.00    -0.299 OA
BRANCH   8  10
ATOM     10  C   UNL d   1      53.720  33.869  55.673  0.00  0.00     0.259 C 
ATOM     11  O   UNL d   1      53.425  34.657  55.694  0.00  0.00    -0.281 OA
ENDBRANCH   8  10
ENDBRANCH   1   2
BRANCH   1  12
ATOM     12  N   UNL d   1      52.930  32.622  52.662  0.00  0.00    -0.225 NA
BRANCH  12  13
ATOM     13  C   UNL d   1      52.240  33.039  52.776  0.00  0.00     0.163 A 
ATOM     14  N   UNL d   1      51.614  32.709  53.199  0.00  0.00    -0.225 NA
ATOM     15  C   UNL d   1      50.921  33.139  53.309  0.00  0.00     0.101 A 
ATOM     16  C   UNL d   1      50.850  33.897  52.998  0.00  0.00     0.021 A 
ATOM     17  C   UNL d   1      51.465  34.245  52.571  0.00  0.00     0.005 A 
ATOM     18  C   UNL d   1      52.159  33.821  52.459  0.00  0.00     0.039 A 
ENDBRANCH  12  13
ENDBRANCH   1  12
BRANCH   1  19
ATOM     19  C   UNL d   1      53.237  31.483  53.486  0.00  0.00     0.022 A 
ATOM     20  C   UNL d   1      53.185  30.926  52.879  0.00  0.00     0.031 A 
ATOM     21  C   UNL d   1      53.090  30.132  53.064  0.00  0.00     0.140 A 
ATOM     22  F   UNL d   1      53.037  29.564  52.454  0.00  0.00    -0.204 F 
ATOM     23  C   UNL d   1      53.046  29.891  53.851  0.00  0.00     0.030 A 
ATOM     24  C   UNL d   1      53.097  30.442  54.461  0.00  0.00     0.002 A 
ATOM     25  C   UNL d   1      53.193  31.242  54.273  0.00  0.00     0.002 A 
ENDBRANCH   1  19
TORSDOF 5
ENDMDL
MODEL 2
REMARK VINA RESULT:      -8.7      1.713      3.265
REMARK  5 active torsions:
REMARK  status: ('A' for Active; 'I' for Inactive)
REMARK    1  A    between atoms: C_3  and  C_1 
REMARK    2  A    between atoms: N_8  and  C_3 
REMARK    3  A    between atoms: C_9  and  C_3 
REMARK    4  A    between atoms: C_17  and  C_7 
REMARK    5  A    between atoms: C_10  and  N_8 
ROOT
ATOM      1  C   UNL d   1      53.610  32.820  53.536  0.00  0.00     0.109 C 
ENDROOT
BRANCH   1   2
ATOM      2  C   UNL d   1      52.957  33.267  53.301  0.00  0.00     0.160 A 
ATOM      3  C   UNL d   1      53.016  33.838  52.699  0.00  0.00     0.258 A 
ATOM      4  C   UNL d   1      52.333  34.278  52.481  0.00  0.00     0.238 A 
ATOM      5  O   UNL d   1      53.730  33.968  52.326  0.00  0.00    -0.281 OA
ATOM      6  O   UNL d   1      52.393  34.850  51.879  0.00  0.00    -0.283 OA
ATOM      7  C   UNL d   1      51.619  34.148  52.854  0.00  0.00     0.073 A 
ATOM      8  C   UNL d   1      51.560  33.576  53.456  0.00  0.00     0.146 A 
ATOM      9  O   UNL d   1      52.215  33.143  53.677  0.00  0.00    -0.299 OA
BRANCH   8  10
ATOM     10  C   UNL d   1      50.826  33.450  53.832  0.00  0.00     0.259 C 
ATOM     11  O   UNL d   1      50.208  33.024  53.451  0.00  0.00    -0.281 OA
ENDBRANCH   8  10
ENDBRANCH   1   2
BRANCH   1  12
ATOM     12  N   UNL d   1      53.878  32.178  53.087  0.00  0.00    -0.225 NA
BRANCH  12  13
ATOM     13  C   UNL d   1      53.545  31.441  53.178  0.00  0.00     0.163 A 
ATOM     14  N   UNL d   1      52.951  31.183  52.666  0.00  0.00    -0.225 NA
ATOM     15  C   UNL d   1      52.619  30.436  52.765  0.00  0.00     0.101 A 
ATOM     16  C   UNL d   1      52.878  29.946  53.373  0.00  0.00     0.021 A 
ATOM     17  C   UNL d   1      53.470  30.185  53.895  0.00  0.00     0.005 A 
ATOM     18  C   UNL d   1      53.805  30.929  53.801  0.00  0.00     0.039 A 
ENDBRANCH  12  13
ENDBRANCH   1  12
BRANCH   1  19
ATOM     19  C   UNL d   1      54.005  33.024  54.244  0.00  0.00     0.022 A 
ATOM     20  C   UNL d   1      54.760  33.357  54.217  0.00  0.00     0.031 A 
ATOM     21  C   UNL d   1      55.141  33.554  54.917  0.00  0.00     0.140 A 
ATOM     22  F   UNL d   1      55.905  33.892  54.896  0.00  0.00    -0.204 F 
ATOM     23  C   UNL d   1      54.773  33.422  55.642  0.00  0.00     0.030 A 
ATOM     24  C   UNL d   1      54.020  33.090  55.676  0.00  0.00     0.002 A 
ATOM     25  C   UNL d   1      53.637  32.891  54.969  0.00  0.00     0.002 A 
ENDBRANCH   1  19
TORSDOF 5
ENDMDL
MODEL 3
REMARK VINA RESULT:      -8.7      1.688      3.028
REMARK  5 active torsions:
REMARK  status: ('A' for Active; 'I' for Inactive)
REMARK    1  A    between atoms: C_3  and  C_1 
REMARK    2  A    between atoms: N_8  and  C_3 
REMARK    3  A    between atoms: C_9  and  C_3 
REMARK    4  A    between atoms: C_17  and  C_7 
REMARK    5  A    between atoms: C_10  and  N_8 
ROOT
ATOM      1  C   UNL d   1      53.267  32.072  53.273  0.00  0.00     0.109 C 
ENDROOT
BRANCH   1   2
ATOM      2  C   UNL d   1      53.167  31.258  53.373  0.00  0.00     0.160 A 
ATOM      3  C   UNL d   1      53.109  30.744  52.722  0.00  0.00     0.258 A 
ATOM      4  C   UNL d   1      53.008  29.921  52.857  0.00  0.00     0.238 A 
ATOM      5  O   UNL d   1      53.151  31.039  51.962  0.00  0.00    -0.281 OA
ATOM      6  O   UNL d   1      52.950  29.406  52.204  0.00  0.00    -0.283 OA
ATOM      7  C   UNL d   1      52.967  29.626  53.616  0.00  0.00     0.073 A 
ATOM      8  C   UNL d   1      53.025  30.140  54.268  0.00  0.00     0.146 A 
ATOM      9  O   UNL d   1      53.123  30.942  54.151  0.00  0.00    -0.299 OA
BRANCH   8  10
ATOM     10  C   UNL d   1      52.981  29.830  55.041  0.00  0.00     0.259 C 
ATOM     11  O   UNL d   1      53.179  29.028  55.201  0.00  0.00    -0.281 OA
ENDBRANCH   8  10
ENDBRANCH   1   2
BRANCH   1  12
ATOM     12  N   UNL d   1      52.824  32.496  52.716  0.00  0.00    -0.225 NA
BRANCH  12  13
ATOM     13  C   UNL d   1      52.184  32.942  52.950  0.00  0.00     0.163 A 
ATOM     14  N   UNL d   1      51.540  32.588  53.324  0.00  0.00    -0.225 NA
ATOM     15  C   UNL d   1      50.898  33.048  53.556  0.00  0.00     0.101 A 
ATOM     16  C   UNL d   1      50.896  33.858  53.417  0.00  0.00     0.021 A 
ATOM     17  C   UNL d   1      51.531  34.231  53.045  0.00  0.00     0.005 A 
ATOM     18  C   UNL d   1      52.174  33.778  52.811  0.00  0.00     0.039 A 
ENDBRANCH  12  13
ENDBRANCH   1  12
BRANCH   1  19
ATOM     19  C   UNL d   1      53.829  32.471  53.745  0.00  0.00     0.022 A 
ATOM     20  C   UNL d   1      53.680  32.602  54.546  0.00  0.00     0.031 A 
ATOM     21  C   UNL d   1      54.237  32.995  55.004  0.00  0.00     0.140 A 
ATOM     22  F   UNL d   1      54.091  33.131  55.816  0.00  0.00    -0.204 F 
ATOM     23  C   UNL d   1      54.942  33.257  54.666  0.00  0.00     0.030 A 
ATOM     24  C   UNL d   1      55.097  33.129  53.868  0.00  0.00     0.002 A 
ATOM     25  C   UNL d   1      54.534  32.733  53.408  0.00  0.00     0.002 A 
ENDBRANCH   1  19
TORSDOF 5
ENDMDL
MODEL 4
REMARK VINA RESULT:      -8.4      1.349      2.720
REMARK  5 active torsions:
REMARK  status: ('A' for Active; 'I' for Inactive)
REMARK    1  A    between atoms: C_3  and  C_1 
REMARK    2  A    between atoms: N_8  and  C_3 
REMARK    3  A    between atoms: C_9  and  C_3 
REMARK    4  A    between atoms: C_17  and  C_7 
REMARK    5  A    between atoms: C_10  and  N_8 
ROOT
ATOM      1  C   UNL d   1      52.984  32.588  53.063  0.00  0.00     0.109 C 
ENDROOT
BRANCH   1   2
ATOM      2  C   UNL d   1      53.594  32.788  53.583  0.00  0.00     0.160 A 
ATOM      3  C   UNL d   1      54.330  33.059  53.305  0.00  0.00     0.258 A 
ATOM      4  C   UNL d   1      54.931  33.255  53.860  0.00  0.00     0.238 A 
ATOM      5  O   UNL d   1      54.464  33.132  52.504  0.00  0.00    -0.281 OA
ATOM      6  O   UNL d   1      55.667  33.526  53.581  0.00  0.00    -0.283 OA
ATOM      7  C   UNL d   1      54.797  33.182  54.661  0.00  0.00     0.073 A 
ATOM      8  C   UNL d   1      54.061  32.911  54.939  0.00  0.00     0.146 A 
ATOM      9  O   UNL d   1      53.468  32.717  54.412  0.00  0.00    -0.299 OA
BRANCH   8  10
ATOM     10  C   UNL d   1      53.933  32.840  55.760  0.00  0.00     0.259 C 
ATOM     11  O   UNL d   1      54.042  32.106  56.156  0.00  0.00    -0.281 OA
ENDBRANCH   8  10
ENDBRANCH   1   2
BRANCH   1  12
ATOM     12  N   UNL d   1      53.022  31.905  52.596  0.00  0.00    -0.225 NA
BRANCH  12  13
ATOM     13  C   UNL d   1      52.863  31.174  52.917  0.00  0.00     0.163 A 
ATOM     14  N   UNL d   1      52.107  30.992  53.191  0.00  0.00    -0.225 NA
ATOM     15  C   UNL d   1      51.956  30.250  53.514  0.00  0.00     0.101 A 
ATOM     16  C   UNL d   1      52.556  29.690  53.565  0.00  0.00     0.021 A 
ATOM     17  C   UNL d   1      53.319  29.853  53.296  0.00  0.00     0.005 A 
ATOM     18  C   UNL d   1      53.475  30.591  52.973  0.00  0.00     0.039 A 
ENDBRANCH  12  13
ENDBRANCH   1  12
BRANCH   1  19
ATOM     19  C   UNL d   1      52.316  33.088  53.012  0.00  0.00     0.022 A 
ATOM     20  C   UNL d   1      52.184  33.536  52.332  0.00  0.00     0.031 A 
ATOM     21  C   UNL d   1      51.526  34.025  52.289  0.00  0.00     0.140 A 
ATOM     22  F   UNL d   1      51.388  34.480  51.602  0.00  0.00    -0.204 F 
ATOM     23  C   UNL d   1      51.000  34.069  52.922  0.00  0.00     0.030 A 
ATOM     24  C   UNL d   1      51.126  33.625  53.604  0.00  0.00     0.002 A 
ATOM     25  C   UNL d   1      51.790  33.133  53.645  0.00  0.00     0.002 A 
ENDBRANCH   1  19
TORSDOF 5
ENDMDL
MODEL 5
REMARK VINA RESULT:      -7.4      1.700      3.440
REMARK  5 active torsions:
REMARK  status: ('A' for Active; 'I' for Inactive)
REMARK    1  A    between atoms: C_3  and  C_1 
REMARK    2  A    between atoms: N_8  and  C_3 
REMARK    3  A    between atoms: C_9  and  C_3 
REMARK    4  A    between atoms: C_17  and  C_7 
REMARK    5  A    between atoms: C_10  and  N_8 
ROOT
ATOM      1  C   UNL d   1      52.962  32.521  53.194  0.00  0.00     0.109 C 
ENDROOT
BRANCH   1   2
ATOM      2  C   UNL d   1      52.974  31.699  53.274  0.00  0.00     0.160 A 
ATOM      3  C   UNL d   1      52.997  31.199  52.609  0.00  0.00     0.258 A 
ATOM      4  C   UNL d   1      53.009  30.366  52.724  0.00  0.00     0.238 A 
ATOM      5  O   UNL d   1      53.007  31.515  51.858  0.00  0.00    -0.281 OA
ATOM      6  O   UNL d   1      53.031  29.865  52.059  0.00  0.00    -0.283 OA
ATOM      7  C   UNL d   1      52.998  30.049  53.475  0.00  0.00     0.073 A 
ATOM      8  C   UNL d   1      52.976  30.550  54.140  0.00  0.00     0.146 A 
ATOM      9  O   UNL d   1      52.964  31.360  54.044  0.00  0.00    -0.299 OA
BRANCH   8  10
ATOM     10  C   UNL d   1      52.966  30.217  54.905  0.00  0.00     0.259 C 
ATOM     11  O   UNL d   1      53.212  29.424  55.039  0.00  0.00    -0.281 OA
ENDBRANCH   8  10
ENDBRANCH   1   2
BRANCH   1  12
ATOM     12  N   UNL d   1      53.662  32.963  53.163  0.00  0.00    -0.225 NA
BRANCH  12  13
ATOM     13  C   UNL d   1      54.017  33.224  53.848  0.00  0.00     0.163 A 
ATOM     14  N   UNL d   1      53.591  33.670  54.397  0.00  0.00    -0.225 NA
ATOM     15  C   UNL d   1      53.958  33.930  55.087  0.00  0.00     0.101 A 
ATOM     16  C   UNL d   1      54.747  33.746  55.230  0.00  0.00     0.021 A 
ATOM     17  C   UNL d   1      55.190  33.302  54.694  0.00  0.00     0.005 A 
ATOM     18  C   UNL d   1      54.829  33.040  54.004  0.00  0.00     0.039 A 
ENDBRANCH  12  13
ENDBRANCH   1  12
BRANCH   1  19
ATOM     19  C   UNL d   1      52.225  32.911  53.142  0.00  0.00     0.022 A 
ATOM     20  C   UNL d   1      52.087  33.462  52.544  0.00  0.00     0.031 A 
ATOM     21  C   UNL d   1      51.359  33.840  52.500  0.00  0.00     0.140 A 
ATOM     22  F   UNL d   1      51.214  34.400  51.896  0.00  0.00    -0.204 F 
ATOM     23  C   UNL d   1      50.770  33.671  53.050  0.00  0.00     0.030 A 
ATOM     24  C   UNL d   1      50.901  33.122  53.650  0.00  0.00     0.002 A 
ATOM     25  C   UNL d   1      51.635  32.742  53.692  0.00  0.00     0.002 A 
ENDBRANCH   1  19
TORSDOF 5
ENDMDL
MODEL 6
REMARK VINA RESULT:      -6.6      1.479      2.801
REMARK  5 active torsions:
REMARK  status: ('A' for Active; 'I' for Inactive)
REMARK    1  A    between atoms: C_3  and  C_1 
REMARK    2  A    between atoms: N_8  and  C_3 
REMARK    3  A    between atoms: C_9  and  C_3 
REMARK    4  A    between atoms: C_17  and  C_7 
REMARK    5  A    between atoms: C_10  and  N_8 
ROOT
ATOM      1  C   UNL d   1      53.164  32.385  53.185  0.00  0.00     0.109 C 
ENDROOT
BRANCH   1   2
ATOM      2  C   UNL d   1      52.566  32.930  53.016  0.00  0.00     0.160 A 
ATOM      3  C   UNL d   1      52.582  33.391  52.324  0.00  0.00     0.258 A 
ATOM      4  C   UNL d   1      51.959  33.937  52.180  0.00  0.00     0.238 A 
ATOM      5  O   UNL d   1      53.196  33.311  51.792  0.00  0.00    -0.281 OA
ATOM      6  O   UNL d   1      51.975  34.398  51.487  0.00  0.00    -0.283 OA
ATOM      7  C   UNL d   1      51.346  34.017  52.711  0.00  0.00     0.073 A 
ATOM      8  C   UNL d   1      51.330  33.556  53.404  0.00  0.00     0.146 A 
ATOM      9  O   UNL d   1      51.928  33.022  53.556  0.00  0.00    -0.299 OA
BRANCH   8  10
ATOM     10  C   UNL d   1      50.698  33.644  53.942  0.00  0.00     0.259 C 
ATOM     11  O   UNL d   1      49.982  34.022  53.715  0.00  0.00    -0.281 OA
ENDBRANCH   8  10
ENDBRANCH   1   2
BRANCH   1  12
ATOM     12  N   UNL d   1      53.928  32.631  53.387  0.00  0.00    -0.225 NA
BRANCH  12  13
ATOM     13  C   UNL d   1      54.103  32.855  54.150  0.00  0.00     0.163 A 
ATOM     14  N   UNL d   1      53.906  32.369  54.786  0.00  0.00    -0.225 NA
ATOM     15  C   UNL d   1      54.087  32.605  55.554  0.00  0.00     0.101 A 
ATOM     16  C   UNL d   1      54.463  33.323  55.689  0.00  0.00     0.021 A 
ATOM     17  C   UNL d   1      54.669  33.824  55.066  0.00  0.00     0.005 A 
ATOM     18  C   UNL d   1      54.491  33.594  54.298  0.00  0.00     0.039 A 
ENDBRANCH  12  13
ENDBRANCH   1  12
BRANCH   1  19
ATOM     19  C   UNL d   1      52.987  31.569  53.150  0.00  0.00     0.022 A 
ATOM     20  C   UNL d   1      52.264  31.288  53.433  0.00  0.00     0.031 A 
ATOM     21  C   UNL d   1      52.098  30.485  53.394  0.00  0.00     0.140 A 
ATOM     22  F   UNL d   1      51.368  30.195  53.679  0.00  0.00    -0.204 F 
ATOM     23  C   UNL d   1      52.649  29.961  53.076  0.00  0.00     0.030 A 
ATOM     24  C   UNL d   1      53.372  30.235  52.793  0.00  0.00     0.002 A 
ATOM     25  C   UNL d   1      53.538  31.045  52.832  0.00  0.00     0.002 A 
ENDBRANCH   1  19
TORSDOF 5
ENDMDL
