MODEL 1
REMARK VINA RESULT:       1.9      0.000      0.000
REMARK  5 active torsions:
REMARK  status: ('A' for Active; 'I' for Inactive)
REMARK    1  A    between atoms: N_7  and  C_4 
REMARK    2  A    between atoms: N_9  and  N_7 
REMARK       I    between atoms: C_8  and  N_9 
REMARK    3  A    between atoms: C_11  and  C_8 
REMARK    4  A    between atoms: C_14  and  C_11 
REMARK    5  A    between atoms: C_15  and  C_11 
ROOT
ATOM      1  C   UNL d   1     -41.775-123.058 -49.780  0.00  0.00     0.297 C 
ATOM      2  N   UNL d   1     -41.797-122.546 -50.427  0.00  0.00    -0.104 NA
ATOM      3  O   UNL d   1     -41.124-123.552 -49.664  0.00  0.00    -0.264 OA
ENDROOT
BRANCH   1   4
ATOM      4  C   UNL d   1     -42.407-123.074 -49.248  0.00  0.00     0.059 C 
BRANCH   4   5
ATOM      5  C   UNL d   1     -43.185-123.083 -49.529  0.00  0.00     0.005 A 
ATOM      6  C   UNL d   1     -43.601-123.787 -49.530  0.00  0.00     0.000 A 
ATOM      7  C   UNL d   1     -44.372-123.804 -49.806  0.00  0.00     0.000 A 
ATOM      8  C   UNL d   1     -44.712-123.097 -50.080  0.00  0.00     0.000 A 
ATOM      9  C   UNL d   1     -44.291-122.396 -50.076  0.00  0.00     0.000 A 
ATOM     10  C   UNL d   1     -43.534-122.395 -49.801  0.00  0.00     0.000 A 
ENDBRANCH   4   5
BRANCH   4  11
ATOM     11  C   UNL d   1     -42.259-123.080 -48.436  0.00  0.00     0.005 A 
ATOM     12  C   UNL d   1     -41.953-123.753 -48.094  0.00  0.00     0.000 A 
ATOM     13  C   UNL d   1     -41.802-123.767 -47.283  0.00  0.00     0.000 A 
ATOM     14  C   UNL d   1     -41.964-123.098 -46.825  0.00  0.00     0.000 A 
ATOM     15  C   UNL d   1     -42.279-122.412 -47.190  0.00  0.00     0.000 A 
ATOM     16  C   UNL d   1     -42.422-122.415 -47.996  0.00  0.00     0.000 A 
ENDBRANCH   4  11
ENDBRANCH   1   4
BRANCH   2  17
ATOM     17  N   UNL d   1     -41.166-122.530 -50.958  0.00  0.00    -0.127 NA
BRANCH  17  18
ATOM     18  C   UNL d   1     -41.312-122.481 -51.773  0.00  0.00     0.178 A 
ATOM     19  N   UNL d   1     -41.357-121.747 -52.142  0.00  0.00    -0.240 N 
ATOM     20  C   UNL d   1     -41.502-121.697 -52.947  0.00  0.00     0.343 A 
ATOM     21  C   UNL d   1     -41.257-121.056 -51.698  0.00  0.00     0.105 C 
ATOM     22  N   UNL d   1     -41.602-122.388 -53.391  0.00  0.00    -0.224 N 
ATOM     23  O   UNL d   1     -41.547-120.957 -53.316  0.00  0.00    -0.245 OA
ATOM     24  C   UNL d   1     -41.560-123.134 -53.034  0.00  0.00     0.271 A 
ATOM     25  C   UNL d   1     -41.748-122.338 -54.205  0.00  0.00     0.107 C 
ATOM     26  C   UNL d   1     -41.412-123.171 -52.217  0.00  0.00     0.101 A 
ATOM     27  O   UNL d   1     -41.659-123.817 -53.474  0.00  0.00    -0.266 OA
ENDBRANCH  17  18
ENDBRANCH   2  17
TORSDOF 5
ENDMDL
MODEL 2
REMARK VINA RESULT:       2.1      0.801      2.453
REMARK  5 active torsions:
REMARK  status: ('A' for Active; 'I' for Inactive)
REMARK    1  A    between atoms: N_7  and  C_4 
REMARK    2  A    between atoms: N_9  and  N_7 
REMARK       I    between atoms: C_8  and  N_9 
REMARK    3  A    between atoms: C_11  and  C_8 
REMARK    4  A    between atoms: C_14  and  C_11 
REMARK    5  A    between atoms: C_15  and  C_11 
ROOT
ATOM      1  C   UNL d   1     -41.734-122.138 -50.299  0.00  0.00     0.297 C 
ATOM      2  N   UNL d   1     -41.794-122.374 -51.088  0.00  0.00    -0.104 NA
ATOM      3  O   UNL d   1     -41.201-121.544 -50.084  0.00  0.00    -0.264 OA
ENDROOT
BRANCH   1   4
ATOM      4  C   UNL d   1     -42.208-122.497 -49.727  0.00  0.00     0.059 C 
BRANCH   4   5
ATOM      5  C   UNL d   1     -41.867-122.798 -49.036  0.00  0.00     0.005 A 
ATOM      6  C   UNL d   1     -41.462-123.509 -49.067  0.00  0.00     0.000 A 
ATOM      7  C   UNL d   1     -41.123-123.813 -48.386  0.00  0.00     0.000 A 
ATOM      8  C   UNL d   1     -41.200-123.387 -47.677  0.00  0.00     0.000 A 
ATOM      9  C   UNL d   1     -41.606-122.677 -47.653  0.00  0.00     0.000 A 
ATOM     10  C   UNL d   1     -41.935-122.390 -48.331  0.00  0.00     0.000 A 
ENDBRANCH   4   5
BRANCH   4  11
ATOM     11  C   UNL d   1     -43.022-122.555 -49.847  0.00  0.00     0.005 A 
ATOM     12  C   UNL d   1     -43.447-121.882 -50.017  0.00  0.00     0.000 A 
ATOM     13  C   UNL d   1     -44.262-121.932 -50.138  0.00  0.00     0.000 A 
ATOM     14  C   UNL d   1     -44.640-122.665 -50.085  0.00  0.00     0.000 A 
ATOM     15  C   UNL d   1     -44.190-123.352 -49.908  0.00  0.00     0.000 A 
ATOM     16  C   UNL d   1     -43.383-123.283 -49.791  0.00  0.00     0.000 A 
ENDBRANCH   4  11
ENDBRANCH   1   4
BRANCH   2  17
ATOM     17  N   UNL d   1     -41.320-122.014 -51.660  0.00  0.00    -0.127 NA
BRANCH  17  18
ATOM     18  C   UNL d   1     -41.462-122.157 -52.464  0.00  0.00     0.178 A 
ATOM     19  N   UNL d   1     -41.364-122.913 -52.774  0.00  0.00    -0.240 N 
ATOM     20  C   UNL d   1     -41.505-123.055 -53.569  0.00  0.00     0.343 A 
ATOM     21  C   UNL d   1     -41.123-123.532 -52.281  0.00  0.00     0.105 C 
ATOM     22  N   UNL d   1     -41.746-122.436 -54.062  0.00  0.00    -0.224 N 
ATOM     23  O   UNL d   1     -41.406-123.817 -53.879  0.00  0.00    -0.245 OA
ATOM     24  C   UNL d   1     -41.849-121.670 -53.766  0.00  0.00     0.271 A 
ATOM     25  C   UNL d   1     -41.888-122.580 -54.866  0.00  0.00     0.107 C 
ATOM     26  C   UNL d   1     -41.703-121.539 -52.958  0.00  0.00     0.101 A 
ATOM     27  O   UNL d   1     -42.087-121.058 -54.253  0.00  0.00    -0.266 OA
ENDBRANCH  17  18
ENDBRANCH   2  17
TORSDOF 5
ENDMDL
