MODEL 1
REMARK VINA RESULT:      33.0      0.000      0.000
REMARK  9 active torsions:
REMARK  status: ('A' for Active; 'I' for Inactive)
REMARK    1  A    between atoms: C_12  and  C_3 
REMARK    2  A    between atoms: S_14  and  C_7 
REMARK       I    between atoms: C_9  and  N_18 
REMARK    3  A    between atoms: C_13  and  C_9 
REMARK    4  A    between atoms: C_11  and  C_21 
REMARK       I    between atoms: N_15  and  C_11 
REMARK    5  A    between atoms: C_22  and  C_12 
REMARK    6  A    between atoms: C_21  and  S_14 
REMARK    7  A    between atoms: C_23  and  N_15 
REMARK    8  A    between atoms: N_18  and  C_22 
REMARK    9  A    between atoms: C_25  and  C_23 
ROOT
ATOM      1  N   UNL d   1     -42.366-123.316 -50.040  0.00  0.00    -0.191 N 
ATOM      2  C   UNL d   1     -42.119-123.362 -49.248  0.00  0.00     0.187 A 
ATOM      3  C   UNL d   1     -41.752-123.596 -50.519  0.00  0.00     0.188 A 
ATOM      4  N   UNL d   1     -43.118-123.024 -50.221  0.00  0.00    -0.156 NA
ATOM      5  N   UNL d   1     -41.352-123.672 -49.245  0.00  0.00    -0.127 NA
ATOM      6  N   UNL d   1     -41.123-123.817 -50.024  0.00  0.00    -0.127 NA
ATOM      7  C   UNL d   1     -43.622-122.779 -49.609  0.00  0.00     0.131 A 
ATOM      8  C   UNL d   1     -42.625-123.118 -48.651  0.00  0.00     0.043 A 
ATOM      9  C   UNL d   1     -43.377-122.826 -48.825  0.00  0.00     0.031 A 
ENDROOT
BRANCH   7  10
ATOM     10  S   UNL d   1     -44.378-122.486 -49.797  0.00  0.00    -0.061 SA
BRANCH  10  11
ATOM     11  C   UNL d   1     -44.459-121.709 -50.085  0.00  0.00     0.099 C 
BRANCH  11  12
ATOM     12  C   UNL d   1     -45.212-121.360 -50.113  0.00  0.00     0.286 C 
ATOM     13  N   UNL d   1     -45.367-120.694 -49.681  0.00  0.00    -0.206 NA
ATOM     14  O   UNL d   1     -45.808-121.689 -50.580  0.00  0.00    -0.265 OA
BRANCH  13  15
ATOM     15  C   UNL d   1     -46.118-120.342 -49.706  0.00  0.00     0.102 C 
BRANCH  15  16
ATOM     16  C   UNL d   1     -46.250-119.653 -49.301  0.00  0.00     0.019 A 
ATOM     17  C   UNL d   1     -46.179-118.916 -49.667  0.00  0.00     0.004 A 
ATOM     18  C   UNL d   1     -46.313-118.220 -49.256  0.00  0.00     0.030 A 
ATOM     19  C   UNL d   1     -46.522-118.254 -48.459  0.00  0.00     0.140 A 
ATOM     20  C   UNL d   1     -46.592-118.988 -48.096  0.00  0.00     0.030 A 
ATOM     21  F   UNL d   1     -46.659-117.561 -48.035  0.00  0.00    -0.204 F 
ATOM     22  C   UNL d   1     -46.460-119.672 -48.503  0.00  0.00     0.004 A 
ENDBRANCH  15  16
ENDBRANCH  13  15
ENDBRANCH  11  12
ENDBRANCH  10  11
ENDBRANCH   7  10
BRANCH   3  23
ATOM     23  C   UNL d   1     -41.769-123.645 -51.344  0.00  0.00     0.061 C 
BRANCH  23  24
ATOM     24  C   UNL d   1     -41.378-123.077 -51.805  0.00  0.00     0.105 C 
BRANCH  24  25
ATOM     25  N   UNL d   1     -41.578-122.991 -52.602  0.00  0.00    -0.206 NA
ATOM     26  C   UNL d   1     -41.451-122.261 -52.983  0.00  0.00     0.279 C 
ATOM     27  O   UNL d   1     -41.124-121.628 -52.554  0.00  0.00    -0.265 OA
BRANCH  26  28
ATOM     28  C   UNL d   1     -41.650-122.173 -53.776  0.00  0.00     0.058 A 
ATOM     29  C   UNL d   1     -42.361-121.805 -53.980  0.00  0.00     0.005 A 
ATOM     30  C   UNL d   1     -42.565-121.714 -54.773  0.00  0.00     0.000 A 
ATOM     31  C   UNL d   1     -42.054-121.993 -55.362  0.00  0.00     0.000 A 
ATOM     32  C   UNL d   1     -41.344-122.361 -55.157  0.00  0.00     0.000 A 
ATOM     33  C   UNL d   1     -42.256-121.903 -56.152  0.00  0.00     0.000 C 
ATOM     34  C   UNL d   1     -41.144-122.449 -54.358  0.00  0.00     0.005 A 
ENDBRANCH  26  28
ENDBRANCH  24  25
ENDBRANCH  23  24
ENDBRANCH   3  23
TORSDOF 9
ENDMDL
