MODEL 1
REMARK VINA RESULT:      49.7      0.000      0.000
REMARK  5 active torsions:
REMARK  status: ('A' for Active; 'I' for Inactive)
REMARK    1  A    between atoms: C_2  and  C_1 
REMARK       I    between atoms: N_3  and  C_1 
REMARK    2  A    between atoms: C_8  and  N_3 
REMARK    3  A    between atoms: N_4  and  C_9 
REMARK    4  A    between atoms: N_5  and  N_4 
REMARK    5  A    between atoms: C_10  and  N_5 
ROOT
ATOM      1  C   UNL d   1      13.628  15.084  -4.870  0.00  0.00     0.085 A 
ATOM      2  C   UNL d   1      13.937  16.548  -5.575  0.00  0.00     0.103 A 
ATOM      3  C   UNL d   1      13.027  15.494  -5.262  0.00  0.00     0.021 A 
ATOM      4  C   UNL d   1      14.383  15.412  -4.833  0.00  0.00     0.021 A 
ATOM      5  C   UNL d   1      14.539  16.139  -5.183  0.00  0.00     0.022 A 
ATOM      6  C   UNL d   1      13.178  16.228  -5.617  0.00  0.00     0.022 A 
ENDROOT
BRANCH   1   7
ATOM      7  N   UNL d   1      13.473  14.352  -4.517  0.00  0.00    -0.208 NA
ATOM      8  C   UNL d   1      13.585  13.654  -4.946  0.00  0.00     0.280 C 
ATOM      9  O   UNL d   1      13.846  13.579  -5.729  0.00  0.00    -0.265 OA
BRANCH   8  10
ATOM     10  C   UNL d   1      13.380  13.054  -4.424  0.00  0.00     0.069 A 
ATOM     11  C   UNL d   1      12.977  12.393  -4.705  0.00  0.00     0.062 A 
ATOM     12 CL   UNL d   1      12.781  12.330  -5.499  0.00  0.00    -0.082 Cl
ATOM     13  C   UNL d   1      12.770  11.787  -4.178  0.00  0.00     0.012 A 
ATOM     14  C   UNL d   1      12.969  11.852  -3.376  0.00  0.00     0.001 A 
ATOM     15  C   UNL d   1      13.372  12.520  -3.111  0.00  0.00     0.000 A 
ATOM     16  C   UNL d   1      13.575  13.116  -3.632  0.00  0.00     0.006 A 
ENDBRANCH   8  10
ENDBRANCH   1   7
BRANCH   2  17
ATOM     17  N   UNL d   1      14.095  17.278  -5.926  0.00  0.00    -0.148 NA
BRANCH  17  18
ATOM     18  N   UNL d   1      13.487  17.699  -6.292  0.00  0.00    -0.148 NA
BRANCH  18  19
ATOM     19  C   UNL d   1      13.515  18.526  -6.323  0.00  0.00     0.103 A 
ATOM     20  C   UNL d   1      14.239  18.916  -6.358  0.00  0.00     0.021 A 
ATOM     21  C   UNL d   1      14.266  19.734  -6.389  0.00  0.00     0.002 A 
ATOM     22  C   UNL d   1      13.564  20.171  -6.384  0.00  0.00     0.000 A 
ATOM     23  C   UNL d   1      12.835  19.789  -6.349  0.00  0.00     0.002 A 
ATOM     24  C   UNL d   1      12.813  18.963  -6.318  0.00  0.00     0.021 A 
ENDBRANCH  18  19
ENDBRANCH  17  18
ENDBRANCH   2  17
TORSDOF 5
ENDMDL
MODEL 2
REMARK VINA RESULT:      50.0      1.775      5.795
REMARK  5 active torsions:
REMARK  status: ('A' for Active; 'I' for Inactive)
REMARK    1  A    between atoms: C_2  and  C_1 
REMARK       I    between atoms: N_3  and  C_1 
REMARK    2  A    between atoms: C_8  and  N_3 
REMARK    3  A    between atoms: N_4  and  C_9 
REMARK    4  A    between atoms: N_5  and  N_4 
REMARK    5  A    between atoms: C_10  and  N_5 
ROOT
ATOM      1  C   UNL d   1      14.223  16.989  -5.045  0.00  0.00     0.085 A 
ATOM      2  C   UNL d   1      14.046  15.402  -4.612  0.00  0.00     0.103 A 
ATOM      3  C   UNL d   1      13.878  16.450  -5.568  0.00  0.00     0.021 A 
ATOM      4  C   UNL d   1      14.479  16.729  -4.306  0.00  0.00     0.021 A 
ATOM      5  C   UNL d   1      14.392  15.941  -4.089  0.00  0.00     0.022 A 
ATOM      6  C   UNL d   1      13.787  15.654  -5.354  0.00  0.00     0.022 A 
ENDROOT
BRANCH   1   7
ATOM      7  N   UNL d   1      14.312  17.782  -5.262  0.00  0.00    -0.208 NA
ATOM      8  C   UNL d   1      13.873  18.092  -5.890  0.00  0.00     0.280 C 
ATOM      9  O   UNL d   1      13.322  17.695  -6.364  0.00  0.00    -0.265 OA
BRANCH   8  10
ATOM     10  C   UNL d   1      14.105  18.878  -5.939  0.00  0.00     0.069 A 
ATOM     11  C   UNL d   1      13.563  19.446  -6.187  0.00  0.00     0.062 A 
ATOM     12 CL   UNL d   1      12.796  19.232  -6.386  0.00  0.00    -0.082 Cl
ATOM     13  C   UNL d   1      13.797  20.240  -6.237  0.00  0.00     0.012 A 
ATOM     14  C   UNL d   1      14.572  20.455  -6.036  0.00  0.00     0.001 A 
ATOM     15  C   UNL d   1      15.103  19.874  -5.789  0.00  0.00     0.000 A 
ATOM     16  C   UNL d   1      14.870  19.093  -5.741  0.00  0.00     0.006 A 
ENDBRANCH   8  10
ENDBRANCH   1   7
BRANCH   2  17
ATOM     17  N   UNL d   1      13.959  14.612  -4.393  0.00  0.00    -0.148 NA
BRANCH  17  18
ATOM     18  N   UNL d   1      13.341  14.164  -4.705  0.00  0.00    -0.148 NA
BRANCH  18  19
ATOM     19  C   UNL d   1      13.259  13.367  -4.495  0.00  0.00     0.103 A 
ATOM     20  C   UNL d   1      13.208  13.149  -3.703  0.00  0.00     0.021 A 
ATOM     21  C   UNL d   1      13.128  12.361  -3.496  0.00  0.00     0.002 A 
ATOM     22  C   UNL d   1      13.096  11.780  -4.085  0.00  0.00     0.000 A 
ATOM     23  C   UNL d   1      13.146  11.989  -4.880  0.00  0.00     0.002 A 
ATOM     24  C   UNL d   1      13.228  12.787  -5.084  0.00  0.00     0.021 A 
ENDBRANCH  18  19
ENDBRANCH  17  18
ENDBRANCH   2  17
TORSDOF 5
ENDMDL
MODEL 3
REMARK VINA RESULT:      50.9      1.937      5.878
REMARK  5 active torsions:
REMARK  status: ('A' for Active; 'I' for Inactive)
REMARK    1  A    between atoms: C_2  and  C_1 
REMARK       I    between atoms: N_3  and  C_1 
REMARK    2  A    between atoms: C_8  and  N_3 
REMARK    3  A    between atoms: N_4  and  C_9 
REMARK    4  A    between atoms: N_5  and  N_4 
REMARK    5  A    between atoms: C_10  and  N_5 
ROOT
ATOM      1  C   UNL d   1      13.484  13.948  -4.445  0.00  0.00     0.085 A 
ATOM      2  C   UNL d   1      13.492  12.563  -3.541  0.00  0.00     0.103 A 
ATOM      3  C   UNL d   1      12.962  13.332  -4.621  0.00  0.00     0.021 A 
ATOM      4  C   UNL d   1      14.008  13.867  -3.815  0.00  0.00     0.021 A 
ATOM      5  C   UNL d   1      14.014  13.180  -3.365  0.00  0.00     0.022 A 
ATOM      6  C   UNL d   1      12.963  12.636  -4.170  0.00  0.00     0.022 A 
ENDROOT
BRANCH   1   7
ATOM      7  N   UNL d   1      13.480  14.641  -4.897  0.00  0.00    -0.208 NA
ATOM      8  C   UNL d   1      13.616  15.373  -4.536  0.00  0.00     0.280 C 
ATOM      9  O   UNL d   1      13.765  15.519  -3.734  0.00  0.00    -0.265 OA
BRANCH   8  10
ATOM     10  C   UNL d   1      13.570  15.919  -5.147  0.00  0.00     0.069 A 
ATOM     11  C   UNL d   1      14.238  16.354  -5.351  0.00  0.00     0.062 A 
ATOM     12 CL   UNL d   1      14.946  16.247  -4.949  0.00  0.00    -0.082 Cl
ATOM     13  C   UNL d   1      14.193  16.907  -5.968  0.00  0.00     0.012 A 
ATOM     14  C   UNL d   1      13.478  17.014  -6.373  0.00  0.00     0.001 A 
ATOM     15  C   UNL d   1      12.818  16.570  -6.157  0.00  0.00     0.000 A 
ATOM     16  C   UNL d   1      12.865  16.027  -5.548  0.00  0.00     0.006 A 
ENDBRANCH   8  10
ENDBRANCH   1   7
BRANCH   2  17
ATOM     17  N   UNL d   1      13.499  11.874  -3.088  0.00  0.00    -0.148 NA
BRANCH  17  18
ATOM     18  N   UNL d   1      13.158  11.872  -2.337  0.00  0.00    -0.148 NA
BRANCH  18  19
ATOM     19  C   UNL d   1      13.638  11.843  -1.663  0.00  0.00     0.103 A 
ATOM     20  C   UNL d   1      14.458  11.849  -1.738  0.00  0.00     0.021 A 
ATOM     21  C   UNL d   1      14.933  11.821  -1.071  0.00  0.00     0.002 A 
ATOM     22  C   UNL d   1      14.589  11.786  -0.320  0.00  0.00     0.000 A 
ATOM     23  C   UNL d   1      13.770  11.779  -0.236  0.00  0.00     0.002 A 
ATOM     24  C   UNL d   1      13.294  11.808  -0.912  0.00  0.00     0.021 A 
ENDBRANCH  18  19
ENDBRANCH  17  18
ENDBRANCH   2  17
TORSDOF 5
ENDMDL
