MODEL 1
REMARK VINA RESULT:      -8.2      0.000      0.000
REMARK  4 active torsions:
REMARK  status: ('A' for Active; 'I' for Inactive)
REMARK    1  A    between atoms: C_2  and  C_1 
REMARK       I    between atoms: N_7  and  C_2 
REMARK    2  A    between atoms: C_12  and  N_7 
REMARK    3  A    between atoms: C_13  and  N_7 
REMARK    4  A    between atoms: O_14  and  C_11 
ROOT
ATOM      1  C   UNL d   1      53.248  34.245  54.174  0.00  0.00     0.120 A 
ATOM      2  C   UNL d   1      52.526  34.147  54.564  0.00  0.00     0.305 A 
ATOM      3  O   UNL d   1      51.825  34.131  54.121  0.00  0.00    -0.271 OA
ATOM      4  C   UNL d   1      53.270  34.325  53.351  0.00  0.00     0.012 A 
ATOM      5  C   UNL d   1      51.844  34.210  53.300  0.00  0.00     0.125 A 
ATOM      6  C   UNL d   1      52.574  34.308  52.913  0.00  0.00     0.025 A 
ATOM      7  O   UNL d   1      52.507  34.068  55.385  0.00  0.00    -0.259 OA
ATOM      8  C   UNL d   1      51.151  34.194  52.865  0.00  0.00     0.117 A 
ATOM      9  C   UNL d   1      52.597  34.388  52.095  0.00  0.00     0.002 A 
ATOM     10  C   UNL d   1      51.901  34.371  51.658  0.00  0.00     0.002 A 
ATOM     11  C   UNL d   1      51.170  34.273  52.045  0.00  0.00     0.026 A 
ENDROOT
BRANCH   1  12
ATOM     12  C   UNL d   1      53.949  34.262  54.612  0.00  0.00     0.270 C 
ATOM     13  N   UNL d   1      54.408  33.574  54.677  0.00  0.00    -0.273 N 
ATOM     14  O   UNL d   1      54.192  34.958  54.981  0.00  0.00    -0.266 OA
BRANCH  13  15
ATOM     15  C   UNL d   1      54.162  32.877  54.305  0.00  0.00     0.067 A 
ATOM     16  C   UNL d   1      54.408  32.715  53.538  0.00  0.00     0.018 A 
ATOM     17  C   UNL d   1      54.161  32.019  53.170  0.00  0.00     0.002 A 
ATOM     18  C   UNL d   1      53.670  31.485  53.568  0.00  0.00     0.000 A 
ATOM     19  C   UNL d   1      53.424  31.654  54.345  0.00  0.00     0.002 A 
ATOM     20  C   UNL d   1      53.668  32.347  54.715  0.00  0.00     0.018 A 
ENDBRANCH  13  15
BRANCH  13  21
ATOM     21  C   UNL d   1      55.112  33.584  55.113  0.00  0.00     0.083 C 
ATOM     22  C   UNL d   1      55.764  34.003  54.833  0.00  0.00     0.021 C 
ENDBRANCH  13  21
ENDBRANCH   1  12
BRANCH   8  23
ATOM     23  O   UNL d   1      50.421  34.096  53.252  0.00  0.00    -0.326 OA
ATOM     24  C   UNL d   1      49.722  34.315  52.870  0.00  0.00     0.181 C 
ENDBRANCH   8  23
TORSDOF 4
ENDMDL
MODEL 2
REMARK VINA RESULT:      -7.6      1.474      2.385
REMARK  4 active torsions:
REMARK  status: ('A' for Active; 'I' for Inactive)
REMARK    1  A    between atoms: C_2  and  C_1 
REMARK       I    between atoms: N_7  and  C_2 
REMARK    2  A    between atoms: C_12  and  N_7 
REMARK    3  A    between atoms: C_13  and  N_7 
REMARK    4  A    between atoms: O_14  and  C_11 
ROOT
ATOM      1  C   UNL d   1      52.536  32.002  52.953  0.00  0.00     0.120 A 
ATOM      2  C   UNL d   1      51.793  31.988  53.312  0.00  0.00     0.305 A 
ATOM      3  O   UNL d   1      51.339  32.683  53.334  0.00  0.00    -0.271 OA
ATOM      4  C   UNL d   1      52.825  32.702  52.618  0.00  0.00     0.012 A 
ATOM      5  C   UNL d   1      51.624  33.381  53.001  0.00  0.00     0.125 A 
ATOM      6  C   UNL d   1      52.375  33.389  52.640  0.00  0.00     0.025 A 
ATOM      7  O   UNL d   1      51.507  31.289  53.645  0.00  0.00    -0.259 OA
ATOM      8  C   UNL d   1      51.176  34.066  53.023  0.00  0.00     0.117 A 
ATOM      9  C   UNL d   1      52.662  34.084  52.308  0.00  0.00     0.002 A 
ATOM     10  C   UNL d   1      52.212  34.772  52.330  0.00  0.00     0.002 A 
ATOM     11  C   UNL d   1      51.461  34.764  52.691  0.00  0.00     0.026 A 
ENDROOT
BRANCH   1  12
ATOM     12  C   UNL d   1      52.991  31.312  52.929  0.00  0.00     0.270 C 
ATOM     13  N   UNL d   1      53.651  31.240  53.426  0.00  0.00    -0.273 N 
ATOM     14  O   UNL d   1      52.791  30.699  52.414  0.00  0.00    -0.266 OA
BRANCH  13  15
ATOM     15  C   UNL d   1      53.850  31.856  53.942  0.00  0.00     0.067 A 
ATOM     16  C   UNL d   1      53.502  31.894  54.684  0.00  0.00     0.018 A 
ATOM     17  C   UNL d   1      53.702  32.509  55.196  0.00  0.00     0.002 A 
ATOM     18  C   UNL d   1      54.249  33.086  54.966  0.00  0.00     0.000 A 
ATOM     19  C   UNL d   1      54.598  33.043  54.212  0.00  0.00     0.002 A 
ATOM     20  C   UNL d   1      54.400  32.430  53.699  0.00  0.00     0.018 A 
ENDBRANCH  13  15
BRANCH  13  21
ATOM     21  C   UNL d   1      54.112  30.551  53.408  0.00  0.00     0.083 C 
ATOM     22  C   UNL d   1      53.789  29.833  53.652  0.00  0.00     0.021 C 
ENDBRANCH  13  21
ENDBRANCH   1  12
BRANCH   8  23
ATOM     23  O   UNL d   1      50.426  34.058  53.384  0.00  0.00    -0.326 OA
ATOM     24  C   UNL d   1      49.890  34.667  53.229  0.00  0.00     0.181 C 
ENDBRANCH   8  23
TORSDOF 4
ENDMDL
MODEL 3
REMARK VINA RESULT:      -7.6      1.587      3.329
REMARK  4 active torsions:
REMARK  status: ('A' for Active; 'I' for Inactive)
REMARK    1  A    between atoms: C_2  and  C_1 
REMARK       I    between atoms: N_7  and  C_2 
REMARK    2  A    between atoms: C_12  and  N_7 
REMARK    3  A    between atoms: C_13  and  N_7 
REMARK    4  A    between atoms: O_14  and  C_11 
ROOT
ATOM      1  C   UNL d   1      53.646  32.735  53.791  0.00  0.00     0.120 A 
ATOM      2  C   UNL d   1      53.614  32.380  54.535  0.00  0.00     0.305 A 
ATOM      3  O   UNL d   1      53.461  31.565  54.590  0.00  0.00    -0.271 OA
ATOM      4  C   UNL d   1      53.527  32.284  53.107  0.00  0.00     0.012 A 
ATOM      5  C   UNL d   1      53.342  31.114  53.911  0.00  0.00     0.125 A 
ATOM      6  C   UNL d   1      53.376  31.478  53.163  0.00  0.00     0.025 A 
ATOM      7  O   UNL d   1      53.733  32.832  55.215  0.00  0.00    -0.259 OA
ATOM      8  C   UNL d   1      53.192  30.311  53.966  0.00  0.00     0.117 A 
ATOM      9  C   UNL d   1      53.258  31.030  52.483  0.00  0.00     0.002 A 
ATOM     10  C   UNL d   1      53.107  30.224  52.539  0.00  0.00     0.002 A 
ATOM     11  C   UNL d   1      53.073  29.860  53.287  0.00  0.00     0.026 A 
ENDROOT
BRANCH   1  12
ATOM     12  C   UNL d   1      53.798  33.546  53.731  0.00  0.00     0.270 C 
ATOM     13  N   UNL d   1      53.181  34.065  53.536  0.00  0.00    -0.273 N 
ATOM     14  O   UNL d   1      54.558  33.838  53.864  0.00  0.00    -0.266 OA
BRANCH  13  15
ATOM     15  C   UNL d   1      52.419  33.770  53.403  0.00  0.00     0.067 A 
ATOM     16  C   UNL d   1      51.918  33.634  54.039  0.00  0.00     0.018 A 
ATOM     17  C   UNL d   1      51.159  33.340  53.904  0.00  0.00     0.002 A 
ATOM     18  C   UNL d   1      50.902  33.181  53.133  0.00  0.00     0.000 A 
ATOM     19  C   UNL d   1      51.414  33.321  52.493  0.00  0.00     0.002 A 
ATOM     20  C   UNL d   1      52.171  33.614  52.625  0.00  0.00     0.018 A 
ENDBRANCH  13  15
BRANCH  13  21
ATOM     21  C   UNL d   1      53.325  34.878  53.475  0.00  0.00     0.083 C 
ATOM     22  C   UNL d   1      53.231  35.364  54.134  0.00  0.00     0.021 C 
ENDBRANCH  13  21
ENDBRANCH   1  12
BRANCH   8  23
ATOM     23  O   UNL d   1      53.159  29.947  54.714  0.00  0.00    -0.326 OA
ATOM     24  C   UNL d   1      53.166  29.123  54.769  0.00  0.00     0.181 C 
ENDBRANCH   8  23
TORSDOF 4
ENDMDL
MODEL 4
REMARK VINA RESULT:      -6.7      1.530      2.995
REMARK  4 active torsions:
REMARK  status: ('A' for Active; 'I' for Inactive)
REMARK    1  A    between atoms: C_2  and  C_1 
REMARK       I    between atoms: N_7  and  C_2 
REMARK    2  A    between atoms: C_12  and  N_7 
REMARK    3  A    between atoms: C_13  and  N_7 
REMARK    4  A    between atoms: O_14  and  C_11 
ROOT
ATOM      1  C   UNL d   1      52.733  33.065  53.191  0.00  0.00     0.120 A 
ATOM      2  C   UNL d   1      52.037  32.707  53.454  0.00  0.00     0.305 A 
ATOM      3  O   UNL d   1      51.996  31.879  53.496  0.00  0.00    -0.271 OA
ATOM      4  C   UNL d   1      53.383  32.602  52.971  0.00  0.00     0.012 A 
ATOM      5  C   UNL d   1      52.642  31.416  53.278  0.00  0.00     0.125 A 
ATOM      6  C   UNL d   1      53.342  31.782  53.013  0.00  0.00     0.025 A 
ATOM      7  O   UNL d   1      51.390  33.172  53.672  0.00  0.00    -0.259 OA
ATOM      8  C   UNL d   1      52.601  30.600  53.319  0.00  0.00     0.117 A 
ATOM      9  C   UNL d   1      53.988  31.323  52.795  0.00  0.00     0.002 A 
ATOM     10  C   UNL d   1      53.946  30.503  52.837  0.00  0.00     0.002 A 
ATOM     11  C   UNL d   1      53.247  30.136  53.102  0.00  0.00     0.026 A 
ENDROOT
BRANCH   1  12
ATOM     12  C   UNL d   1      52.777  33.890  53.148  0.00  0.00     0.270 C 
ATOM     13  N   UNL d   1      53.236  34.304  53.700  0.00  0.00    -0.273 N 
ATOM     14  O   UNL d   1      52.368  34.298  52.559  0.00  0.00    -0.266 OA
BRANCH  13  15
ATOM     15  C   UNL d   1      53.646  33.892  54.290  0.00  0.00     0.067 A 
ATOM     16  C   UNL d   1      53.257  33.676  54.980  0.00  0.00     0.018 A 
ATOM     17  C   UNL d   1      53.668  33.265  55.566  0.00  0.00     0.002 A 
ATOM     18  C   UNL d   1      54.466  33.071  55.462  0.00  0.00     0.000 A 
ATOM     19  C   UNL d   1      54.854  33.292  54.761  0.00  0.00     0.002 A 
ATOM     20  C   UNL d   1      54.447  33.702  54.174  0.00  0.00     0.018 A 
ENDBRANCH  13  15
BRANCH  13  21
ATOM     21  C   UNL d   1      53.286  35.131  53.663  0.00  0.00     0.083 C 
ATOM     22  C   UNL d   1      52.780  35.594  54.120  0.00  0.00     0.021 C 
ENDBRANCH  13  21
ENDBRANCH   1  12
BRANCH   8  23
ATOM     23  O   UNL d   1      51.902  30.233  53.584  0.00  0.00    -0.326 OA
ATOM     24  C   UNL d   1      51.869  29.410  53.647  0.00  0.00     0.181 C 
ENDBRANCH   8  23
TORSDOF 4
ENDMDL
MODEL 5
REMARK VINA RESULT:      -6.1      1.416      2.354
REMARK  4 active torsions:
REMARK  status: ('A' for Active; 'I' for Inactive)
REMARK    1  A    between atoms: C_2  and  C_1 
REMARK       I    between atoms: N_7  and  C_2 
REMARK    2  A    between atoms: C_12  and  N_7 
REMARK    3  A    between atoms: C_13  and  N_7 
REMARK    4  A    between atoms: O_14  and  C_11 
ROOT
ATOM      1  C   UNL d   1      52.460  33.124  53.397  0.00  0.00     0.120 A 
ATOM      2  C   UNL d   1      52.553  33.220  52.582  0.00  0.00     0.305 A 
ATOM      3  O   UNL d   1      51.940  33.566  52.142  0.00  0.00    -0.271 OA
ATOM      4  C   UNL d   1      51.763  33.370  53.770  0.00  0.00     0.012 A 
ATOM      5  C   UNL d   1      51.245  33.812  52.510  0.00  0.00     0.125 A 
ATOM      6  C   UNL d   1      51.157  33.712  53.332  0.00  0.00     0.025 A 
ATOM      7  O   UNL d   1      53.249  32.973  52.213  0.00  0.00    -0.259 OA
ATOM      8  C   UNL d   1      50.642  34.152  52.074  0.00  0.00     0.117 A 
ATOM      9  C   UNL d   1      50.465  33.956  53.703  0.00  0.00     0.002 A 
ATOM     10  C   UNL d   1      49.859  34.299  53.265  0.00  0.00     0.002 A 
ATOM     11  C   UNL d   1      49.947  34.398  52.443  0.00  0.00     0.026 A 
ENDROOT
BRANCH   1  12
ATOM     12  C   UNL d   1      53.068  32.780  53.840  0.00  0.00     0.270 C 
ATOM     13  N   UNL d   1      53.574  33.263  54.285  0.00  0.00    -0.273 N 
ATOM     14  O   UNL d   1      53.172  31.961  53.839  0.00  0.00    -0.266 OA
BRANCH  13  15
ATOM     15  C   UNL d   1      53.468  34.084  54.285  0.00  0.00     0.067 A 
ATOM     16  C   UNL d   1      53.792  34.536  53.681  0.00  0.00     0.018 A 
ATOM     17  C   UNL d   1      53.685  35.354  53.683  0.00  0.00     0.002 A 
ATOM     18  C   UNL d   1      53.254  35.720  54.287  0.00  0.00     0.000 A 
ATOM     19  C   UNL d   1      52.928  35.256  54.896  0.00  0.00     0.002 A 
ATOM     20  C   UNL d   1      53.033  34.440  54.897  0.00  0.00     0.018 A 
ENDBRANCH  13  15
BRANCH  13  21
ATOM     21  C   UNL d   1      54.185  32.925  54.732  0.00  0.00     0.083 C 
ATOM     22  C   UNL d   1      54.006  32.434  55.369  0.00  0.00     0.021 C 
ENDBRANCH  13  21
ENDBRANCH   1  12
BRANCH   8  23
ATOM     23  O   UNL d   1      50.730  34.252  51.252  0.00  0.00    -0.326 OA
ATOM     24  C   UNL d   1      50.072  34.443  50.790  0.00  0.00     0.181 C 
ENDBRANCH   8  23
TORSDOF 4
ENDMDL
