MODEL 1
REMARK VINA RESULT:      43.3      0.000      0.000
REMARK  7 active torsions:
REMARK  status: ('A' for Active; 'I' for Inactive)
REMARK    1  A    between atoms: N_3  and  C_1 
REMARK       I    between atoms: C_7  and  N_3 
REMARK    2  A    between atoms: C_11  and  N_3 
REMARK    3  A    between atoms: S_5  and  C_10 
REMARK    4  A    between atoms: C_14  and  S_5 
REMARK    5  A    between atoms: C_9  and  C_7 
REMARK    6  A    between atoms: C_10  and  C_9 
REMARK    7  A    between atoms: C_18  and  C_11 
ROOT
ATOM      1  N   UNL d   1      45.640 -14.994  44.135  0.00  0.00    -0.253 N 
ATOM      2  C   UNL d   1      46.057 -15.672  43.874  0.00  0.00     0.267 C 
ATOM      3  O   UNL d   1      46.440 -15.655  43.147  0.00  0.00    -0.267 OA
ENDROOT
BRANCH   1   4
ATOM      4  C   UNL d   1      45.619 -14.320  43.661  0.00  0.00     0.182 A 
ATOM      5  N   UNL d   1      44.947 -13.866  43.482  0.00  0.00    -0.219 NA
ATOM      6  C   UNL d   1      45.180 -13.241  42.989  0.00  0.00     0.117 A 
ATOM      7  C   UNL d   1      44.748 -12.636  42.651  0.00  0.00     0.158 A 
ATOM      8  C   UNL d   1      45.987 -13.306  42.863  0.00  0.00     0.052 A 
ATOM      9  F   UNL d   1      43.942 -12.568  42.775  0.00  0.00    -0.203 F 
ATOM     10  C   UNL d   1      45.131 -12.089  42.181  0.00  0.00     0.031 A 
ATOM     11  C   UNL d   1      45.944 -12.146  42.048  0.00  0.00     0.003 A 
ATOM     12  C   UNL d   1      46.371 -12.759  42.392  0.00  0.00     0.008 A 
ATOM     13  S   UNL d   1      46.265 -13.969  43.274  0.00  0.00    -0.048 SA
ENDBRANCH   1   4
BRANCH   1  14
ATOM     14  C   UNL d   1      45.254 -15.003  44.863  0.00  0.00     0.086 C 
BRANCH  14  15
ATOM     15  C   UNL d   1      44.430 -14.986  44.893  0.00  0.00     0.037 A 
ATOM     16  C   UNL d   1      44.033 -14.266  44.925  0.00  0.00     0.100 A 
ATOM     17  N   UNL d   1      43.208 -14.249  44.955  0.00  0.00    -0.242 NA
ATOM     18  C   UNL d   1      42.781 -14.952  44.953  0.00  0.00     0.099 A 
ATOM     19  C   UNL d   1      43.178 -15.677  44.921  0.00  0.00     0.021 A 
ATOM     20  C   UNL d   1      44.002 -15.694  44.891  0.00  0.00     0.005 A 
ENDBRANCH  14  15
ENDBRANCH   1  14
BRANCH   2  21
ATOM     21  C   UNL d   1      46.078 -16.341  44.347  0.00  0.00     0.073 C 
BRANCH  21  22
ATOM     22  C   UNL d   1      46.645 -16.928  44.200  0.00  0.00     0.104 C 
BRANCH  22  23
ATOM     23  S   UNL d   1      46.404 -17.694  44.000  0.00  0.00     0.211 S 
ATOM     24  O   UNL d   1      46.320 -17.883  44.812  0.00  0.00    -0.217 OA
ATOM     25  O   UNL d   1      46.487 -17.507  43.193  0.00  0.00    -0.217 OA
BRANCH  23  26
ATOM     26  C   UNL d   1      46.162 -18.463  43.802  0.00  0.00     0.088 A 
ATOM     27  C   UNL d   1      45.904 -18.626  43.036  0.00  0.00     0.011 A 
ATOM     28  C   UNL d   1      45.663 -19.387  42.834  0.00  0.00     0.001 A 
ATOM     29  C   UNL d   1      45.681 -19.986  43.400  0.00  0.00     0.000 A 
ATOM     30  C   UNL d   1      45.937 -19.828  44.159  0.00  0.00     0.001 A 
ATOM     31  C   UNL d   1      46.180 -19.065  44.367  0.00  0.00     0.011 A 
ENDBRANCH  23  26
ENDBRANCH  22  23
ENDBRANCH  21  22
ENDBRANCH   2  21
TORSDOF 7
ENDMDL
