MODEL 1
REMARK VINA RESULT:      36.7      0.000      0.000
REMARK  0 active torsions:
REMARK  status: ('A' for Active; 'I' for Inactive)
REMARK       I    between atoms: C_2  and  N_1 
REMARK       I    between atoms: N_7  and  C_2 
ROOT
ATOM      1  N   UNL d   1     -54.712-101.441 -38.401  0.00  0.00    -0.241 N 
ATOM      2  C   UNL d   1     -54.712-102.030 -37.793  0.00  0.00     0.341 C 
ATOM      3  C   UNL d   1     -54.713-101.549 -39.204  0.00  0.00     0.087 A 
ATOM      4  C   UNL d   1     -54.712-100.639 -38.250  0.00  0.00     0.186 A 
ATOM      5  N   UNL d   1     -54.713-100.247 -38.973  0.00  0.00    -0.224 NA
ATOM      6  C   UNL d   1     -54.713-100.816 -39.565  0.00  0.00     0.099 A 
ATOM      7  N   UNL d   1     -54.712-101.821 -36.996  0.00  0.00    -0.257 N 
ATOM      8  C   UNL d   1     -54.713-102.237 -39.657  0.00  0.00     0.019 A 
ATOM      9  C   UNL d   1     -54.713-100.750 -40.392  0.00  0.00     0.021 A 
ATOM     10  C   UNL d   1     -54.713-102.176 -40.474  0.00  0.00     0.002 A 
ATOM     11  C   UNL d   1     -54.713-101.447 -40.847  0.00  0.00     0.002 A 
ATOM     12  O   UNL d   1     -54.712-102.829 -38.027  0.00  0.00    -0.245 OA
ATOM     13  C   UNL d   1     -54.712-102.393 -36.422  0.00  0.00     0.085 A 
ATOM     14  C   UNL d   1     -54.712-101.014 -36.781  0.00  0.00     0.085 A 
ATOM     15  C   UNL d   1     -54.713-102.880 -40.922  0.00  0.00     0.000 C 
ATOM     16  C   UNL d   1     -54.714-101.401 -41.686  0.00  0.00     0.000 C 
ATOM     17  C   UNL d   1     -54.711-102.183 -35.624  0.00  0.00     0.019 A 
ATOM     18  C   UNL d   1     -54.712-100.802 -35.975  0.00  0.00     0.019 A 
ATOM     19  C   UNL d   1     -54.711-101.402 -35.404  0.00  0.00     0.003 A 
ENDROOT
TORSDOF 0
ENDMDL
