MODEL 1
REMARK VINA RESULT:      56.2      0.000      0.000
REMARK  5 active torsions:
REMARK  status: ('A' for Active; 'I' for Inactive)
REMARK    1  A    between atoms: C_2  and  S_1 
REMARK    2  A    between atoms: N_3  and  S_1 
REMARK    3  A    between atoms: C_21  and  N_8 
REMARK    4  A    between atoms: O_26  and  C_16 
REMARK    5  A    between atoms: C_19  and  C_21 
ROOT
ATOM      1  N   UNL d   1      45.372 -18.062  40.152  0.00  0.00    -0.226 N 
ATOM      2  N   UNL d   1      44.853 -17.364  38.749  0.00  0.00    -0.300 N 
ATOM      3  C   UNL d   1      44.656 -17.637  40.133  0.00  0.00     0.111 A 
ATOM      4  C   UNL d   1      45.820 -18.131  39.464  0.00  0.00     0.111 A 
ATOM      5  C   UNL d   1      44.405 -17.292  39.428  0.00  0.00     0.100 A 
ATOM      6  C   UNL d   1      45.569 -17.789  38.767  0.00  0.00     0.100 A 
ENDROOT
BRANCH   1   7
ATOM      7  S   UNL d   1      45.622 -18.406  40.853  0.00  0.00     0.271 S 
ATOM      8  O   UNL d   1      44.839 -18.510  41.091  0.00  0.00    -0.200 OA
ATOM      9  O   UNL d   1      46.410 -18.301  40.615  0.00  0.00    -0.200 OA
BRANCH   7  10
ATOM     10  C   UNL d   1      45.875 -18.748  41.553  0.00  0.00     0.104 A 
ATOM     11  C   UNL d   1      46.008 -18.285  42.224  0.00  0.00     0.014 A 
ATOM     12  C   UNL d   1      46.263 -18.633  42.928  0.00  0.00     0.023 A 
ATOM     13  C   UNL d   1      45.884 -17.469  42.186  0.00  0.00     0.001 A 
ATOM     14  C   UNL d   1      46.394 -18.177  43.587  0.00  0.00     0.002 A 
ATOM     15  C   UNL d   1      46.386 -19.450  42.965  0.00  0.00     0.094 A 
ATOM     16  C   UNL d   1      46.273 -17.360  43.560  0.00  0.00     0.000 A 
ATOM     17  C   UNL d   1      46.018 -17.008  42.856  0.00  0.00     0.000 A 
ATOM     18  C   UNL d   1      46.254 -19.914  42.298  0.00  0.00     0.025 A 
ATOM     19  C   UNL d   1      45.999 -19.571  41.591  0.00  0.00     0.015 A 
BRANCH  15  20
ATOM     20  O   UNL d   1      46.638 -19.794  43.661  0.00  0.00    -0.328 OA
ATOM     21  C   UNL d   1      46.157 -20.330  44.049  0.00  0.00     0.181 C 
ENDBRANCH  15  20
ENDBRANCH   7  10
ENDBRANCH   1   7
BRANCH   2  22
ATOM     22  C   UNL d   1      44.602 -17.019  38.042  0.00  0.00     0.080 C 
BRANCH  22  23
ATOM     23  C   UNL d   1      44.874 -16.274  37.816  0.00  0.00     0.020 A 
ATOM     24  C   UNL d   1      45.644 -16.172  37.569  0.00  0.00     0.028 A 
ATOM     25  C   UNL d   1      45.914 -15.429  37.343  0.00  0.00     0.119 A 
ATOM     26  O   UNL d   1      46.647 -15.163  37.075  0.00  0.00    -0.300 OA
ATOM     27  C   UNL d   1      45.395 -14.777  37.368  0.00  0.00     0.119 A 
ATOM     28  C   UNL d   1      46.585 -14.352  36.934  0.00  0.00     0.304 A 
ATOM     29  O   UNL d   1      45.817 -14.119  37.114  0.00  0.00    -0.300 OA
ATOM     30  C   UNL d   1      44.620 -14.886  37.617  0.00  0.00     0.026 A 
ATOM     31  C   UNL d   1      44.355 -15.622  37.840  0.00  0.00     0.004 A 
ENDBRANCH  22  23
ENDBRANCH   2  22
TORSDOF 5
ENDMDL
MODEL 2
REMARK VINA RESULT:      57.4      1.054      1.382
REMARK  5 active torsions:
REMARK  status: ('A' for Active; 'I' for Inactive)
REMARK    1  A    between atoms: C_2  and  S_1 
REMARK    2  A    between atoms: N_3  and  S_1 
REMARK    3  A    between atoms: C_21  and  N_8 
REMARK    4  A    between atoms: O_26  and  C_16 
REMARK    5  A    between atoms: C_19  and  C_21 
ROOT
ATOM      1  N   UNL d   1      46.015 -18.196  40.533  0.00  0.00    -0.226 N 
ATOM      2  N   UNL d   1      45.916 -17.349  39.120  0.00  0.00    -0.300 N 
ATOM      3  C   UNL d   1      45.333 -18.250  40.057  0.00  0.00     0.111 A 
ATOM      4  C   UNL d   1      46.639 -17.716  40.292  0.00  0.00     0.111 A 
ATOM      5  C   UNL d   1      45.293 -17.823  39.353  0.00  0.00     0.100 A 
ATOM      6  C   UNL d   1      46.597 -17.294  39.596  0.00  0.00     0.100 A 
ENDROOT
BRANCH   1   7
ATOM      7  S   UNL d   1      46.055 -18.621  41.233  0.00  0.00     0.271 S 
ATOM      8  O   UNL d   1      46.645 -19.103  40.917  0.00  0.00    -0.200 OA
ATOM      9  O   UNL d   1      45.461 -18.137  41.552  0.00  0.00    -0.200 OA
BRANCH   7  10
ATOM     10  C   UNL d   1      46.092 -19.044  41.934  0.00  0.00     0.104 A 
ATOM     11  C   UNL d   1      46.251 -18.659  42.648  0.00  0.00     0.014 A 
ATOM     12  C   UNL d   1      46.288 -19.088  43.353  0.00  0.00     0.023 A 
ATOM     13  C   UNL d   1      46.373 -17.842  42.653  0.00  0.00     0.001 A 
ATOM     14  C   UNL d   1      46.444 -18.710  44.055  0.00  0.00     0.002 A 
ATOM     15  C   UNL d   1      46.165 -19.906  43.348  0.00  0.00     0.094 A 
ATOM     16  C   UNL d   1      46.568 -17.894  44.071  0.00  0.00     0.000 A 
ATOM     17  C   UNL d   1      46.532 -17.461  43.365  0.00  0.00     0.000 A 
ATOM     18  C   UNL d   1      46.006 -20.291  42.637  0.00  0.00     0.025 A 
ATOM     19  C   UNL d   1      45.968 -19.867  41.929  0.00  0.00     0.015 A 
BRANCH  15  20
ATOM     20  O   UNL d   1      46.202 -20.329  44.044  0.00  0.00    -0.328 OA
ATOM     21  C   UNL d   1      45.621 -20.232  44.613  0.00  0.00     0.181 C 
ENDBRANCH  15  20
ENDBRANCH   7  10
ENDBRANCH   1   7
BRANCH   2  22
ATOM     22  C   UNL d   1      45.876 -16.921  38.415  0.00  0.00     0.080 C 
BRANCH  22  23
ATOM     23  C   UNL d   1      45.170 -16.573  38.170  0.00  0.00     0.020 A 
ATOM     24  C   UNL d   1      45.114 -16.226  37.435  0.00  0.00     0.028 A 
ATOM     25  C   UNL d   1      44.409 -15.879  37.192  0.00  0.00     0.119 A 
ATOM     26  O   UNL d   1      44.191 -15.494  36.495  0.00  0.00    -0.300 OA
ATOM     27  C   UNL d   1      43.750 -15.884  37.701  0.00  0.00     0.119 A 
ATOM     28  C   UNL d   1      43.403 -15.262  36.571  0.00  0.00     0.304 A 
ATOM     29  O   UNL d   1      43.136 -15.502  37.311  0.00  0.00    -0.300 OA
ATOM     30  C   UNL d   1      43.812 -16.235  38.441  0.00  0.00     0.026 A 
ATOM     31  C   UNL d   1      44.511 -16.578  38.680  0.00  0.00     0.004 A 
ENDBRANCH  22  23
ENDBRANCH   2  22
TORSDOF 5
ENDMDL
