MODEL 1
REMARK VINA RESULT:      44.6      0.000      0.000
REMARK  6 active torsions:
REMARK  status: ('A' for Active; 'I' for Inactive)
REMARK       I    between atoms: C_2  and  N_1 
REMARK    1  A    between atoms: C_3  and  C_2 
REMARK    2  A    between atoms: C_12  and  C_4 
REMARK       I    between atoms: C_5  and  N_8 
REMARK    3  A    between atoms: C_6  and  C_5 
REMARK       I    between atoms: N_9  and  C_6 
REMARK    4  A    between atoms: N_8  and  C_12 
REMARK    5  A    between atoms: C_19  and  N_9 
REMARK    6  A    between atoms: C_21  and  C_19 
ROOT
ATOM      1  C   UNL d   1      44.694 -12.785  39.892  0.00  0.00     0.337 C 
ATOM      2  N   UNL d   1      44.619 -12.296  40.549  0.00  0.00    -0.199 NA
ATOM      3  O   UNL d   1      45.170 -13.467  39.931  0.00  0.00    -0.260 OA
ENDROOT
BRANCH   2   4
ATOM      4  C   UNL d   1      45.018 -12.483  41.247  0.00  0.00     0.146 C 
BRANCH   4   5
ATOM      5  C   UNL d   1      44.623 -12.412  41.979  0.00  0.00     0.190 A 
ATOM      6  N   UNL d   1      44.924 -12.667  42.703  0.00  0.00    -0.250 N 
ATOM      7  C   UNL d   1      45.638 -13.038  42.912  0.00  0.00     0.272 C 
ATOM      8  C   UNL d   1      44.352 -12.487  43.276  0.00  0.00     0.112 A 
ATOM      9  O   UNL d   1      46.199 -13.212  42.327  0.00  0.00    -0.266 OA
ATOM     10  C   UNL d   1      43.713 -12.126  42.904  0.00  0.00     0.144 A 
ATOM     11  O   UNL d   1      43.891 -12.083  42.092  0.00  0.00    -0.285 OA
BRANCH   7  12
ATOM     12  C   UNL d   1      45.791 -13.234  43.698  0.00  0.00     0.086 A 
ATOM     13  S   UNL d   1      45.632 -13.925  44.133  0.00  0.00    -0.082 SA
ATOM     14  C   UNL d   1      45.917 -13.802  44.912  0.00  0.00     0.036 A 
ATOM     15  C   UNL d   1      46.244 -13.044  44.942  0.00  0.00     0.008 A 
ATOM     16  C   UNL d   1      46.171 -12.690  44.201  0.00  0.00     0.012 A 
ENDBRANCH   7  12
ENDBRANCH   4   5
ENDBRANCH   2   4
BRANCH   1  17
ATOM     17  C   UNL d   1      44.302 -12.601  39.205  0.00  0.00     0.337 C 
ATOM     18  N   UNL d   1      44.538 -12.916  38.489  0.00  0.00    -0.202 NA
ATOM     19  O   UNL d   1      43.649 -12.083  39.229  0.00  0.00    -0.260 OA
BRANCH  18  20
ATOM     20  C   UNL d   1      45.189 -13.433  38.462  0.00  0.00     0.102 C 
BRANCH  20  21
ATOM     21  C   UNL d   1      45.177 -14.075  37.926  0.00  0.00     0.019 A 
ATOM     22  C   UNL d   1      45.713 -14.122  37.306  0.00  0.00     0.004 A 
ATOM     23  C   UNL d   1      45.688 -14.762  36.786  0.00  0.00     0.030 A 
ATOM     24  C   UNL d   1      45.135 -15.356  36.876  0.00  0.00     0.140 A 
ATOM     25  C   UNL d   1      44.594 -15.316  37.493  0.00  0.00     0.030 A 
ATOM     26  F   UNL d   1      45.117 -15.998  36.347  0.00  0.00    -0.204 F 
ATOM     27  C   UNL d   1      44.611 -14.682  38.018  0.00  0.00     0.004 A 
ENDBRANCH  20  21
ENDBRANCH  18  20
ENDBRANCH   1  17
TORSDOF 6
ENDMDL
MODEL 2
REMARK VINA RESULT:      45.1      4.731      6.864
REMARK  6 active torsions:
REMARK  status: ('A' for Active; 'I' for Inactive)
REMARK       I    between atoms: C_2  and  N_1 
REMARK    1  A    between atoms: C_3  and  C_2 
REMARK    2  A    between atoms: C_12  and  C_4 
REMARK       I    between atoms: C_5  and  N_8 
REMARK    3  A    between atoms: C_6  and  C_5 
REMARK       I    between atoms: N_9  and  C_6 
REMARK    4  A    between atoms: N_8  and  C_12 
REMARK    5  A    between atoms: C_19  and  N_9 
REMARK    6  A    between atoms: C_21  and  C_19 
ROOT
ATOM      1  C   UNL d   1      45.935 -17.735  39.730  0.00  0.00     0.337 C 
ATOM      2  N   UNL d   1      45.967 -17.349  39.005  0.00  0.00    -0.199 NA
ATOM      3  O   UNL d   1      45.668 -17.330  40.408  0.00  0.00    -0.260 OA
ENDROOT
BRANCH   2   4
ATOM      4  C   UNL d   1      45.735 -16.559  38.950  0.00  0.00     0.146 C 
BRANCH   4   5
ATOM      5  C   UNL d   1      45.804 -16.158  38.222  0.00  0.00     0.190 A 
ATOM      6  N   UNL d   1      45.170 -15.935  37.744  0.00  0.00    -0.250 N 
ATOM      7  C   UNL d   1      44.348 -16.029  37.827  0.00  0.00     0.272 C 
ATOM      8  C   UNL d   1      45.493 -15.555  37.081  0.00  0.00     0.112 A 
ATOM      9  O   UNL d   1      44.043 -16.411  38.495  0.00  0.00    -0.266 OA
ATOM     10  C   UNL d   1      46.312 -15.547  37.157  0.00  0.00     0.144 A 
ATOM     11  O   UNL d   1      46.499 -15.927  37.873  0.00  0.00    -0.285 OA
BRANCH   7  12
ATOM     12  C   UNL d   1      43.836 -15.744  37.248  0.00  0.00     0.086 A 
ATOM     13  S   UNL d   1      43.759 -14.990  36.905  0.00  0.00    -0.082 SA
ATOM     14  C   UNL d   1      43.139 -15.032  36.342  0.00  0.00     0.036 A 
ATOM     15  C   UNL d   1      42.847 -15.805  36.349  0.00  0.00     0.008 A 
ATOM     16  C   UNL d   1      43.271 -16.247  36.901  0.00  0.00     0.012 A 
ENDBRANCH   7  12
ENDBRANCH   4   5
ENDBRANCH   2   4
BRANCH   1  17
ATOM     17  C   UNL d   1      46.163 -18.512  39.785  0.00  0.00     0.337 C 
ATOM     18  N   UNL d   1      46.374 -18.839  40.503  0.00  0.00    -0.202 NA
ATOM     19  O   UNL d   1      46.183 -18.985  39.098  0.00  0.00    -0.260 OA
BRANCH  18  20
ATOM     20  C   UNL d   1      46.356 -18.371  41.190  0.00  0.00     0.102 C 
BRANCH  20  21
ATOM     21  C   UNL d   1      46.419 -18.741  41.937  0.00  0.00     0.019 A 
ATOM     22  C   UNL d   1      46.373 -18.307  42.632  0.00  0.00     0.004 A 
ATOM     23  C   UNL d   1      46.437 -18.687  43.362  0.00  0.00     0.030 A 
ATOM     24  C   UNL d   1      46.546 -19.495  43.407  0.00  0.00     0.140 A 
ATOM     25  C   UNL d   1      46.593 -19.937  42.716  0.00  0.00     0.030 A 
ATOM     26  F   UNL d   1      46.609 -19.870  44.147  0.00  0.00    -0.204 F 
ATOM     27  C   UNL d   1      46.530 -19.567  41.984  0.00  0.00     0.004 A 
ENDBRANCH  20  21
ENDBRANCH  18  20
ENDBRANCH   1  17
TORSDOF 6
ENDMDL
MODEL 3
REMARK VINA RESULT:      46.3      2.513      5.834
REMARK  6 active torsions:
REMARK  status: ('A' for Active; 'I' for Inactive)
REMARK       I    between atoms: C_2  and  N_1 
REMARK    1  A    between atoms: C_3  and  C_2 
REMARK    2  A    between atoms: C_12  and  C_4 
REMARK       I    between atoms: C_5  and  N_8 
REMARK    3  A    between atoms: C_6  and  C_5 
REMARK       I    between atoms: N_9  and  C_6 
REMARK    4  A    between atoms: N_8  and  C_12 
REMARK    5  A    between atoms: C_19  and  N_9 
REMARK    6  A    between atoms: C_21  and  C_19 
ROOT
ATOM      1  C   UNL d   1      45.333 -12.901  39.705  0.00  0.00     0.337 C 
ATOM      2  N   UNL d   1      45.226 -13.240  38.964  0.00  0.00    -0.199 NA
ATOM      3  O   UNL d   1      45.993 -13.111  40.169  0.00  0.00    -0.260 OA
ENDROOT
BRANCH   2   4
ATOM      4  C   UNL d   1      45.772 -13.789  38.681  0.00  0.00     0.146 C 
BRANCH   4   5
ATOM      5  C   UNL d   1      45.810 -13.949  37.863  0.00  0.00     0.190 A 
ATOM      6  N   UNL d   1      45.322 -14.480  37.463  0.00  0.00    -0.250 N 
ATOM      7  C   UNL d   1      44.703 -14.972  37.720  0.00  0.00     0.272 C 
ATOM      8  C   UNL d   1      45.553 -14.463  36.667  0.00  0.00     0.112 A 
ATOM      9  O   UNL d   1      44.485 -14.976  38.519  0.00  0.00    -0.266 OA
ATOM     10  C   UNL d   1      46.173 -13.929  36.584  0.00  0.00     0.144 A 
ATOM     11  O   UNL d   1      46.328 -13.611  37.338  0.00  0.00    -0.285 OA
BRANCH   7  12
ATOM     12  C   UNL d   1      44.305 -15.454  37.183  0.00  0.00     0.086 A 
ATOM     13  S   UNL d   1      44.481 -16.213  36.891  0.00  0.00    -0.082 SA
ATOM     14  C   UNL d   1      43.870 -16.424  36.356  0.00  0.00     0.036 A 
ATOM     15  C   UNL d   1      43.333 -15.796  36.330  0.00  0.00     0.008 A 
ATOM     16  C   UNL d   1      43.594 -15.199  36.835  0.00  0.00     0.012 A 
ENDBRANCH   7  12
ENDBRANCH   4   5
ENDBRANCH   2   4
BRANCH   1  17
ATOM     17  C   UNL d   1      44.795 -12.361  39.984  0.00  0.00     0.337 C 
ATOM     18  N   UNL d   1      44.835 -12.085  40.752  0.00  0.00    -0.202 NA
ATOM     19  O   UNL d   1      44.192 -12.081  39.481  0.00  0.00    -0.260 OA
BRANCH  18  20
ATOM     20  C   UNL d   1      45.436 -12.362  41.258  0.00  0.00     0.102 C 
BRANCH  20  21
ATOM     21  C   UNL d   1      45.296 -12.384  42.082  0.00  0.00     0.019 A 
ATOM     22  C   UNL d   1      44.603 -12.083  42.404  0.00  0.00     0.004 A 
ATOM     23  C   UNL d   1      44.480 -12.113  43.220  0.00  0.00     0.030 A 
ATOM     24  C   UNL d   1      45.040 -12.438  43.718  0.00  0.00     0.140 A 
ATOM     25  C   UNL d   1      45.735 -12.741  43.404  0.00  0.00     0.030 A 
ATOM     26  F   UNL d   1      44.907 -12.464  44.539  0.00  0.00    -0.204 F 
ATOM     27  C   UNL d   1      45.867 -12.717  42.592  0.00  0.00     0.004 A 
ENDBRANCH  20  21
ENDBRANCH  18  20
ENDBRANCH   1  17
TORSDOF 6
ENDMDL
