MODEL 1
REMARK VINA RESULT:      77.9      0.000      0.000
REMARK  2 active torsions:
REMARK  status: ('A' for Active; 'I' for Inactive)
REMARK       I    between atoms: C_3  and  N_1 
REMARK       I    between atoms: C_4  and  N_2 
REMARK    1  A    between atoms: C_6  and  C_3 
REMARK    2  A    between atoms: C_8  and  C_4 
ROOT
ATOM      1  N   UNL d   1     -55.078-101.384 -42.824  0.00  0.00    -0.270 N 
ATOM      2  N   UNL d   1     -54.900-101.841 -41.242  0.00  0.00    -0.269 N 
ATOM      3  C   UNL d   1     -55.167-101.157 -43.609  0.00  0.00     0.265 C 
ATOM      4  C   UNL d   1     -54.811-102.073 -40.455  0.00  0.00     0.265 C 
ATOM      5  C   UNL d   1     -54.979-102.184 -42.630  0.00  0.00     0.085 A 
ATOM      6  C   UNL d   1     -54.890-102.420 -41.847  0.00  0.00     0.101 A 
ATOM      7  C   UNL d   1     -55.087-100.818 -42.223  0.00  0.00     0.102 A 
ATOM      8  C   UNL d   1     -54.997-101.048 -41.425  0.00  0.00     0.102 A 
ATOM      9  O   UNL d   1     -55.158-101.727 -44.211  0.00  0.00    -0.267 OA
ATOM     10  O   UNL d   1     -54.711-102.877 -40.266  0.00  0.00    -0.267 OA
ATOM     11  C   UNL d   1     -54.970-102.759 -43.234  0.00  0.00     0.021 C 
ENDROOT
BRANCH   3  12
ATOM     12  C   UNL d   1     -55.265-100.362 -43.800  0.00  0.00     0.057 A 
ATOM     13  C   UNL d   1     -55.915-100.122 -44.250  0.00  0.00     0.005 A 
ATOM     14  C   UNL d   1     -56.014 -99.326 -44.441  0.00  0.00     0.000 A 
ATOM     15  C   UNL d   1     -56.664 -99.086 -44.891  0.00  0.00     0.000 C 
ATOM     16  C   UNL d   1     -55.463 -98.770 -44.182  0.00  0.00     0.000 A 
ATOM     17  C   UNL d   1     -54.807 -99.013 -43.727  0.00  0.00     0.000 A 
ATOM     18  C   UNL d   1     -54.715 -99.805 -43.541  0.00  0.00     0.005 A 
ENDBRANCH   3  12
BRANCH   4  19
ATOM     19  C   UNL d   1     -54.820-101.506 -39.857  0.00  0.00     0.057 A 
ATOM     20  C   UNL d   1     -54.937-101.741 -39.074  0.00  0.00     0.005 A 
ATOM     21  C   UNL d   1     -54.947-101.174 -38.477  0.00  0.00     0.000 A 
ATOM     22  C   UNL d   1     -55.064-101.401 -37.691  0.00  0.00     0.000 C 
ATOM     23  C   UNL d   1     -54.839-100.370 -38.662  0.00  0.00     0.000 A 
ATOM     24  C   UNL d   1     -54.723-100.141 -39.439  0.00  0.00     0.000 A 
ATOM     25  C   UNL d   1     -54.712-100.711 -40.045  0.00  0.00     0.005 A 
ENDBRANCH   4  19
TORSDOF 2
ENDMDL
