MODEL 1
REMARK VINA RESULT:      11.0      0.000      0.000
REMARK  1 active torsions:
REMARK  status: ('A' for Active; 'I' for Inactive)
REMARK    1  A    between atoms: C_6  and  N_1 
ROOT
ATOM      1  C   UNL d   1      58.581  49.694  50.445  0.00  0.00     0.086 A 
ATOM      2  C   UNL d   1      58.278  49.681  49.684  0.00  0.00     0.023 A 
ATOM      3  C   UNL d   1      58.072  49.707  51.095  0.00  0.00     0.023 A 
ATOM      4  C   UNL d   1      56.954  49.695  50.207  0.00  0.00     0.196 A 
ATOM      5  C   UNL d   1      57.256  49.708  50.976  0.00  0.00     0.044 A 
ATOM      6  C   UNL d   1      57.462  49.682  49.565  0.00  0.00     0.044 A 
ATOM      7  O   UNL d   1      56.141  49.695  50.088  0.00  0.00    -0.287 OA
ENDROOT
BRANCH   1   8
ATOM      8  N   UNL d   1      59.390  49.694  50.560  0.00  0.00    -0.189 N 
ATOM      9  N   UNL d   1      59.967  49.707  49.969  0.00  0.00    -0.038 NA
ATOM     10  N   UNL d   1      60.706  49.701  50.337  0.00  0.00    -0.022 NA
ATOM     11  N   UNL d   1      60.588  49.684  51.141  0.00  0.00    -0.104 NA
ATOM     12  C   UNL d   1      59.774  49.680  51.286  0.00  0.00     0.226 A 
ENDBRANCH   1   8
TORSDOF 1
ENDMDL
