MODEL 1
REMARK VINA RESULT:      70.8      0.000      0.000
REMARK  3 active torsions:
REMARK  status: ('A' for Active; 'I' for Inactive)
REMARK    1  A    between atoms: C_13  and  N_6 
REMARK    2  A    between atoms: C_16  and  C_10 
REMARK    3  A    between atoms: O_19  and  C_17 
ROOT
ATOM      1  C   UNL d   1      45.686 -16.807  42.996  0.00  0.00     0.722 A 
ATOM      2  C   UNL d   1      45.603 -15.484  42.980  0.00  0.00     0.191 A 
ATOM      3  N   UNL d   1      45.422 -16.154  42.560  0.00  0.00    -0.042 NA
ATOM      4  N   UNL d   1      46.024 -16.524  43.674  0.00  0.00    -0.131 N 
ATOM      5  C   UNL d   1      45.978 -15.714  43.673  0.00  0.00     0.174 A 
ATOM      6  N   UNL d   1      45.731 -17.630  42.993  0.00  0.00    -0.138 N 
ATOM      7  N   UNL d   1      45.478 -14.689  42.825  0.00  0.00    -0.239 N 
ATOM      8  C   UNL d   1      45.728 -14.112  43.369  0.00  0.00     0.358 A 
ATOM      9  N   UNL d   1      46.103 -14.343  44.062  0.00  0.00    -0.152 NA
ATOM     10  C   UNL d   1      46.093 -17.865  43.662  0.00  0.00     0.100 A 
ATOM     11  C   UNL d   1      46.233 -15.154  44.223  0.00  0.00     0.303 A 
ATOM     12  C   UNL d   1      46.286 -17.190  44.106  0.00  0.00     0.116 A 
ATOM     13  O   UNL d   1      45.603 -13.316  43.214  0.00  0.00    -0.244 OA
ATOM     14  O   UNL d   1      46.602 -15.381  44.907  0.00  0.00    -0.263 OA
ATOM     15  C   UNL d   1      45.109 -14.461  42.142  0.00  0.00     0.105 C 
ENDROOT
BRANCH   6  16
ATOM     16  C   UNL d   1      45.446 -18.122  42.393  0.00  0.00     0.103 A 
ATOM     17  C   UNL d   1      45.892 -18.240  41.705  0.00  0.00     0.111 A 
ATOM     18  C   UNL d   1      45.612 -18.723  41.120  0.00  0.00     0.026 A 
ATOM     19  C   UNL d   1      44.886 -19.100  41.196  0.00  0.00     0.002 A 
ATOM     20  C   UNL d   1      44.441 -18.981  41.884  0.00  0.00     0.002 A 
ATOM     21  C   UNL d   1      44.725 -18.489  42.484  0.00  0.00     0.020 A 
BRANCH  17  22
ATOM     22  O   UNL d   1      46.600 -18.022  41.358  0.00  0.00    -0.327 OA
ATOM     23  C   UNL d   1      46.644 -17.866  40.550  0.00  0.00     0.181 C 
ENDBRANCH  17  22
ENDBRANCH   6  16
BRANCH  10  24
ATOM     24  C   UNL d   1      46.256 -18.646  43.889  0.00  0.00     0.018 A 
ATOM     25  C   UNL d   1      46.360 -18.839  44.685  0.00  0.00     0.002 A 
ATOM     26  C   UNL d   1      46.519 -19.605  44.905  0.00  0.00     0.000 A 
ATOM     27  C   UNL d   1      46.578 -20.204  44.333  0.00  0.00     0.000 A 
ATOM     28  C   UNL d   1      46.474 -20.011  43.537  0.00  0.00     0.000 A 
ATOM     29  C   UNL d   1      46.311 -19.229  43.310  0.00  0.00     0.002 A 
ENDBRANCH  10  24
TORSDOF 3
ENDMDL
