MODEL 1
REMARK VINA RESULT:      30.9      0.000      0.000
REMARK  2 active torsions:
REMARK  status: ('A' for Active; 'I' for Inactive)
REMARK    1  A    between atoms: C_4  and  C_1 
REMARK    2  A    between atoms: C_2  and  C_7 
ROOT
ATOM      1  C   UNL d   1      59.269  49.374  50.978  0.00  0.00     0.003 A 
ATOM      2  C   UNL d   1      60.595  48.850  50.894  0.00  0.00     0.071 A 
ATOM      3  C   UNL d   1      59.848  48.948  50.564  0.00  0.00     0.004 A 
ATOM      4  C   UNL d   1      59.435  49.696  51.712  0.00  0.00     0.000 A 
ATOM      5  C   UNL d   1      60.770  49.172  51.636  0.00  0.00     0.004 A 
ATOM      6  C   UNL d   1      60.183  49.599  52.046  0.00  0.00    -0.000 A 
ENDROOT
BRANCH   1   7
ATOM      7  C   UNL d   1      58.521  49.471  50.643  0.00  0.00     0.042 A 
ATOM      8  C   UNL d   1      57.847  49.431  51.120  0.00  0.00     0.045 A 
ATOM      9  C   UNL d   1      57.099  49.528  50.786  0.00  0.00     0.196 A 
ATOM     10  O   UNL d   1      56.424  49.488  51.262  0.00  0.00    -0.287 OA
ATOM     11  C   UNL d   1      57.025  49.665  49.976  0.00  0.00     0.045 A 
ATOM     12  C   UNL d   1      57.700  49.705  49.499  0.00  0.00     0.045 A 
ATOM     13  C   UNL d   1      58.447  49.608  49.833  0.00  0.00     0.196 A 
ATOM     14  O   UNL d   1      59.122  49.647  49.357  0.00  0.00    -0.287 OA
ENDBRANCH   1   7
BRANCH   2  15
ATOM     15  C   UNL d   1      61.175  48.428  50.487  0.00  0.00     0.419 C 
ATOM     16  F   UNL d   1      61.704  48.045  50.115  0.00  0.00    -0.166 F 
ATOM     17  F   UNL d   1      61.315  47.577  50.460  0.00  0.00    -0.166 F 
ATOM     18  F   UNL d   1      61.810  48.721  49.970  0.00  0.00    -0.166 F 
ENDBRANCH   2  15
TORSDOF 2
ENDMDL
