MODEL 1
REMARK VINA RESULT:      -3.7      0.000      0.000
REMARK  6 active torsions:
REMARK  status: ('A' for Active; 'I' for Inactive)
REMARK    1  A    between atoms: C_5  and  N_1 
REMARK    2  A    between atoms: C_10  and  C_4 
REMARK    3  A    between atoms: C_6  and  S_13 
REMARK    4  A    between atoms: C_8  and  C_11 
REMARK    5  A    between atoms: C_14  and  C_8 
REMARK    6  A    between atoms: S_13  and  C_14 
ROOT
ATOM      1  S   UNL d   1      33.241  19.176 -23.151  0.00  0.00    -0.062 SA
ENDROOT
BRANCH   1   2
ATOM      2  C   UNL d   1      33.173  19.824 -22.632  0.00  0.00     0.133 A 
ATOM      3  N   UNL d   1      33.210  20.601 -22.929  0.00  0.00    -0.141 NA
ATOM      4  N   UNL d   1      33.142  21.243 -22.412  0.00  0.00    -0.146 NA
ATOM      5  C   UNL d   1      33.039  21.115 -21.606  0.00  0.00     0.121 A 
ATOM      6  C   UNL d   1      33.003  20.337 -21.310  0.00  0.00     0.025 A 
ATOM      7  C   UNL d   1      33.069  19.696 -21.821  0.00  0.00     0.029 A 
BRANCH   5   8
ATOM      8  C   UNL d   1      32.972  21.755 -21.093  0.00  0.00     0.101 A 
ATOM      9  N   UNL d   1      33.241  21.691 -20.316  0.00  0.00    -0.242 NA
ATOM     10  C   UNL d   1      33.175  22.331 -19.802  0.00  0.00     0.099 A 
ATOM     11  C   UNL d   1      32.836  23.047 -20.064  0.00  0.00     0.021 A 
ATOM     12  C   UNL d   1      32.567  23.111 -20.842  0.00  0.00     0.003 A 
ATOM     13  C   UNL d   1      32.635  22.467 -21.355  0.00  0.00     0.021 A 
ENDBRANCH   5   8
ENDBRANCH   1   2
BRANCH   1  14
ATOM     14  C   UNL d   1      32.629  18.612 -23.196  0.00  0.00     0.079 C 
BRANCH  14  15
ATOM     15  C   UNL d   1      32.616  18.065 -23.811  0.00  0.00     0.202 C 
ATOM     16  O   UNL d   1      33.227  18.056 -24.364  0.00  0.00    -0.286 OA
BRANCH  15  17
ATOM     17  C   UNL d   1      31.991  17.524 -23.873  0.00  0.00     0.040 A 
ATOM     18  C   UNL d   1      31.307  17.729 -24.284  0.00  0.00     0.005 A 
ATOM     19  C   UNL d   1      30.685  17.191 -24.346  0.00  0.00     0.024 A 
ATOM     20  C   UNL d   1      30.747  16.447 -23.997  0.00  0.00     0.127 A 
ATOM     21  C   UNL d   1      31.430  16.242 -23.587  0.00  0.00     0.024 A 
ATOM     22  C   UNL d   1      32.052  16.781 -23.525  0.00  0.00     0.005 A 
BRANCH  20  23
ATOM     23  N   UNL d   1      30.125  15.909 -24.059  0.00  0.00    -0.114 N 
ATOM     24  O   UNL d   1      29.792  15.746 -24.795  0.00  0.00    -0.532 OA
ATOM     25  O   UNL d   1      29.835  15.533 -23.379  0.00  0.00    -0.532 OA
ENDBRANCH  20  23
ENDBRANCH  15  17
ENDBRANCH  14  15
ENDBRANCH   1  14
TORSDOF 6
ENDMDL
MODEL 2
REMARK VINA RESULT:      -3.0      0.774      1.155
REMARK  6 active torsions:
REMARK  status: ('A' for Active; 'I' for Inactive)
REMARK    1  A    between atoms: C_5  and  N_1 
REMARK    2  A    between atoms: C_10  and  C_4 
REMARK    3  A    between atoms: C_6  and  S_13 
REMARK    4  A    between atoms: C_8  and  C_11 
REMARK    5  A    between atoms: C_14  and  C_8 
REMARK    6  A    between atoms: S_13  and  C_14 
ROOT
ATOM      1  S   UNL d   1      33.236  20.181 -23.139  0.00  0.00    -0.062 SA
ENDROOT
BRANCH   1   2
ATOM      2  C   UNL d   1      33.170  20.695 -22.487  0.00  0.00     0.133 A 
ATOM      3  N   UNL d   1      33.138  21.518 -22.606  0.00  0.00    -0.141 NA
ATOM      4  N   UNL d   1      33.073  22.027 -21.958  0.00  0.00    -0.146 NA
ATOM      5  C   UNL d   1      33.039  21.720 -21.195  0.00  0.00     0.121 A 
ATOM      6  C   UNL d   1      33.071  20.896 -21.075  0.00  0.00     0.025 A 
ATOM      7  C   UNL d   1      33.136  20.387 -21.719  0.00  0.00     0.029 A 
BRANCH   5   8
ATOM      8  C   UNL d   1      32.974  22.228 -20.550  0.00  0.00     0.101 A 
ATOM      9  N   UNL d   1      33.241  21.988 -19.807  0.00  0.00    -0.242 NA
ATOM     10  C   UNL d   1      33.176  22.495 -19.162  0.00  0.00     0.099 A 
ATOM     11  C   UNL d   1      32.841  23.253 -19.255  0.00  0.00     0.021 A 
ATOM     12  C   UNL d   1      32.574  23.493 -19.998  0.00  0.00     0.003 A 
ATOM     13  C   UNL d   1      32.640  22.982 -20.644  0.00  0.00     0.021 A 
ENDBRANCH   5   8
ENDBRANCH   1   2
BRANCH   1  14
ATOM     14  C   UNL d   1      32.901  19.419 -23.105  0.00  0.00     0.079 C 
BRANCH  14  15
ATOM     15  C   UNL d   1      32.871  18.950 -23.781  0.00  0.00     0.202 C 
ATOM     16  O   UNL d   1      33.241  19.204 -24.472  0.00  0.00    -0.286 OA
BRANCH  15  17
ATOM     17  C   UNL d   1      32.470  18.225 -23.767  0.00  0.00     0.040 A 
ATOM     18  C   UNL d   1      32.790  17.584 -23.360  0.00  0.00     0.005 A 
ATOM     19  C   UNL d   1      32.390  16.862 -23.347  0.00  0.00     0.024 A 
ATOM     20  C   UNL d   1      31.671  16.781 -23.739  0.00  0.00     0.127 A 
ATOM     21  C   UNL d   1      31.351  17.421 -24.145  0.00  0.00     0.024 A 
ATOM     22  C   UNL d   1      31.751  18.143 -24.159  0.00  0.00     0.005 A 
BRANCH  20  23
ATOM     23  N   UNL d   1      31.272  16.060 -23.725  0.00  0.00    -0.114 N 
ATOM     24  O   UNL d   1      30.994  15.755 -23.012  0.00  0.00    -0.532 OA
ATOM     25  O   UNL d   1      31.150  15.641 -24.432  0.00  0.00    -0.532 OA
ENDBRANCH  20  23
ENDBRANCH  15  17
ENDBRANCH  14  15
ENDBRANCH   1  14
TORSDOF 6
ENDMDL
MODEL 3
REMARK VINA RESULT:      -1.5      2.601      5.958
REMARK  6 active torsions:
REMARK  status: ('A' for Active; 'I' for Inactive)
REMARK    1  A    between atoms: C_5  and  N_1 
REMARK    2  A    between atoms: C_10  and  C_4 
REMARK    3  A    between atoms: C_6  and  S_13 
REMARK    4  A    between atoms: C_8  and  C_11 
REMARK    5  A    between atoms: C_14  and  C_8 
REMARK    6  A    between atoms: S_13  and  C_14 
ROOT
ATOM      1  S   UNL d   1      32.955  20.430 -23.278  0.00  0.00    -0.062 SA
ENDROOT
BRANCH   1   2
ATOM      2  C   UNL d   1      32.954  19.603 -23.372  0.00  0.00     0.133 A 
ATOM      3  N   UNL d   1      32.750  19.111 -22.731  0.00  0.00    -0.141 NA
ATOM      4  N   UNL d   1      32.749  18.289 -22.827  0.00  0.00    -0.146 NA
ATOM      5  C   UNL d   1      32.950  17.959 -23.553  0.00  0.00     0.121 A 
ATOM      6  C   UNL d   1      33.154  18.451 -24.193  0.00  0.00     0.025 A 
ATOM      7  C   UNL d   1      33.155  19.269 -24.101  0.00  0.00     0.029 A 
BRANCH   5   8
ATOM      8  C   UNL d   1      32.949  17.140 -23.646  0.00  0.00     0.101 A 
ATOM      9  N   UNL d   1      32.667  16.805 -24.345  0.00  0.00    -0.242 NA
ATOM     10  C   UNL d   1      32.666  15.987 -24.440  0.00  0.00     0.099 A 
ATOM     11  C   UNL d   1      32.948  15.494 -23.829  0.00  0.00     0.021 A 
ATOM     12  C   UNL d   1      33.230  15.829 -23.130  0.00  0.00     0.003 A 
ATOM     13  C   UNL d   1      33.230  16.650 -23.038  0.00  0.00     0.021 A 
ENDBRANCH   5   8
ENDBRANCH   1   2
BRANCH   1  14
ATOM     14  C   UNL d   1      33.195  20.768 -22.555  0.00  0.00     0.079 C 
BRANCH  14  15
ATOM     15  C   UNL d   1      33.188  21.585 -22.458  0.00  0.00     0.202 C 
ATOM     16  O   UNL d   1      33.241  22.076 -23.117  0.00  0.00    -0.286 OA
BRANCH  15  17
ATOM     17  C   UNL d   1      33.127  21.913 -21.699  0.00  0.00     0.040 A 
ATOM     18  C   UNL d   1      32.953  21.432 -21.053  0.00  0.00     0.005 A 
ATOM     19  C   UNL d   1      32.892  21.759 -20.298  0.00  0.00     0.024 A 
ATOM     20  C   UNL d   1      33.006  22.567 -20.189  0.00  0.00     0.127 A 
ATOM     21  C   UNL d   1      33.181  23.048 -20.833  0.00  0.00     0.024 A 
ATOM     22  C   UNL d   1      33.241  22.721 -21.588  0.00  0.00     0.005 A 
BRANCH  20  23
ATOM     23  N   UNL d   1      32.946  22.893 -19.434  0.00  0.00    -0.114 N 
ATOM     24  O   UNL d   1      32.610  23.639 -19.332  0.00  0.00    -0.532 OA
ATOM     25  O   UNL d   1      33.225  22.470 -18.777  0.00  0.00    -0.532 OA
ENDBRANCH  20  23
ENDBRANCH  15  17
ENDBRANCH  14  15
ENDBRANCH   1  14
TORSDOF 6
ENDMDL
