MODEL 1
REMARK VINA RESULT:      19.8      0.000      0.000
REMARK  5 active torsions:
REMARK  status: ('A' for Active; 'I' for Inactive)
REMARK    1  A    between atoms: N_2  and  S_1 
REMARK    2  A    between atoms: C_4  and  S_1 
REMARK    3  A    between atoms: C_3  and  N_2 
REMARK    4  A    between atoms: N_7  and  C_3 
REMARK    5  A    between atoms: C_15  and  N_7 
ROOT
ATOM      1  S   UNL d   1     -56.615 -98.777 -44.556  0.00  0.00     0.287 S 
ATOM      2  O   UNL d   1     -56.590 -98.784 -43.722  0.00  0.00    -0.198 OA
ATOM      3  O   UNL d   1     -56.641 -98.769 -45.381  0.00  0.00    -0.198 OA
ENDROOT
BRANCH   1   4
ATOM      4  N   UNL d   1     -55.787 -98.779 -44.581  0.00  0.00    -0.128 NA
BRANCH   4   5
ATOM      5  C   UNL d   1     -55.074 -99.104 -44.327  0.00  0.00     0.232 C 
ATOM      6  S   UNL d   1     -54.725 -98.841 -43.628  0.00  0.00    -0.036 SA
BRANCH   5   7
ATOM      7  N   UNL d   1     -54.711 -99.694 -44.774  0.00  0.00    -0.217 NA
BRANCH   7   8
ATOM      8  C   UNL d   1     -54.735-100.476 -44.513  0.00  0.00     0.084 A 
ATOM      9  C   UNL d   1     -54.723-101.089 -45.063  0.00  0.00     0.019 A 
ATOM     10  C   UNL d   1     -54.747-101.870 -44.806  0.00  0.00     0.002 A 
ATOM     11  C   UNL d   1     -54.783-102.039 -44.003  0.00  0.00     0.000 A 
ATOM     12  C   UNL d   1     -54.795-101.427 -43.454  0.00  0.00     0.002 A 
ATOM     13  C   UNL d   1     -54.771-100.645 -43.706  0.00  0.00     0.019 A 
ENDBRANCH   7   8
ENDBRANCH   5   7
ENDBRANCH   4   5
ENDBRANCH   1   4
BRANCH   1  14
ATOM     14  C   UNL d   1     -57.449 -98.774 -44.530  0.00  0.00     0.105 A 
ATOM     15  C   UNL d   1     -57.877 -98.758 -45.235  0.00  0.00     0.013 A 
ATOM     16  C   UNL d   1     -58.711 -98.755 -45.216  0.00  0.00     0.007 A 
ATOM     17  C   UNL d   1     -59.110 -98.769 -44.485  0.00  0.00     0.035 A 
ATOM     18  C   UNL d   1     -58.673 -98.785 -43.780  0.00  0.00     0.007 A 
ATOM     19 BR   UNL d   1     -59.935 -98.766 -44.471  0.00  0.00    -0.049 Br
ATOM     20  C   UNL d   1     -57.849 -98.788 -43.798  0.00  0.00     0.013 A 
ENDBRANCH   1  14
TORSDOF 5
ENDMDL
