MODEL 1
REMARK VINA RESULT:      -4.3      0.000      0.000
REMARK  6 active torsions:
REMARK  status: ('A' for Active; 'I' for Inactive)
REMARK    1  A    between atoms: N_3  and  C_1 
REMARK    2  A    between atoms: C_4  and  C_2 
REMARK       I    between atoms: C_6  and  N_3 
REMARK    3  A    between atoms: C_11  and  C_6 
REMARK    4  A    between atoms: C_13  and  C_11 
REMARK    5  A    between atoms: O_19  and  C_14 
REMARK    6  A    between atoms: C_20  and  O_19 
ROOT
ATOM      1  N   UNL d   1      56.505   0.192  32.244  0.00  0.00    -0.201 NA
ATOM      2  C   UNL d   1      57.003   0.049  31.603  0.00  0.00     0.280 C 
ATOM      3  O   UNL d   1      57.166  -0.735  31.368  0.00  0.00    -0.265 OA
ENDROOT
BRANCH   2   4
ATOM      4  C   UNL d   1      57.343   0.681  31.191  0.00  0.00     0.062 C 
BRANCH   4   5
ATOM      5  C   UNL d   1      57.956   0.538  30.646  0.00  0.00     0.005 A 
ATOM      6  C   UNL d   1      57.780   0.271  29.885  0.00  0.00     0.002 A 
ATOM      7  C   UNL d   1      58.391   0.130  29.349  0.00  0.00     0.025 A 
ATOM      8  C   UNL d   1      59.188   0.258  29.576  0.00  0.00     0.100 A 
ATOM      9  C   UNL d   1      59.356   0.523  30.334  0.00  0.00     0.025 A 
ATOM     10  C   UNL d   1      58.754   0.665  30.874  0.00  0.00     0.002 A 
BRANCH   8  11
ATOM     11  O   UNL d   1      59.794   0.112  29.025  0.00  0.00    -0.305 OA
BRANCH  11  12
ATOM     12  C   UNL d   1      60.313  -0.518  29.117  0.00  0.00     0.123 C 
ATOM     13  C   UNL d   1      60.820  -0.739  28.511  0.00  0.00     0.029 C 
ENDBRANCH  11  12
ENDBRANCH   8  11
ENDBRANCH   4   5
ENDBRANCH   2   4
BRANCH   1  14
ATOM     14  C   UNL d   1      56.166  -0.447  32.654  0.00  0.00     0.119 A 
ATOM     15  C   UNL d   1      55.660  -0.378  33.301  0.00  0.00     0.084 A 
ATOM     16  C   UNL d   1      55.453  -1.139  33.540  0.00  0.00     0.014 A 
ATOM     17  C   UNL d   1      55.835  -1.687  33.037  0.00  0.00     0.037 A 
ATOM     18  S   UNL d   1      56.273  -1.242  32.494  0.00  0.00    -0.067 SA
BRANCH  15  19
ATOM     19  C   UNL d   1      55.395   0.324  33.660  0.00  0.00     0.299 C 
ATOM     20  O   UNL d   1      55.825   0.682  34.256  0.00  0.00    -0.264 OA
ATOM     21  N   UNL d   1      54.681   0.662  33.404  0.00  0.00    -0.102 N 
ENDBRANCH  15  19
ENDBRANCH   1  14
TORSDOF 6
ENDMDL
MODEL 2
REMARK VINA RESULT:      -3.6      1.261      1.508
REMARK  6 active torsions:
REMARK  status: ('A' for Active; 'I' for Inactive)
REMARK    1  A    between atoms: N_3  and  C_1 
REMARK    2  A    between atoms: C_4  and  C_2 
REMARK       I    between atoms: C_6  and  N_3 
REMARK    3  A    between atoms: C_11  and  C_6 
REMARK    4  A    between atoms: C_13  and  C_11 
REMARK    5  A    between atoms: O_19  and  C_14 
REMARK    6  A    between atoms: C_20  and  O_19 
ROOT
ATOM      1  N   UNL d   1      56.893   0.218  31.906  0.00  0.00    -0.201 NA
ATOM      2  C   UNL d   1      57.503   0.398  31.382  0.00  0.00     0.280 C 
ATOM      3  O   UNL d   1      58.233   0.682  31.672  0.00  0.00    -0.265 OA
ENDROOT
BRANCH   2   4
ATOM      4  C   UNL d   1      57.395   0.299  30.567  0.00  0.00     0.062 C 
BRANCH   4   5
ATOM      5  C   UNL d   1      57.994  -0.055  30.110  0.00  0.00     0.005 A 
ATOM      6  C   UNL d   1      58.518   0.416  29.680  0.00  0.00     0.002 A 
ATOM      7  C   UNL d   1      59.111   0.061  29.228  0.00  0.00     0.025 A 
ATOM      8  C   UNL d   1      59.180  -0.774  29.206  0.00  0.00     0.100 A 
ATOM      9  C   UNL d   1      58.656  -1.236  29.637  0.00  0.00     0.025 A 
ATOM     10  C   UNL d   1      58.064  -0.890  30.089  0.00  0.00     0.002 A 
BRANCH   8  11
ATOM     11  O   UNL d   1      59.783  -1.119  28.746  0.00  0.00    -0.305 OA
BRANCH  11  12
ATOM     12  C   UNL d   1      60.313  -1.655  29.071  0.00  0.00     0.123 C 
ATOM     13  C   UNL d   1      61.111  -1.627  28.877  0.00  0.00     0.029 C 
ENDBRANCH  11  12
ENDBRANCH   8  11
ENDBRANCH   4   5
ENDBRANCH   2   4
BRANCH   1  14
ATOM     14  C   UNL d   1      57.008   0.319  32.723  0.00  0.00     0.119 A 
ATOM     15  C   UNL d   1      56.486   0.066  33.309  0.00  0.00     0.084 A 
ATOM     16  C   UNL d   1      56.807   0.275  34.039  0.00  0.00     0.014 A 
ATOM     17  C   UNL d   1      57.537   0.662  33.905  0.00  0.00     0.037 A 
ATOM     18  S   UNL d   1      57.646   0.681  33.086  0.00  0.00    -0.067 SA
BRANCH  15  19
ATOM     19  C   UNL d   1      55.762  -0.329  33.201  0.00  0.00     0.299 C 
ATOM     20  O   UNL d   1      55.058   0.083  33.158  0.00  0.00    -0.264 OA
ATOM     21  N   UNL d   1      55.762  -1.158  33.136  0.00  0.00    -0.102 N 
ENDBRANCH  15  19
ENDBRANCH   1  14
TORSDOF 6
ENDMDL
MODEL 3
REMARK VINA RESULT:      -2.4      2.290      4.755
REMARK  6 active torsions:
REMARK  status: ('A' for Active; 'I' for Inactive)
REMARK    1  A    between atoms: N_3  and  C_1 
REMARK    2  A    between atoms: C_4  and  C_2 
REMARK       I    between atoms: C_6  and  N_3 
REMARK    3  A    between atoms: C_11  and  C_6 
REMARK    4  A    between atoms: C_13  and  C_11 
REMARK    5  A    between atoms: O_19  and  C_14 
REMARK    6  A    between atoms: C_20  and  O_19 
ROOT
ATOM      1  N   UNL d   1      59.303  -0.700  29.295  0.00  0.00    -0.201 NA
ATOM      2  C   UNL d   1      59.551   0.054  29.520  0.00  0.00     0.280 C 
ATOM      3  O   UNL d   1      60.366   0.216  29.607  0.00  0.00    -0.265 OA
ENDROOT
BRANCH   2   4
ATOM      4  C   UNL d   1      58.996   0.651  29.660  0.00  0.00     0.062 C 
BRANCH   4   5
ATOM      5  C   UNL d   1      58.550   0.645  30.363  0.00  0.00     0.005 A 
ATOM      6  C   UNL d   1      58.931   0.682  31.094  0.00  0.00     0.002 A 
ATOM      7  C   UNL d   1      58.486   0.676  31.789  0.00  0.00     0.025 A 
ATOM      8  C   UNL d   1      57.649   0.633  31.752  0.00  0.00     0.100 A 
ATOM      9  C   UNL d   1      57.277   0.597  31.022  0.00  0.00     0.025 A 
ATOM     10  C   UNL d   1      57.713   0.602  30.326  0.00  0.00     0.002 A 
BRANCH   8  11
ATOM     11  O   UNL d   1      57.212   0.628  32.461  0.00  0.00    -0.305 OA
BRANCH  11  12
ATOM     12  C   UNL d   1      56.568   0.129  32.561  0.00  0.00     0.123 C 
ATOM     13  C   UNL d   1      56.146   0.122  33.266  0.00  0.00     0.029 C 
ENDBRANCH  11  12
ENDBRANCH   8  11
ENDBRANCH   4   5
ENDBRANCH   2   4
BRANCH   1  14
ATOM     14  C   UNL d   1      59.866  -1.295  29.156  0.00  0.00     0.119 A 
ATOM     15  C   UNL d   1      59.699  -2.101  29.109  0.00  0.00     0.084 A 
ATOM     16  C   UNL d   1      60.408  -2.496  28.965  0.00  0.00     0.014 A 
ATOM     17  C   UNL d   1      61.022  -1.930  28.923  0.00  0.00     0.037 A 
ATOM     18  S   UNL d   1      60.670  -1.192  29.043  0.00  0.00    -0.067 SA
BRANCH  15  19
ATOM     19  C   UNL d   1      58.956  -2.467  29.189  0.00  0.00     0.299 C 
ATOM     20  O   UNL d   1      58.676  -2.699  29.921  0.00  0.00    -0.264 OA
ATOM     21  N   UNL d   1      58.495  -2.595  28.509  0.00  0.00    -0.102 N 
ENDBRANCH  15  19
ENDBRANCH   1  14
TORSDOF 6
ENDMDL
MODEL 4
REMARK VINA RESULT:      -1.9      9.084      9.745
REMARK  6 active torsions:
REMARK  status: ('A' for Active; 'I' for Inactive)
REMARK    1  A    between atoms: N_3  and  C_1 
REMARK    2  A    between atoms: C_4  and  C_2 
REMARK       I    between atoms: C_6  and  N_3 
REMARK    3  A    between atoms: C_11  and  C_6 
REMARK    4  A    between atoms: C_13  and  C_11 
REMARK    5  A    between atoms: O_19  and  C_14 
REMARK    6  A    between atoms: C_20  and  O_19 
ROOT
ATOM      1  N   UNL d   1      59.040  -9.008  34.510  0.00  0.00    -0.201 NA
ATOM      2  C   UNL d   1      59.093  -9.535  33.878  0.00  0.00     0.280 C 
ATOM      3  O   UNL d   1      59.841  -9.789  33.608  0.00  0.00    -0.265 OA
ENDROOT
BRANCH   2   4
ATOM      4  C   UNL d   1      58.406  -9.812  33.509  0.00  0.00     0.062 C 
BRANCH   4   5
ATOM      5  C   UNL d   1      58.346  -9.794  32.679  0.00  0.00     0.005 A 
ATOM      6  C   UNL d   1      59.027  -9.818  32.214  0.00  0.00     0.002 A 
ATOM      7  C   UNL d   1      58.963  -9.799  31.392  0.00  0.00     0.025 A 
ATOM      8  C   UNL d   1      58.208  -9.757  31.029  0.00  0.00     0.100 A 
ATOM      9  C   UNL d   1      57.535  -9.733  31.498  0.00  0.00     0.025 A 
ATOM     10  C   UNL d   1      57.590  -9.751  32.317  0.00  0.00     0.002 A 
BRANCH   8  11
ATOM     11  O   UNL d   1      58.158  -9.739  30.199  0.00  0.00    -0.305 OA
BRANCH  11  12
ATOM     12  C   UNL d   1      57.433  -9.708  29.816  0.00  0.00     0.123 C 
ATOM     13  C   UNL d   1      57.377  -9.449  29.039  0.00  0.00     0.029 C 
ENDBRANCH  11  12
ENDBRANCH   8  11
ENDBRANCH   4   5
ENDBRANCH   2   4
BRANCH   1  14
ATOM     14  C   UNL d   1      59.734  -8.733  34.876  0.00  0.00     0.119 A 
ATOM     15  C   UNL d   1      59.771  -8.102  35.406  0.00  0.00     0.084 A 
ATOM     16  C   UNL d   1      60.557  -8.013  35.636  0.00  0.00     0.014 A 
ATOM     17  C   UNL d   1      61.014  -8.595  35.247  0.00  0.00     0.037 A 
ATOM     18  S   UNL d   1      60.490  -9.032  34.780  0.00  0.00    -0.067 SA
BRANCH  15  19
ATOM     19  C   UNL d   1      59.138  -7.629  35.669  0.00  0.00     0.299 C 
ATOM     20  O   UNL d   1      59.046  -6.862  35.404  0.00  0.00    -0.264 OA
ATOM     21  N   UNL d   1      58.597  -7.949  36.212  0.00  0.00    -0.102 N 
ENDBRANCH  15  19
ENDBRANCH   1  14
TORSDOF 6
ENDMDL
