MODEL 1
REMARK VINA RESULT:      -8.9      0.000      0.000
REMARK  3 active torsions:
REMARK  status: ('A' for Active; 'I' for Inactive)
REMARK    1  A    between atoms: C_6  and  N_1 
REMARK    2  A    between atoms: C_11  and  C_6 
REMARK    3  A    between atoms: C_9  and  C_11 
ROOT
ATOM      1  N   UNL d   1      52.532  33.927  53.419  0.00  0.00    -0.240 N 
ATOM      2  C   UNL d   1      52.898  33.193  53.448  0.00  0.00     0.267 A 
ATOM      3  C   UNL d   1      52.915  34.416  53.960  0.00  0.00     0.267 A 
ATOM      4  C   UNL d   1      53.504  33.226  54.003  0.00  0.00     0.061 A 
ATOM      5  C   UNL d   1      53.514  33.987  54.321  0.00  0.00     0.061 A 
ATOM      6  O   UNL d   1      52.667  32.527  52.971  0.00  0.00    -0.267 OA
ATOM      7  O   UNL d   1      52.704  35.212  54.094  0.00  0.00    -0.267 OA
ATOM      8  C   UNL d   1      54.055  34.175  54.881  0.00  0.00     0.005 A 
ATOM      9  C   UNL d   1      54.034  32.665  54.250  0.00  0.00     0.005 A 
ATOM     10  C   UNL d   1      54.597  32.864  54.834  0.00  0.00     0.000 A 
ATOM     11  C   UNL d   1      54.607  33.625  55.152  0.00  0.00     0.000 A 
ENDROOT
BRANCH   1  12
ATOM     12  C   UNL d   1      51.897  34.137  52.936  0.00  0.00     0.086 C 
BRANCH  12  13
ATOM     13  C   UNL d   1      51.124  33.911  53.136  0.00  0.00     0.019 C 
BRANCH  13  14
ATOM     14  C   UNL d   1      50.495  34.199  52.688  0.00  0.00     0.002 A 
ATOM     15  C   UNL d   1      50.452  34.056  51.895  0.00  0.00     0.000 A 
ATOM     16  C   UNL d   1      49.812  34.350  51.442  0.00  0.00     0.000 A 
ATOM     17  C   UNL d   1      49.213  34.793  51.812  0.00  0.00     0.000 A 
ATOM     18  C   UNL d   1      49.261  34.933  52.606  0.00  0.00     0.000 A 
ATOM     19  C   UNL d   1      49.898  34.642  53.061  0.00  0.00     0.000 A 
ENDBRANCH  13  14
ENDBRANCH  12  13
ENDBRANCH   1  12
TORSDOF 3
ENDMDL
MODEL 2
REMARK VINA RESULT:      -8.8      2.259      3.387
REMARK  3 active torsions:
REMARK  status: ('A' for Active; 'I' for Inactive)
REMARK    1  A    between atoms: C_6  and  N_1 
REMARK    2  A    between atoms: C_11  and  C_6 
REMARK    3  A    between atoms: C_9  and  C_11 
ROOT
ATOM      1  N   UNL d   1      53.278  32.131  53.552  0.00  0.00    -0.240 N 
ATOM      2  C   UNL d   1      53.589  31.584  54.080  0.00  0.00     0.267 A 
ATOM      3  C   UNL d   1      52.888  31.711  52.961  0.00  0.00     0.267 A 
ATOM      4  C   UNL d   1      53.393  30.830  53.818  0.00  0.00     0.061 A 
ATOM      5  C   UNL d   1      52.957  30.909  53.122  0.00  0.00     0.061 A 
ATOM      6  O   UNL d   1      54.036  31.793  54.774  0.00  0.00    -0.267 OA
ATOM      7  O   UNL d   1      52.497  32.071  52.318  0.00  0.00    -0.267 OA
ATOM      8  C   UNL d   1      52.693  30.254  52.745  0.00  0.00     0.005 A 
ATOM      9  C   UNL d   1      53.558  30.098  54.126  0.00  0.00     0.005 A 
ATOM     10  C   UNL d   1      53.280  29.418  53.729  0.00  0.00     0.000 A 
ATOM     11  C   UNL d   1      52.844  29.496  53.033  0.00  0.00     0.000 A 
ENDROOT
BRANCH   1  12
ATOM     12  C   UNL d   1      53.344  32.952  53.604  0.00  0.00     0.086 C 
BRANCH  12  13
ATOM     13  C   UNL d   1      52.751  33.399  53.974  0.00  0.00     0.019 C 
BRANCH  13  14
ATOM     14  C   UNL d   1      52.881  34.201  54.111  0.00  0.00     0.002 A 
ATOM     15  C   UNL d   1      52.775  34.744  53.522  0.00  0.00     0.000 A 
ATOM     16  C   UNL d   1      52.907  35.558  53.663  0.00  0.00     0.000 A 
ATOM     17  C   UNL d   1      53.151  35.813  54.416  0.00  0.00     0.000 A 
ATOM     18  C   UNL d   1      53.256  35.266  55.001  0.00  0.00     0.000 A 
ATOM     19  C   UNL d   1      53.125  34.453  54.865  0.00  0.00     0.000 A 
ENDBRANCH  13  14
ENDBRANCH  12  13
ENDBRANCH   1  12
TORSDOF 3
ENDMDL
MODEL 3
REMARK VINA RESULT:      -8.5      2.090      4.005
REMARK  3 active torsions:
REMARK  status: ('A' for Active; 'I' for Inactive)
REMARK    1  A    between atoms: C_6  and  N_1 
REMARK    2  A    between atoms: C_11  and  C_6 
REMARK    3  A    between atoms: C_9  and  C_11 
ROOT
ATOM      1  N   UNL d   1      53.405  32.509  53.819  0.00  0.00    -0.240 N 
ATOM      2  C   UNL d   1      52.999  32.958  53.265  0.00  0.00     0.267 A 
ATOM      3  C   UNL d   1      53.629  33.013  54.431  0.00  0.00     0.267 A 
ATOM      4  C   UNL d   1      52.970  33.735  53.530  0.00  0.00     0.061 A 
ATOM      5  C   UNL d   1      53.362  33.769  54.256  0.00  0.00     0.061 A 
ATOM      6  O   UNL d   1      52.672  32.643  52.544  0.00  0.00    -0.267 OA
ATOM      7  O   UNL d   1      54.055  32.764  55.103  0.00  0.00    -0.267 OA
ATOM      8  C   UNL d   1      53.419  34.468  54.643  0.00  0.00     0.005 A 
ATOM      9  C   UNL d   1      52.641  34.400  53.204  0.00  0.00     0.005 A 
ATOM     10  C   UNL d   1      52.702  35.127  53.610  0.00  0.00     0.000 A 
ATOM     11  C   UNL d   1      53.094  35.161  54.335  0.00  0.00     0.000 A 
ENDROOT
BRANCH   1  12
ATOM     12  C   UNL d   1      53.561  31.700  53.773  0.00  0.00     0.086 C 
BRANCH  12  13
ATOM     13  C   UNL d   1      52.947  31.148  53.856  0.00  0.00     0.019 C 
BRANCH  13  14
ATOM     14  C   UNL d   1      53.136  30.354  53.976  0.00  0.00     0.002 A 
ATOM     15  C   UNL d   1      53.407  29.897  53.368  0.00  0.00     0.000 A 
ATOM     16  C   UNL d   1      53.598  29.092  53.493  0.00  0.00     0.000 A 
ATOM     17  C   UNL d   1      53.509  28.758  54.249  0.00  0.00     0.000 A 
ATOM     18  C   UNL d   1      53.237  29.220  54.854  0.00  0.00     0.000 A 
ATOM     19  C   UNL d   1      53.045  30.024  54.734  0.00  0.00     0.000 A 
ENDBRANCH  13  14
ENDBRANCH  12  13
ENDBRANCH   1  12
TORSDOF 3
ENDMDL
MODEL 4
REMARK VINA RESULT:      -7.7      2.193      3.121
REMARK  3 active torsions:
REMARK  status: ('A' for Active; 'I' for Inactive)
REMARK    1  A    between atoms: C_6  and  N_1 
REMARK    2  A    between atoms: C_11  and  C_6 
REMARK    3  A    between atoms: C_9  and  C_11 
ROOT
ATOM      1  N   UNL d   1      53.164  31.509  53.496  0.00  0.00    -0.240 N 
ATOM      2  C   UNL d   1      52.911  30.879  53.036  0.00  0.00     0.267 A 
ATOM      3  C   UNL d   1      53.469  31.199  54.196  0.00  0.00     0.267 A 
ATOM      4  C   UNL d   1      53.058  30.182  53.446  0.00  0.00     0.061 A 
ATOM      5  C   UNL d   1      53.405  30.381  54.167  0.00  0.00     0.061 A 
ATOM      6  O   UNL d   1      52.558  30.963  52.265  0.00  0.00    -0.267 OA
ATOM      7  O   UNL d   1      53.784  31.666  54.811  0.00  0.00    -0.267 OA
ATOM      8  C   UNL d   1      53.608  29.803  54.682  0.00  0.00     0.005 A 
ATOM      9  C   UNL d   1      52.919  29.407  53.251  0.00  0.00     0.005 A 
ATOM     10  C   UNL d   1      53.132  28.807  53.791  0.00  0.00     0.000 A 
ATOM     11  C   UNL d   1      53.479  29.006  54.512  0.00  0.00     0.000 A 
ENDROOT
BRANCH   1  12
ATOM     12  C   UNL d   1      53.121  32.309  53.296  0.00  0.00     0.086 C 
BRANCH  12  13
ATOM     13  C   UNL d   1      52.650  32.829  53.739  0.00  0.00     0.019 C 
BRANCH  13  14
ATOM     14  C   UNL d   1      52.381  33.524  53.388  0.00  0.00     0.002 A 
ATOM     15  C   UNL d   1      52.874  34.157  53.294  0.00  0.00     0.000 A 
ATOM     16  C   UNL d   1      52.599  34.862  52.937  0.00  0.00     0.000 A 
ATOM     17  C   UNL d   1      51.812  34.914  52.676  0.00  0.00     0.000 A 
ATOM     18  C   UNL d   1      51.323  34.278  52.772  0.00  0.00     0.000 A 
ATOM     19  C   UNL d   1      51.593  33.572  53.128  0.00  0.00     0.000 A 
ENDBRANCH  13  14
ENDBRANCH  12  13
ENDBRANCH   1  12
TORSDOF 3
ENDMDL
MODEL 5
REMARK VINA RESULT:      -7.5      0.696      4.117
REMARK  3 active torsions:
REMARK  status: ('A' for Active; 'I' for Inactive)
REMARK    1  A    between atoms: C_6  and  N_1 
REMARK    2  A    between atoms: C_11  and  C_6 
REMARK    3  A    between atoms: C_9  and  C_11 
ROOT
ATOM      1  N   UNL d   1      52.214  34.116  53.184  0.00  0.00    -0.240 N 
ATOM      2  C   UNL d   1      51.845  33.648  52.620  0.00  0.00     0.267 A 
ATOM      3  C   UNL d   1      51.671  34.685  53.428  0.00  0.00     0.267 A 
ATOM      4  C   UNL d   1      51.078  33.923  52.515  0.00  0.00     0.061 A 
ATOM      5  C   UNL d   1      50.970  34.568  53.018  0.00  0.00     0.061 A 
ATOM      6  O   UNL d   1      52.220  32.992  52.226  0.00  0.00    -0.267 OA
ATOM      7  O   UNL d   1      51.837  35.268  54.001  0.00  0.00    -0.267 OA
ATOM      8  C   UNL d   1      50.264  34.947  53.029  0.00  0.00     0.005 A 
ATOM      9  C   UNL d   1      50.480  33.667  52.031  0.00  0.00     0.005 A 
ATOM     10  C   UNL d   1      49.746  34.065  52.045  0.00  0.00     0.000 A 
ATOM     11  C   UNL d   1      49.637  34.710  52.548  0.00  0.00     0.000 A 
ENDROOT
BRANCH   1  12
ATOM     12  C   UNL d   1      52.989  34.034  53.457  0.00  0.00     0.086 C 
BRANCH  12  13
ATOM     13  C   UNL d   1      53.181  33.443  54.007  0.00  0.00     0.019 C 
BRANCH  13  14
ATOM     14  C   UNL d   1      53.911  33.472  54.388  0.00  0.00     0.002 A 
ATOM     15  C   UNL d   1      54.598  33.473  53.963  0.00  0.00     0.000 A 
ATOM     16  C   UNL d   1      55.339  33.502  54.352  0.00  0.00     0.000 A 
ATOM     17  C   UNL d   1      55.369  33.531  55.183  0.00  0.00     0.000 A 
ATOM     18  C   UNL d   1      54.679  33.529  55.602  0.00  0.00     0.000 A 
ATOM     19  C   UNL d   1      53.938  33.500  55.218  0.00  0.00     0.000 A 
ENDBRANCH  13  14
ENDBRANCH  12  13
ENDBRANCH   1  12
TORSDOF 3
ENDMDL
MODEL 6
REMARK VINA RESULT:      -6.7      2.357      5.277
REMARK  3 active torsions:
REMARK  status: ('A' for Active; 'I' for Inactive)
REMARK    1  A    between atoms: C_6  and  N_1 
REMARK    2  A    between atoms: C_11  and  C_6 
REMARK    3  A    between atoms: C_9  and  C_11 
ROOT
ATOM      1  N   UNL d   1      48.859  35.254  52.257  0.00  0.00    -0.240 N 
ATOM      2  C   UNL d   1      48.357  35.089  51.630  0.00  0.00     0.267 A 
ATOM      3  C   UNL d   1      48.445  35.732  52.786  0.00  0.00     0.267 A 
ATOM      4  C   UNL d   1      47.638  35.461  51.766  0.00  0.00     0.061 A 
ATOM      5  C   UNL d   1      47.693  35.861  52.486  0.00  0.00     0.061 A 
ATOM      6  O   UNL d   1      48.574  34.608  50.961  0.00  0.00    -0.267 OA
ATOM      7  O   UNL d   1      48.768  36.020  53.499  0.00  0.00    -0.267 OA
ATOM      8  C   UNL d   1      47.064  36.276  52.757  0.00  0.00     0.005 A 
ATOM      9  C   UNL d   1      46.955  35.482  51.330  0.00  0.00     0.005 A 
ATOM     10  C   UNL d   1      46.301  35.915  51.616  0.00  0.00     0.000 A 
ATOM     11  C   UNL d   1      46.356  36.316  52.335  0.00  0.00     0.000 A 
ENDROOT
BRANCH   1  12
ATOM     12  C   UNL d   1      49.635  34.990  52.345  0.00  0.00     0.086 C 
BRANCH  12  13
ATOM     13  C   UNL d   1      49.806  34.336  52.827  0.00  0.00     0.019 C 
BRANCH  13  14
ATOM     14  C   UNL d   1      50.585  34.073  52.884  0.00  0.00     0.002 A 
ATOM     15  C   UNL d   1      51.195  34.524  52.606  0.00  0.00     0.000 A 
ATOM     16  C   UNL d   1      51.985  34.255  52.665  0.00  0.00     0.000 A 
ATOM     17  C   UNL d   1      52.146  33.517  53.013  0.00  0.00     0.000 A 
ATOM     18  C   UNL d   1      51.533  33.070  53.289  0.00  0.00     0.000 A 
ATOM     19  C   UNL d   1      50.742  33.335  53.232  0.00  0.00     0.000 A 
ENDBRANCH  13  14
ENDBRANCH  12  13
ENDBRANCH   1  12
TORSDOF 3
ENDMDL
