MODEL 1
REMARK VINA RESULT:      -1.5      0.000      0.000
REMARK  0 active torsions:
REMARK  status: ('A' for Active; 'I' for Inactive)
ROOT
ATOM      1  N   UNL d   1      23.921  11.873  -1.501  0.00  0.00    -0.169 NA
ATOM      2  C   UNL d   1      23.655  12.295  -0.846  0.00  0.00     0.199 A 
ATOM      3  C   UNL d   1      23.931  13.053  -0.676  0.00  0.00     0.130 A 
ATOM      4  N   UNL d   1      24.764  12.995  -1.830  0.00  0.00    -0.151 NA
ATOM      5  C   UNL d   1      24.483  13.398  -1.169  0.00  0.00     0.292 A 
ATOM      6  C   UNL d   1      24.488  12.237  -2.000  0.00  0.00     0.373 A 
ATOM      7  O   UNL d   1      24.763  14.161  -1.002  0.00  0.00    -0.264 OA
ATOM      8  O   UNL d   1      24.765  11.822  -2.663  0.00  0.00    -0.242 OA
ATOM      9  N   UNL d   1      23.091  11.940  -0.344  0.00  0.00    -0.126 N 
ATOM     10 BR   UNL d   1      23.651  13.461  -0.014  0.00  0.00    -0.041 Br
ENDROOT
TORSDOF 0
ENDMDL
MODEL 2
REMARK VINA RESULT:      -1.3      1.486      2.100
REMARK  0 active torsions:
REMARK  status: ('A' for Active; 'I' for Inactive)
ROOT
ATOM      1  N   UNL d   1      23.532  13.971  -0.090  0.00  0.00    -0.169 NA
ATOM      2  C   UNL d   1      23.143  13.247  -0.132  0.00  0.00     0.199 A 
ATOM      3  C   UNL d   1      23.548  12.544  -0.280  0.00  0.00     0.130 A 
ATOM      4  N   UNL d   1      24.768  13.277  -0.351  0.00  0.00    -0.151 NA
ATOM      5  C   UNL d   1      24.357  12.564  -0.389  0.00  0.00     0.292 A 
ATOM      6  C   UNL d   1      24.363  13.980  -0.202  0.00  0.00     0.373 A 
ATOM      7  O   UNL d   1      24.768  11.859  -0.538  0.00  0.00    -0.264 OA
ATOM      8  O   UNL d   1      24.767  14.703  -0.162  0.00  0.00    -0.242 OA
ATOM      9  N   UNL d   1      22.316  13.231  -0.021  0.00  0.00    -0.126 N 
ATOM     10 BR   UNL d   1      23.139  11.828  -0.319  0.00  0.00    -0.041 Br
ENDROOT
TORSDOF 0
ENDMDL
MODEL 3
REMARK VINA RESULT:       0.3      1.508      2.076
REMARK  0 active torsions:
REMARK  status: ('A' for Active; 'I' for Inactive)
ROOT
ATOM      1  N   UNL d   1      22.625  12.757  -1.034  0.00  0.00    -0.169 NA
ATOM      2  C   UNL d   1      23.369  12.671  -1.376  0.00  0.00     0.199 A 
ATOM      3  C   UNL d   1      24.030  13.066  -1.080  0.00  0.00     0.130 A 
ATOM      4  N   UNL d   1      23.213  13.655  -0.073  0.00  0.00    -0.151 NA
ATOM      5  C   UNL d   1      23.947  13.554  -0.431  0.00  0.00     0.292 A 
ATOM      6  C   UNL d   1      22.551  13.261  -0.368  0.00  0.00     0.373 A 
ATOM      7  O   UNL d   1      24.610  13.953  -0.131  0.00  0.00    -0.264 OA
ATOM      8  O   UNL d   1      21.807  13.355  -0.015  0.00  0.00    -0.242 OA
ATOM      9  N   UNL d   1      23.449  12.172  -2.039  0.00  0.00    -0.126 N 
ATOM     10 BR   UNL d   1      24.768  12.967  -1.437  0.00  0.00    -0.041 Br
ENDROOT
TORSDOF 0
ENDMDL
