MODEL 1
REMARK VINA RESULT:      -9.1      0.000      0.000
REMARK  2 active torsions:
REMARK  status: ('A' for Active; 'I' for Inactive)
REMARK    1  A    between atoms: C_10  and  N_1 
REMARK    2  A    between atoms: C_13  and  C_10 
ROOT
ATOM      1  N   UNL d   1     -48.831  13.450  22.369  0.00  0.00    -0.260 N 
ATOM      2  C   UNL d   1     -48.952  12.723  22.724  0.00  0.00     0.174 A 
ATOM      3  C   UNL d   1     -48.172  13.901  22.189  0.00  0.00     0.348 A 
ATOM      4  N   UNL d   1     -47.374  13.812  22.289  0.00  0.00    -0.216 NA
ATOM      5  C   UNL d   1     -46.889  13.232  22.612  0.00  0.00     0.137 A 
ATOM      6  O   UNL d   1     -48.475  12.147  23.044  0.00  0.00    -0.316 OA
ATOM      7  C   UNL d   1     -47.963  13.300  22.504  0.00  0.00     0.079 A 
ATOM      8  C   UNL d   1     -47.015  12.511  22.963  0.00  0.00     0.022 A 
ATOM      9  C   UNL d   1     -47.668  12.065  23.141  0.00  0.00     0.094 A 
ATOM     10  O   UNL d   1     -48.368  14.596  21.828  0.00  0.00    -0.245 OA
ATOM     11  C   UNL d   1     -49.695  12.390  22.839  0.00  0.00     0.055 C 
ATOM     12  C   UNL d   1     -46.264  12.246  23.147  0.00  0.00    -0.001 A 
ATOM     13  C   UNL d   1     -47.567  11.335  23.512  0.00  0.00     0.024 A 
ATOM     14  C   UNL d   1     -46.170  11.523  23.515  0.00  0.00    -0.000 A 
ATOM     15  C   UNL d   1     -46.823  11.066  23.698  0.00  0.00     0.002 A 
ENDROOT
BRANCH   1  16
ATOM     16  C   UNL d   1     -49.420  13.961  22.073  0.00  0.00     0.082 C 
BRANCH  16  17
ATOM     17  C   UNL d   1     -49.861  14.449  22.613  0.00  0.00     0.017 A 
ATOM     18  C   UNL d   1     -49.555  15.199  22.850  0.00  0.00     0.002 A 
ATOM     19  C   UNL d   1     -49.995  15.688  23.390  0.00  0.00     0.000 A 
ATOM     20  C   UNL d   1     -50.739  15.423  23.689  0.00  0.00     0.000 A 
ATOM     21  C   UNL d   1     -51.050  14.662  23.449  0.00  0.00     0.000 A 
ATOM     22  C   UNL d   1     -50.605  14.184  22.912  0.00  0.00     0.002 A 
ENDBRANCH  16  17
ENDBRANCH   1  16
TORSDOF 2
ENDMDL
MODEL 2
REMARK VINA RESULT:      -8.8      1.095      2.027
REMARK  2 active torsions:
REMARK  status: ('A' for Active; 'I' for Inactive)
REMARK    1  A    between atoms: C_10  and  N_1 
REMARK    2  A    between atoms: C_13  and  C_10 
ROOT
ATOM      1  N   UNL d   1     -48.661  13.378  23.219  0.00  0.00    -0.260 N 
ATOM      2  C   UNL d   1     -48.124  13.923  22.934  0.00  0.00     0.174 A 
ATOM      3  C   UNL d   1     -48.620  12.594  23.452  0.00  0.00     0.348 A 
ATOM      4  N   UNL d   1     -48.031  12.041  23.494  0.00  0.00    -0.216 NA
ATOM      5  C   UNL d   1     -47.227  12.033  23.322  0.00  0.00     0.137 A 
ATOM      6  O   UNL d   1     -47.328  13.919  22.762  0.00  0.00    -0.316 OA
ATOM      7  C   UNL d   1     -47.976  12.810  23.245  0.00  0.00     0.079 A 
ATOM      8  C   UNL d   1     -46.697  12.578  23.038  0.00  0.00     0.022 A 
ATOM      9  C   UNL d   1     -46.739  13.354  22.808  0.00  0.00     0.094 A 
ATOM     10  O   UNL d   1     -49.336  12.310  23.695  0.00  0.00    -0.245 OA
ATOM     11  C   UNL d   1     -48.319  14.697  22.738  0.00  0.00     0.055 C 
ATOM     12  C   UNL d   1     -45.989  12.171  23.010  0.00  0.00    -0.001 A 
ATOM     13  C   UNL d   1     -46.055  13.733  22.542  0.00  0.00     0.024 A 
ATOM     14  C   UNL d   1     -45.315  12.549  22.746  0.00  0.00    -0.000 A 
ATOM     15  C   UNL d   1     -45.348  13.333  22.512  0.00  0.00     0.002 A 
ENDROOT
BRANCH   1  16
ATOM     16  C   UNL d   1     -49.474  13.509  23.356  0.00  0.00     0.082 C 
BRANCH  16  17
ATOM     17  C   UNL d   1     -50.006  13.571  22.694  0.00  0.00     0.017 A 
ATOM     18  C   UNL d   1     -50.235  12.878  22.269  0.00  0.00     0.002 A 
ATOM     19  C   UNL d   1     -50.766  12.939  21.608  0.00  0.00     0.000 A 
ATOM     20  C   UNL d   1     -51.064  13.694  21.375  0.00  0.00     0.000 A 
ATOM     21  C   UNL d   1     -50.833  14.398  21.805  0.00  0.00     0.000 A 
ATOM     22  C   UNL d   1     -50.304  14.326  22.461  0.00  0.00     0.002 A 
ENDBRANCH  16  17
ENDBRANCH   1  16
TORSDOF 2
ENDMDL
MODEL 3
REMARK VINA RESULT:      -8.7      1.183      3.604
REMARK  2 active torsions:
REMARK  status: ('A' for Active; 'I' for Inactive)
REMARK    1  A    between atoms: C_10  and  N_1 
REMARK    2  A    between atoms: C_13  and  C_10 
ROOT
ATOM      1  N   UNL d   1     -47.962  13.600  23.100  0.00  0.00    -0.260 N 
ATOM      2  C   UNL d   1     -48.448  12.942  23.110  0.00  0.00     0.174 A 
ATOM      3  C   UNL d   1     -48.017  14.352  22.781  0.00  0.00     0.348 A 
ATOM      4  N   UNL d   1     -48.570  14.749  22.345  0.00  0.00    -0.216 NA
ATOM      5  C   UNL d   1     -49.312  14.566  22.040  0.00  0.00     0.137 A 
ATOM      6  O   UNL d   1     -49.181  12.757  22.809  0.00  0.00    -0.316 OA
ATOM      7  C   UNL d   1     -48.606  13.989  22.622  0.00  0.00     0.079 A 
ATOM      8  C   UNL d   1     -49.789  13.910  22.052  0.00  0.00     0.022 A 
ATOM      9  C   UNL d   1     -49.735  13.166  22.369  0.00  0.00     0.094 A 
ATOM     10  O   UNL d   1     -47.362  14.798  22.940  0.00  0.00    -0.245 OA
ATOM     11  C   UNL d   1     -48.252  12.236  23.483  0.00  0.00     0.055 C 
ATOM     12  C   UNL d   1     -50.450  14.138  21.628  0.00  0.00    -0.001 A 
ATOM     13  C   UNL d   1     -50.358  12.635  22.259  0.00  0.00     0.024 A 
ATOM     14  C   UNL d   1     -51.063  13.609  21.522  0.00  0.00    -0.000 A 
ATOM     15  C   UNL d   1     -51.017  12.856  21.838  0.00  0.00     0.002 A 
ENDROOT
BRANCH   1  16
ATOM     16  C   UNL d   1     -47.211  13.666  23.456  0.00  0.00     0.082 C 
BRANCH  16  17
ATOM     17  C   UNL d   1     -46.533  13.322  23.072  0.00  0.00     0.017 A 
ATOM     18  C   UNL d   1     -46.086  13.776  22.520  0.00  0.00     0.002 A 
ATOM     19  C   UNL d   1     -45.408  13.433  22.135  0.00  0.00     0.000 A 
ATOM     20  C   UNL d   1     -45.184  12.637  22.307  0.00  0.00     0.000 A 
ATOM     21  C   UNL d   1     -45.638  12.176  22.868  0.00  0.00     0.000 A 
ATOM     22  C   UNL d   1     -46.309  12.526  23.244  0.00  0.00     0.002 A 
ENDBRANCH  16  17
ENDBRANCH   1  16
TORSDOF 2
ENDMDL
MODEL 4
REMARK VINA RESULT:      -7.3      8.695     10.499
REMARK  2 active torsions:
REMARK  status: ('A' for Active; 'I' for Inactive)
REMARK    1  A    between atoms: C_10  and  N_1 
REMARK    2  A    between atoms: C_13  and  C_10 
ROOT
ATOM      1  N   UNL d   1     -39.926  14.930  18.125  0.00  0.00    -0.260 N 
ATOM      2  C   UNL d   1     -39.447  15.452  18.533  0.00  0.00     0.174 A 
ATOM      3  C   UNL d   1     -40.529  14.417  18.334  0.00  0.00     0.348 A 
ATOM      4  N   UNL d   1     -40.895  14.217  19.026  0.00  0.00    -0.216 NA
ATOM      5  C   UNL d   1     -40.816  14.444  19.813  0.00  0.00     0.137 A 
ATOM      6  O   UNL d   1     -39.366  15.679  19.311  0.00  0.00    -0.316 OA
ATOM      7  C   UNL d   1     -40.294  14.748  18.916  0.00  0.00     0.079 A 
ATOM      8  C   UNL d   1     -40.337  14.962  20.213  0.00  0.00     0.022 A 
ATOM      9  C   UNL d   1     -39.741  15.470  20.006  0.00  0.00     0.094 A 
ATOM     10  O   UNL d   1     -40.825  14.020  17.695  0.00  0.00    -0.245 OA
ATOM     11  C   UNL d   1     -38.868  15.914  18.176  0.00  0.00     0.055 C 
ATOM     12  C   UNL d   1     -40.578  14.894  20.991  0.00  0.00    -0.001 A 
ATOM     13  C   UNL d   1     -39.375  15.922  20.593  0.00  0.00     0.024 A 
ATOM     14  C   UNL d   1     -40.213  15.343  21.568  0.00  0.00    -0.000 A 
ATOM     15  C   UNL d   1     -39.610  15.858  21.368  0.00  0.00     0.002 A 
ENDROOT
BRANCH   1  16
ATOM     16  C   UNL d   1     -39.911  14.783  17.304  0.00  0.00     0.082 C 
BRANCH  16  17
ATOM     17  C   UNL d   1     -39.258  14.354  16.967  0.00  0.00     0.017 A 
ATOM     18  C   UNL d   1     -39.098  13.564  17.216  0.00  0.00     0.002 A 
ATOM     19  C   UNL d   1     -38.445  13.134  16.880  0.00  0.00     0.000 A 
ATOM     20  C   UNL d   1     -37.956  13.499  16.296  0.00  0.00     0.000 A 
ATOM     21  C   UNL d   1     -38.117  14.301  16.043  0.00  0.00     0.000 A 
ATOM     22  C   UNL d   1     -38.769  14.719  16.383  0.00  0.00     0.002 A 
ENDBRANCH  16  17
ENDBRANCH   1  16
TORSDOF 2
ENDMDL
MODEL 5
REMARK VINA RESULT:      -6.9      8.816     10.305
REMARK  2 active torsions:
REMARK  status: ('A' for Active; 'I' for Inactive)
REMARK    1  A    between atoms: C_10  and  N_1 
REMARK    2  A    between atoms: C_13  and  C_10 
ROOT
ATOM      1  N   UNL d   1     -40.371  14.553  18.273  0.00  0.00    -0.260 N 
ATOM      2  C   UNL d   1     -40.193  15.184  17.786  0.00  0.00     0.174 A 
ATOM      3  C   UNL d   1     -40.108  13.779  18.334  0.00  0.00     0.348 A 
ATOM      4  N   UNL d   1     -39.567  13.327  17.940  0.00  0.00    -0.216 NA
ATOM      5  C   UNL d   1     -39.051  13.452  17.311  0.00  0.00     0.137 A 
ATOM      6  O   UNL d   1     -39.684  15.312  17.163  0.00  0.00    -0.316 OA
ATOM      7  C   UNL d   1     -39.763  14.101  17.804  0.00  0.00     0.079 A 
ATOM      8  C   UNL d   1     -38.878  14.083  16.831  0.00  0.00     0.022 A 
ATOM      9  C   UNL d   1     -39.138  14.848  16.770  0.00  0.00     0.094 A 
ATOM     10  O   UNL d   1     -40.480  13.379  18.929  0.00  0.00    -0.245 OA
ATOM     11  C   UNL d   1     -40.551  15.922  17.846  0.00  0.00     0.055 C 
ATOM     12  C   UNL d   1     -38.304  13.794  16.325  0.00  0.00    -0.001 A 
ATOM     13  C   UNL d   1     -38.816  15.338  16.189  0.00  0.00     0.024 A 
ATOM     14  C   UNL d   1     -37.988  14.283  15.752  0.00  0.00    -0.000 A 
ATOM     15  C   UNL d   1     -38.245  15.057  15.684  0.00  0.00     0.002 A 
ENDROOT
BRANCH   1  16
ATOM     16  C   UNL d   1     -40.929  14.548  18.894  0.00  0.00     0.082 C 
BRANCH  16  17
ATOM     17  C   UNL d   1     -40.699  14.821  19.666  0.00  0.00     0.017 A 
ATOM     18  C   UNL d   1     -40.676  15.648  19.833  0.00  0.00     0.002 A 
ATOM     19  C   UNL d   1     -40.446  15.922  20.604  0.00  0.00     0.000 A 
ATOM     20  C   UNL d   1     -40.239  15.365  21.205  0.00  0.00     0.000 A 
ATOM     21  C   UNL d   1     -40.261  14.525  21.037  0.00  0.00     0.000 A 
ATOM     22  C   UNL d   1     -40.492  14.264  20.266  0.00  0.00     0.002 A 
ENDBRANCH  16  17
ENDBRANCH   1  16
TORSDOF 2
ENDMDL
MODEL 6
REMARK VINA RESULT:      -6.7      8.669      9.990
REMARK  2 active torsions:
REMARK  status: ('A' for Active; 'I' for Inactive)
REMARK    1  A    between atoms: C_10  and  N_1 
REMARK    2  A    between atoms: C_13  and  C_10 
ROOT
ATOM      1  N   UNL d   1     -39.725  14.494  19.052  0.00  0.00    -0.260 N 
ATOM      2  C   UNL d   1     -39.032  14.864  19.275  0.00  0.00     0.174 A 
ATOM      3  C   UNL d   1     -40.431  14.316  19.428  0.00  0.00     0.348 A 
ATOM      4  N   UNL d   1     -40.728  14.433  20.170  0.00  0.00    -0.216 NA
ATOM      5  C   UNL d   1     -40.448  14.781  20.861  0.00  0.00     0.137 A 
ATOM      6  O   UNL d   1     -38.750  15.208  19.957  0.00  0.00    -0.316 OA
ATOM      7  C   UNL d   1     -40.002  14.650  19.884  0.00  0.00     0.079 A 
ATOM      8  C   UNL d   1     -39.757  15.147  21.077  0.00  0.00     0.022 A 
ATOM      9  C   UNL d   1     -39.059  15.323  20.705  0.00  0.00     0.094 A 
ATOM     10  O   UNL d   1     -40.948  13.934  18.938  0.00  0.00    -0.245 OA
ATOM     11  C   UNL d   1     -38.390  14.972  18.772  0.00  0.00     0.055 C 
ATOM     12  C   UNL d   1     -39.878  15.353  21.859  0.00  0.00    -0.001 A 
ATOM     13  C   UNL d   1     -38.466  15.715  21.125  0.00  0.00     0.024 A 
ATOM     14  C   UNL d   1     -39.289  15.740  22.271  0.00  0.00    -0.000 A 
ATOM     15  C   UNL d   1     -38.581  15.922  21.903  0.00  0.00     0.002 A 
ENDROOT
BRANCH   1  16
ATOM     16  C   UNL d   1     -39.896  14.173  18.300  0.00  0.00     0.082 C 
BRANCH  16  17
ATOM     17  C   UNL d   1     -40.084  14.695  17.655  0.00  0.00     0.017 A 
ATOM     18  C   UNL d   1     -40.863  15.013  17.581  0.00  0.00     0.002 A 
ATOM     19  C   UNL d   1     -41.052  15.535  16.937  0.00  0.00     0.000 A 
ATOM     20  C   UNL d   1     -40.459  15.736  16.369  0.00  0.00     0.000 A 
ATOM     21  C   UNL d   1     -39.669  15.414  16.443  0.00  0.00     0.000 A 
ATOM     22  C   UNL d   1     -39.492  14.896  17.088  0.00  0.00     0.002 A 
ENDBRANCH  16  17
ENDBRANCH   1  16
TORSDOF 2
ENDMDL
MODEL 7
REMARK VINA RESULT:      -6.4      8.799     10.287
REMARK  2 active torsions:
REMARK  status: ('A' for Active; 'I' for Inactive)
REMARK    1  A    between atoms: C_10  and  N_1 
REMARK    2  A    between atoms: C_13  and  C_10 
ROOT
ATOM      1  N   UNL d   1     -39.543  15.881  19.757  0.00  0.00    -0.260 N 
ATOM      2  C   UNL d   1     -40.338  15.865  19.568  0.00  0.00     0.174 A 
ATOM      3  C   UNL d   1     -38.848  15.904  19.325  0.00  0.00     0.348 A 
ATOM      4  N   UNL d   1     -38.664  15.921  18.538  0.00  0.00    -0.216 NA
ATOM      5  C   UNL d   1     -39.099  15.921  17.839  0.00  0.00     0.137 A 
ATOM      6  O   UNL d   1     -40.771  15.865  18.879  0.00  0.00    -0.316 OA
ATOM      7  C   UNL d   1     -39.399  15.898  18.878  0.00  0.00     0.079 A 
ATOM      8  C   UNL d   1     -39.889  15.906  17.657  0.00  0.00     0.022 A 
ATOM      9  C   UNL d   1     -40.577  15.882  18.085  0.00  0.00     0.094 A 
ATOM     10  O   UNL d   1     -38.195  15.912  19.800  0.00  0.00    -0.245 OA
ATOM     11  C   UNL d   1     -40.940  15.842  20.128  0.00  0.00     0.055 C 
ATOM     12  C   UNL d   1     -39.905  15.918  16.840  0.00  0.00    -0.001 A 
ATOM     13  C   UNL d   1     -41.300  15.872  17.686  0.00  0.00     0.024 A 
ATOM     14  C   UNL d   1     -40.622  15.907  16.449  0.00  0.00    -0.000 A 
ATOM     15  C   UNL d   1     -41.321  15.884  16.873  0.00  0.00     0.002 A 
ENDROOT
BRANCH   1  16
ATOM     16  C   UNL d   1     -39.216  15.877  20.525  0.00  0.00     0.082 C 
BRANCH  16  17
ATOM     17  C   UNL d   1     -39.165  15.143  20.954  0.00  0.00     0.017 A 
ATOM     18  C   UNL d   1     -39.801  14.901  21.453  0.00  0.00     0.002 A 
ATOM     19  C   UNL d   1     -39.750  14.168  21.883  0.00  0.00     0.000 A 
ATOM     20  C   UNL d   1     -39.063  13.683  21.810  0.00  0.00     0.000 A 
ATOM     21  C   UNL d   1     -38.417  13.928  21.303  0.00  0.00     0.000 A 
ATOM     22  C   UNL d   1     -38.478  14.658  20.881  0.00  0.00     0.002 A 
ENDBRANCH  16  17
ENDBRANCH   1  16
TORSDOF 2
ENDMDL
