MODEL 1
REMARK VINA RESULT:      -9.9      0.000      0.000
REMARK  4 active torsions:
REMARK  status: ('A' for Active; 'I' for Inactive)
REMARK    1  A    between atoms: N_2  and  C_9 
REMARK    2  A    between atoms: C_11  and  C_5 
REMARK    3  A    between atoms: C_6  and  C_7 
REMARK       I    between atoms: C_7  and  N_10 
REMARK    4  A    between atoms: N_10  and  C_21 
ROOT
ATOM      1  C   UNL d   1      50.605  34.187  52.721  0.00  0.00     0.019 A 
ATOM      2  C   UNL d   1      50.701  33.567  53.261  0.00  0.00     0.003 A 
ATOM      3  C   UNL d   1      51.207  34.377  52.190  0.00  0.00     0.003 A 
ATOM      4  C   UNL d   1      52.009  33.325  52.734  0.00  0.00     0.085 A 
ATOM      5  C   UNL d   1      51.907  33.944  52.200  0.00  0.00     0.019 A 
ATOM      6  C   UNL d   1      51.404  33.139  53.264  0.00  0.00     0.019 A 
ENDROOT
BRANCH   4   7
ATOM      7  N   UNL d   1      52.713  32.891  52.743  0.00  0.00    -0.208 NA
ATOM      8  C   UNL d   1      53.357  33.157  53.190  0.00  0.00     0.281 C 
ATOM      9  O   UNL d   1      54.058  32.718  53.196  0.00  0.00    -0.265 OA
BRANCH   8  10
ATOM     10  C   UNL d   1      53.296  33.855  53.626  0.00  0.00     0.080 A 
ATOM     11  C   UNL d   1      53.493  33.853  54.425  0.00  0.00     0.131 A 
ATOM     12  C   UNL d   1      53.431  34.552  54.857  0.00  0.00     0.024 A 
ATOM     13  C   UNL d   1      53.176  35.242  54.495  0.00  0.00     0.002 A 
ATOM     14  C   UNL d   1      52.979  35.241  53.694  0.00  0.00     0.000 A 
ATOM     15  C   UNL d   1      53.040  34.543  53.259  0.00  0.00     0.006 A 
BRANCH  11  16
ATOM     16  N   UNL d   1      53.752  33.152  54.789  0.00  0.00    -0.114 N 
ATOM     17  O   UNL d   1      53.215  32.667  55.181  0.00  0.00    -0.532 OA
ATOM     18  O   UNL d   1      54.549  32.941  54.759  0.00  0.00    -0.532 OA
ENDBRANCH  11  16
ENDBRANCH   8  10
ENDBRANCH   4   7
BRANCH   1  19
ATOM     19  C   UNL d   1      49.901  34.622  52.712  0.00  0.00     0.101 A 
ATOM     20  N   UNL d   1      49.614  35.099  53.315  0.00  0.00    -0.227 NA
ATOM     21  C   UNL d   1      48.902  35.422  53.069  0.00  0.00     0.148 A 
ATOM     22  N   UNL d   1      48.747  35.143  52.310  0.00  0.00    -0.288 N 
ATOM     23  C   UNL d   1      48.370  35.935  53.436  0.00  0.00     0.037 A 
ATOM     24  C   UNL d   1      48.063  35.377  51.918  0.00  0.00     0.082 A 
ATOM     25  C   UNL d   1      49.363  34.651  52.092  0.00  0.00     0.101 A 
ATOM     26  C   UNL d   1      47.531  35.890  52.286  0.00  0.00     0.019 A 
ATOM     27  C   UNL d   1      47.684  36.169  53.044  0.00  0.00     0.005 A 
ENDBRANCH   1  19
TORSDOF 4
ENDMDL
MODEL 2
REMARK VINA RESULT:      -8.2      1.192      2.215
REMARK  4 active torsions:
REMARK  status: ('A' for Active; 'I' for Inactive)
REMARK    1  A    between atoms: N_2  and  C_9 
REMARK    2  A    between atoms: C_11  and  C_5 
REMARK    3  A    between atoms: C_6  and  C_7 
REMARK       I    between atoms: C_7  and  N_10 
REMARK    4  A    between atoms: N_10  and  C_21 
ROOT
ATOM      1  C   UNL d   1      51.528  34.351  53.117  0.00  0.00     0.019 A 
ATOM      2  C   UNL d   1      52.251  34.678  52.883  0.00  0.00     0.003 A 
ATOM      3  C   UNL d   1      51.452  33.979  53.850  0.00  0.00     0.003 A 
ATOM      4  C   UNL d   1      52.827  34.259  54.124  0.00  0.00     0.085 A 
ATOM      5  C   UNL d   1      52.105  33.936  54.350  0.00  0.00     0.019 A 
ATOM      6  C   UNL d   1      52.899  34.630  53.391  0.00  0.00     0.019 A 
ENDROOT
BRANCH   4   7
ATOM      7  N   UNL d   1      53.482  34.215  54.628  0.00  0.00    -0.208 NA
ATOM      8  C   UNL d   1      53.934  33.522  54.658  0.00  0.00     0.281 C 
ATOM      9  O   UNL d   1      54.588  33.483  55.164  0.00  0.00    -0.265 OA
BRANCH   8  10
ATOM     10  C   UNL d   1      53.732  32.877  54.185  0.00  0.00     0.080 A 
ATOM     11  C   UNL d   1      54.273  32.593  53.634  0.00  0.00     0.131 A 
ATOM     12  C   UNL d   1      54.067  31.948  53.163  0.00  0.00     0.024 A 
ATOM     13  C   UNL d   1      53.332  31.594  53.243  0.00  0.00     0.002 A 
ATOM     14  C   UNL d   1      52.792  31.882  53.795  0.00  0.00     0.000 A 
ATOM     15  C   UNL d   1      52.994  32.527  54.268  0.00  0.00     0.006 A 
BRANCH  11  16
ATOM     16  N   UNL d   1      55.017  32.953  53.556  0.00  0.00    -0.114 N 
ATOM     17  O   UNL d   1      55.527  32.996  54.201  0.00  0.00    -0.532 OA
ATOM     18  O   UNL d   1      55.249  33.269  52.830  0.00  0.00    -0.532 OA
ENDBRANCH  11  16
ENDBRANCH   8  10
ENDBRANCH   4   7
BRANCH   1  19
ATOM     19  C   UNL d   1      50.873  34.395  52.613  0.00  0.00     0.101 A 
ATOM     20  N   UNL d   1      50.859  34.213  51.813  0.00  0.00    -0.227 NA
ATOM     21  C   UNL d   1      50.098  34.336  51.535  0.00  0.00     0.148 A 
ATOM     22  N   UNL d   1      49.638  34.596  52.167  0.00  0.00    -0.288 N 
ATOM     23  C   UNL d   1      49.760  34.246  50.788  0.00  0.00     0.037 A 
ATOM     24  C   UNL d   1      48.841  34.765  52.052  0.00  0.00     0.082 A 
ATOM     25  C   UNL d   1      50.116  34.631  52.829  0.00  0.00     0.101 A 
ATOM     26  C   UNL d   1      48.503  34.675  51.304  0.00  0.00     0.019 A 
ATOM     27  C   UNL d   1      48.962  34.416  50.672  0.00  0.00     0.005 A 
ENDBRANCH   1  19
TORSDOF 4
ENDMDL
MODEL 3
REMARK VINA RESULT:      -7.9      2.500      4.744
REMARK  4 active torsions:
REMARK  status: ('A' for Active; 'I' for Inactive)
REMARK    1  A    between atoms: N_2  and  C_9 
REMARK    2  A    between atoms: C_11  and  C_5 
REMARK    3  A    between atoms: C_6  and  C_7 
REMARK       I    between atoms: C_7  and  N_10 
REMARK    4  A    between atoms: N_10  and  C_21 
ROOT
ATOM      1  C   UNL d   1      53.800  32.153  53.993  0.00  0.00     0.019 A 
ATOM      2  C   UNL d   1      53.751  32.528  54.730  0.00  0.00     0.003 A 
ATOM      3  C   UNL d   1      54.066  32.565  53.330  0.00  0.00     0.003 A 
ATOM      4  C   UNL d   1      54.238  33.735  54.135  0.00  0.00     0.085 A 
ATOM      5  C   UNL d   1      54.284  33.355  53.405  0.00  0.00     0.019 A 
ATOM      6  C   UNL d   1      53.971  33.320  54.796  0.00  0.00     0.019 A 
ENDROOT
BRANCH   4   7
ATOM      7  N   UNL d   1      54.458  34.529  54.208  0.00  0.00    -0.208 NA
ATOM      8  C   UNL d   1      53.912  35.126  54.031  0.00  0.00     0.281 C 
ATOM      9  O   UNL d   1      54.137  35.919  54.107  0.00  0.00    -0.265 OA
BRANCH   8  10
ATOM     10  C   UNL d   1      53.151  34.929  53.782  0.00  0.00     0.080 A 
ATOM     11  C   UNL d   1      52.503  35.176  54.225  0.00  0.00     0.131 A 
ATOM     12  C   UNL d   1      51.743  34.976  53.972  0.00  0.00     0.024 A 
ATOM     13  C   UNL d   1      51.636  34.538  53.288  0.00  0.00     0.002 A 
ATOM     14  C   UNL d   1      52.287  34.292  52.847  0.00  0.00     0.000 A 
ATOM     15  C   UNL d   1      53.049  34.490  53.096  0.00  0.00     0.006 A 
BRANCH  11  16
ATOM     16  N   UNL d   1      52.615  35.620  54.917  0.00  0.00    -0.114 N 
ATOM     17  O   UNL d   1      52.648  35.245  55.650  0.00  0.00    -0.532 OA
ATOM     18  O   UNL d   1      52.694  36.440  54.874  0.00  0.00    -0.532 OA
ENDBRANCH  11  16
ENDBRANCH   8  10
ENDBRANCH   4   7
BRANCH   1  19
ATOM     19  C   UNL d   1      53.580  31.359  53.920  0.00  0.00     0.101 A 
ATOM     20  N   UNL d   1      53.757  30.753  54.444  0.00  0.00    -0.227 NA
ATOM     21  C   UNL d   1      53.431  30.059  54.152  0.00  0.00     0.148 A 
ATOM     22  N   UNL d   1      53.050  30.237  53.444  0.00  0.00    -0.288 N 
ATOM     23  C   UNL d   1      53.429  29.285  54.439  0.00  0.00     0.037 A 
ATOM     24  C   UNL d   1      52.669  29.643  53.023  0.00  0.00     0.082 A 
ATOM     25  C   UNL d   1      53.143  31.038  53.302  0.00  0.00     0.101 A 
ATOM     26  C   UNL d   1      52.667  28.869  53.309  0.00  0.00     0.019 A 
ATOM     27  C   UNL d   1      53.047  28.690  54.016  0.00  0.00     0.005 A 
ENDBRANCH   1  19
TORSDOF 4
ENDMDL
