MODEL 1
REMARK VINA RESULT:      -6.5      0.000      0.000
REMARK  7 active torsions:
REMARK  status: ('A' for Active; 'I' for Inactive)
REMARK       I    between atoms: C_2  and  N_1 
REMARK    1  A    between atoms: C_3  and  N_1 
REMARK    2  A    between atoms: C_4  and  C_2 
REMARK    3  A    between atoms: N_9  and  C_3 
REMARK    4  A    between atoms: O_19  and  C_6 
REMARK    5  A    between atoms: C_7  and  C_18 
REMARK    6  A    between atoms: C_18  and  N_9 
REMARK    7  A    between atoms: O_20  and  C_12 
ROOT
ATOM      1  N   UNL d   1      53.901  33.290  54.689  0.00  0.00    -0.179 NA
ATOM      2  C   UNL d   1      53.342  33.900  54.710  0.00  0.00     0.281 C 
ATOM      3  O   UNL d   1      53.258  34.366  55.390  0.00  0.00    -0.265 OA
ENDROOT
BRANCH   2   4
ATOM      4  C   UNL d   1      52.864  34.050  54.054  0.00  0.00     0.060 A 
ATOM      5  C   UNL d   1      52.074  33.802  54.046  0.00  0.00     0.031 A 
ATOM      6  C   UNL d   1      51.598  33.954  53.389  0.00  0.00     0.116 A 
ATOM      7  C   UNL d   1      51.915  34.355  52.737  0.00  0.00     0.116 A 
ATOM      8  C   UNL d   1      52.704  34.603  52.745  0.00  0.00     0.026 A 
ATOM      9  C   UNL d   1      53.172  34.446  53.410  0.00  0.00     0.007 A 
BRANCH   6  10
ATOM     10  O   UNL d   1      50.808  33.706  53.381  0.00  0.00    -0.326 OA
ATOM     11  C   UNL d   1      50.607  32.947  53.631  0.00  0.00     0.181 C 
ENDBRANCH   6  10
BRANCH   7  12
ATOM     12  O   UNL d   1      51.434  34.506  52.079  0.00  0.00    -0.326 OA
ATOM     13  C   UNL d   1      51.756  34.502  51.319  0.00  0.00     0.181 C 
ENDBRANCH   7  12
ENDBRANCH   2   4
BRANCH   1  14
ATOM     14  C   UNL d   1      53.980  32.831  54.011  0.00  0.00     0.224 C 
ATOM     15  S   UNL d   1      54.461  32.999  53.352  0.00  0.00    -0.037 SA
BRANCH  14  16
ATOM     16  N   UNL d   1      53.590  32.111  53.858  0.00  0.00    -0.214 NA
BRANCH  16  17
ATOM     17  C   UNL d   1      53.955  31.370  53.789  0.00  0.00     0.126 C 
BRANCH  17  18
ATOM     18  C   UNL d   1      53.501  30.709  53.604  0.00  0.00     0.119 A 
ATOM     19  O   UNL d   1      52.955  30.563  53.005  0.00  0.00    -0.304 OA
ATOM     20  C   UNL d   1      52.676  29.795  53.100  0.00  0.00     0.123 A 
ATOM     21  C   UNL d   1      53.050  29.468  53.756  0.00  0.00     0.029 A 
ATOM     22  C   UNL d   1      53.560  30.030  54.069  0.00  0.00     0.028 A 
ENDBRANCH  17  18
ENDBRANCH  16  17
ENDBRANCH  14  16
ENDBRANCH   1  14
TORSDOF 7
ENDMDL
MODEL 2
REMARK VINA RESULT:      -6.3      1.702      2.526
REMARK  7 active torsions:
REMARK  status: ('A' for Active; 'I' for Inactive)
REMARK       I    between atoms: C_2  and  N_1 
REMARK    1  A    between atoms: C_3  and  N_1 
REMARK    2  A    between atoms: C_4  and  C_2 
REMARK    3  A    between atoms: N_9  and  C_3 
REMARK    4  A    between atoms: O_19  and  C_6 
REMARK    5  A    between atoms: C_7  and  C_18 
REMARK    6  A    between atoms: C_18  and  N_9 
REMARK    7  A    between atoms: O_20  and  C_12 
ROOT
ATOM      1  N   UNL d   1      54.278  31.872  52.983  0.00  0.00    -0.179 NA
ATOM      2  C   UNL d   1      54.627  32.596  53.183  0.00  0.00     0.281 C 
ATOM      3  O   UNL d   1      55.387  32.782  52.909  0.00  0.00    -0.265 OA
ENDROOT
BRANCH   2   4
ATOM      4  C   UNL d   1      54.222  33.138  53.655  0.00  0.00     0.060 A 
ATOM      5  C   UNL d   1      54.426  33.234  54.451  0.00  0.00     0.031 A 
ATOM      6  C   UNL d   1      54.020  33.778  54.922  0.00  0.00     0.116 A 
ATOM      7  C   UNL d   1      53.406  34.226  54.591  0.00  0.00     0.116 A 
ATOM      8  C   UNL d   1      53.202  34.130  53.795  0.00  0.00     0.026 A 
ATOM      9  C   UNL d   1      53.617  33.582  53.334  0.00  0.00     0.007 A 
BRANCH   6  10
ATOM     10  O   UNL d   1      54.224  33.874  55.718  0.00  0.00    -0.326 OA
ATOM     11  C   UNL d   1      54.947  33.595  55.999  0.00  0.00     0.181 C 
ENDBRANCH   6  10
BRANCH   7  12
ATOM     12  O   UNL d   1      53.000  34.771  55.067  0.00  0.00    -0.326 OA
ATOM     13  C   UNL d   1      52.631  35.425  54.725  0.00  0.00     0.181 C 
ENDBRANCH   7  12
ENDBRANCH   2   4
BRANCH   1  14
ATOM     14  C   UNL d   1      53.524  31.693  53.258  0.00  0.00     0.224 C 
ATOM     15  S   UNL d   1      52.810  32.047  53.013  0.00  0.00    -0.037 SA
BRANCH  14  16
ATOM     16  N   UNL d   1      53.334  31.123  53.835  0.00  0.00    -0.214 NA
BRANCH  16  17
ATOM     17  C   UNL d   1      53.145  30.330  53.686  0.00  0.00     0.126 C 
BRANCH  17  18
ATOM     18  C   UNL d   1      53.214  29.775  54.290  0.00  0.00     0.119 A 
ATOM     19  O   UNL d   1      53.146  29.837  55.107  0.00  0.00    -0.304 OA
ATOM     20  C   UNL d   1      53.272  29.090  55.428  0.00  0.00     0.123 A 
ATOM     21  C   UNL d   1      53.417  28.568  54.809  0.00  0.00     0.029 A 
ATOM     22  C   UNL d   1      53.381  28.989  54.104  0.00  0.00     0.028 A 
ENDBRANCH  17  18
ENDBRANCH  16  17
ENDBRANCH  14  16
ENDBRANCH   1  14
TORSDOF 7
ENDMDL
MODEL 3
REMARK VINA RESULT:      -6.0      1.265      3.836
REMARK  7 active torsions:
REMARK  status: ('A' for Active; 'I' for Inactive)
REMARK       I    between atoms: C_2  and  N_1 
REMARK    1  A    between atoms: C_3  and  N_1 
REMARK    2  A    between atoms: C_4  and  C_2 
REMARK    3  A    between atoms: N_9  and  C_3 
REMARK    4  A    between atoms: O_19  and  C_6 
REMARK    5  A    between atoms: C_7  and  C_18 
REMARK    6  A    between atoms: C_18  and  N_9 
REMARK    7  A    between atoms: O_20  and  C_12 
ROOT
ATOM      1  N   UNL d   1      53.979  33.557  53.526  0.00  0.00    -0.179 NA
ATOM      2  C   UNL d   1      54.361  32.828  53.438  0.00  0.00     0.281 C 
ATOM      3  O   UNL d   1      55.120  32.792  53.108  0.00  0.00    -0.265 OA
ENDROOT
BRANCH   2   4
ATOM      4  C   UNL d   1      53.991  32.131  53.679  0.00  0.00     0.060 A 
ATOM      5  C   UNL d   1      53.590  31.658  53.130  0.00  0.00     0.031 A 
ATOM      6  C   UNL d   1      53.220  30.961  53.373  0.00  0.00     0.116 A 
ATOM      7  C   UNL d   1      53.253  30.737  54.170  0.00  0.00     0.116 A 
ATOM      8  C   UNL d   1      53.654  31.209  54.719  0.00  0.00     0.026 A 
ATOM      9  C   UNL d   1      54.021  31.906  54.463  0.00  0.00     0.007 A 
BRANCH   6  10
ATOM     10  O   UNL d   1      52.819  30.489  52.824  0.00  0.00    -0.326 OA
ATOM     11  C   UNL d   1      53.143  30.350  52.079  0.00  0.00     0.181 C 
ENDBRANCH   6  10
BRANCH   7  12
ATOM     12  O   UNL d   1      52.880  30.037  54.411  0.00  0.00    -0.326 OA
ATOM     13  C   UNL d   1      53.163  29.620  55.065  0.00  0.00     0.181 C 
ENDBRANCH   7  12
ENDBRANCH   2   4
BRANCH   1  14
ATOM     14  C   UNL d   1      53.226  33.586  53.855  0.00  0.00     0.224 C 
ATOM     15  S   UNL d   1      53.039  33.591  54.667  0.00  0.00    -0.037 SA
BRANCH  14  16
ATOM     16  N   UNL d   1      52.507  33.615  53.434  0.00  0.00    -0.214 NA
BRANCH  16  17
ATOM     17  C   UNL d   1      52.012  34.275  53.370  0.00  0.00     0.126 C 
BRANCH  17  18
ATOM     18  C   UNL d   1      51.393  34.269  52.826  0.00  0.00     0.119 A 
ATOM     19  O   UNL d   1      51.376  34.162  52.011  0.00  0.00    -0.304 OA
ATOM     20  C   UNL d   1      50.592  34.214  51.766  0.00  0.00     0.123 A 
ATOM     21  C   UNL d   1      50.127  34.353  52.431  0.00  0.00     0.029 A 
ATOM     22  C   UNL d   1      50.620  34.388  53.087  0.00  0.00     0.028 A 
ENDBRANCH  17  18
ENDBRANCH  16  17
ENDBRANCH  14  16
ENDBRANCH   1  14
TORSDOF 7
ENDMDL
MODEL 4
REMARK VINA RESULT:      -5.9      1.386      2.572
REMARK  7 active torsions:
REMARK  status: ('A' for Active; 'I' for Inactive)
REMARK       I    between atoms: C_2  and  N_1 
REMARK    1  A    between atoms: C_3  and  N_1 
REMARK    2  A    between atoms: C_4  and  C_2 
REMARK    3  A    between atoms: N_9  and  C_3 
REMARK    4  A    between atoms: O_19  and  C_6 
REMARK    5  A    between atoms: C_7  and  C_18 
REMARK    6  A    between atoms: C_18  and  N_9 
REMARK    7  A    between atoms: O_20  and  C_12 
ROOT
ATOM      1  N   UNL d   1      51.964  33.579  52.463  0.00  0.00    -0.179 NA
ATOM      2  C   UNL d   1      52.509  34.193  52.572  0.00  0.00     0.281 C 
ATOM      3  O   UNL d   1      52.588  34.787  52.000  0.00  0.00    -0.265 OA
ENDROOT
BRANCH   2   4
ATOM      4  C   UNL d   1      52.978  34.218  53.251  0.00  0.00     0.060 A 
ATOM      5  C   UNL d   1      52.788  34.732  53.872  0.00  0.00     0.031 A 
ATOM      6  C   UNL d   1      53.259  34.756  54.550  0.00  0.00     0.116 A 
ATOM      7  C   UNL d   1      53.923  34.263  54.605  0.00  0.00     0.116 A 
ATOM      8  C   UNL d   1      54.113  33.749  53.984  0.00  0.00     0.026 A 
ATOM      9  C   UNL d   1      53.633  33.734  53.309  0.00  0.00     0.007 A 
BRANCH   6  10
ATOM     10  O   UNL d   1      53.069  35.269  55.171  0.00  0.00    -0.326 OA
ATOM     11  C   UNL d   1      52.820  36.039  55.014  0.00  0.00     0.181 C 
ENDBRANCH   6  10
BRANCH   7  12
ATOM     12  O   UNL d   1      54.394  34.289  55.287  0.00  0.00    -0.326 OA
ATOM     13  C   UNL d   1      54.993  33.734  55.399  0.00  0.00     0.181 C 
ENDBRANCH   7  12
ENDBRANCH   2   4
BRANCH   1  14
ATOM     14  C   UNL d   1      51.890  32.993  53.035  0.00  0.00     0.224 C 
ATOM     15  S   UNL d   1      51.388  33.009  53.700  0.00  0.00    -0.037 SA
BRANCH  14  16
ATOM     16  N   UNL d   1      52.305  32.271  53.054  0.00  0.00    -0.214 NA
BRANCH  16  17
ATOM     17  C   UNL d   1      51.964  31.517  53.034  0.00  0.00     0.126 C 
BRANCH  17  18
ATOM     18  C   UNL d   1      52.447  30.852  52.978  0.00  0.00     0.119 A 
ATOM     19  O   UNL d   1      52.976  30.601  52.400  0.00  0.00    -0.304 OA
ATOM     20  C   UNL d   1      53.302  29.888  52.650  0.00  0.00     0.123 A 
ATOM     21  C   UNL d   1      52.974  29.701  53.381  0.00  0.00     0.029 A 
ATOM     22  C   UNL d   1      52.446  30.295  53.586  0.00  0.00     0.028 A 
ENDBRANCH  17  18
ENDBRANCH  16  17
ENDBRANCH  14  16
ENDBRANCH   1  14
TORSDOF 7
ENDMDL
MODEL 5
REMARK VINA RESULT:      -5.8      2.365      4.597
REMARK  7 active torsions:
REMARK  status: ('A' for Active; 'I' for Inactive)
REMARK       I    between atoms: C_2  and  N_1 
REMARK    1  A    between atoms: C_3  and  N_1 
REMARK    2  A    between atoms: C_4  and  C_2 
REMARK    3  A    between atoms: N_9  and  C_3 
REMARK    4  A    between atoms: O_19  and  C_6 
REMARK    5  A    between atoms: C_7  and  C_18 
REMARK    6  A    between atoms: C_18  and  N_9 
REMARK    7  A    between atoms: O_20  and  C_12 
ROOT
ATOM      1  N   UNL d   1      51.339  34.374  52.103  0.00  0.00    -0.179 NA
ATOM      2  C   UNL d   1      52.155  34.425  52.236  0.00  0.00     0.281 C 
ATOM      3  O   UNL d   1      52.661  34.677  51.630  0.00  0.00    -0.265 OA
ENDROOT
BRANCH   2   4
ATOM      4  C   UNL d   1      52.471  34.227  52.972  0.00  0.00     0.060 A 
ATOM      5  C   UNL d   1      52.627  34.815  53.533  0.00  0.00     0.031 A 
ATOM      6  C   UNL d   1      52.944  34.614  54.269  0.00  0.00     0.116 A 
ATOM      7  C   UNL d   1      53.104  33.820  54.442  0.00  0.00     0.116 A 
ATOM      8  C   UNL d   1      52.948  33.232  53.881  0.00  0.00     0.026 A 
ATOM      9  C   UNL d   1      52.631  33.446  53.147  0.00  0.00     0.007 A 
BRANCH   6  10
ATOM     10  O   UNL d   1      53.099  35.202  54.830  0.00  0.00    -0.326 OA
ATOM     11  C   UNL d   1      53.117  35.996  54.608  0.00  0.00     0.181 C 
ENDBRANCH   6  10
BRANCH   7  12
ATOM     12  O   UNL d   1      53.422  33.621  55.182  0.00  0.00    -0.326 OA
ATOM     13  C   UNL d   1      53.920  32.967  55.258  0.00  0.00     0.181 C 
ENDBRANCH   7  12
ENDBRANCH   2   4
BRANCH   1  14
ATOM     14  C   UNL d   1      50.842  34.123  52.709  0.00  0.00     0.224 C 
ATOM     15  S   UNL d   1      50.827  33.367  53.057  0.00  0.00    -0.037 SA
BRANCH  14  16
ATOM     16  N   UNL d   1      50.259  34.583  53.087  0.00  0.00    -0.214 NA
BRANCH  16  17
ATOM     17  C   UNL d   1      49.478  34.678  52.829  0.00  0.00     0.126 C 
BRANCH  17  18
ATOM     18  C   UNL d   1      49.020  35.291  53.135  0.00  0.00     0.119 A 
ATOM     19  O   UNL d   1      49.122  35.786  53.784  0.00  0.00    -0.304 OA
ATOM     20  C   UNL d   1      48.478  36.297  53.814  0.00  0.00     0.123 A 
ATOM     21  C   UNL d   1      47.981  36.117  53.185  0.00  0.00     0.029 A 
ATOM     22  C   UNL d   1      48.313  35.496  52.763  0.00  0.00     0.028 A 
ENDBRANCH  17  18
ENDBRANCH  16  17
ENDBRANCH  14  16
ENDBRANCH   1  14
TORSDOF 7
ENDMDL
MODEL 6
REMARK VINA RESULT:      -5.8      2.128      4.106
REMARK  7 active torsions:
REMARK  status: ('A' for Active; 'I' for Inactive)
REMARK       I    between atoms: C_2  and  N_1 
REMARK    1  A    between atoms: C_3  and  N_1 
REMARK    2  A    between atoms: C_4  and  C_2 
REMARK    3  A    between atoms: N_9  and  C_3 
REMARK    4  A    between atoms: O_19  and  C_6 
REMARK    5  A    between atoms: C_7  and  C_18 
REMARK    6  A    between atoms: C_18  and  N_9 
REMARK    7  A    between atoms: O_20  and  C_12 
ROOT
ATOM      1  N   UNL d   1      51.886  34.897  53.158  0.00  0.00    -0.179 NA
ATOM      2  C   UNL d   1      52.657  34.598  53.170  0.00  0.00     0.281 C 
ATOM      3  O   UNL d   1      53.304  35.112  53.109  0.00  0.00    -0.265 OA
ENDROOT
BRANCH   2   4
ATOM      4  C   UNL d   1      52.790  33.787  53.242  0.00  0.00     0.060 A 
ATOM      5  C   UNL d   1      53.144  33.479  53.924  0.00  0.00     0.031 A 
ATOM      6  C   UNL d   1      53.275  32.667  53.993  0.00  0.00     0.116 A 
ATOM      7  C   UNL d   1      53.050  32.162  53.376  0.00  0.00     0.116 A 
ATOM      8  C   UNL d   1      52.696  32.469  52.694  0.00  0.00     0.026 A 
ATOM      9  C   UNL d   1      52.570  33.286  52.636  0.00  0.00     0.007 A 
BRANCH   6  10
ATOM     10  O   UNL d   1      53.629  32.359  54.675  0.00  0.00    -0.326 OA
ATOM     11  C   UNL d   1      54.135  32.826  55.129  0.00  0.00     0.181 C 
ENDBRANCH   6  10
BRANCH   7  12
ATOM     12  O   UNL d   1      53.184  31.346  53.449  0.00  0.00    -0.326 OA
ATOM     13  C   UNL d   1      52.863  30.822  52.898  0.00  0.00     0.181 C 
ENDBRANCH   7  12
ENDBRANCH   2   4
BRANCH   1  14
ATOM     14  C   UNL d   1      51.247  34.382  53.219  0.00  0.00     0.224 C 
ATOM     15  S   UNL d   1      51.039  33.926  53.885  0.00  0.00    -0.037 SA
BRANCH  14  16
ATOM     16  N   UNL d   1      50.689  34.220  52.622  0.00  0.00    -0.214 NA
BRANCH  16  17
ATOM     17  C   UNL d   1      49.897  34.461  52.624  0.00  0.00     0.126 C 
BRANCH  17  18
ATOM     18  C   UNL d   1      49.478  34.489  51.916  0.00  0.00     0.119 A 
ATOM     19  O   UNL d   1      49.648  34.207  51.162  0.00  0.00    -0.304 OA
ATOM     20  C   UNL d   1      49.016  34.399  50.672  0.00  0.00     0.123 A 
ATOM     21  C   UNL d   1      48.457  34.799  51.124  0.00  0.00     0.029 A 
ATOM     22  C   UNL d   1      48.740  34.856  51.893  0.00  0.00     0.028 A 
ENDBRANCH  17  18
ENDBRANCH  16  17
ENDBRANCH  14  16
ENDBRANCH   1  14
TORSDOF 7
ENDMDL
