MODEL 1
REMARK VINA RESULT:      -6.8      0.000      0.000
REMARK  7 active torsions:
REMARK  status: ('A' for Active; 'I' for Inactive)
REMARK    1  A    between atoms: C_10  and  C_3 
REMARK    2  A    between atoms: N_11  and  C_4 
REMARK    3  A    between atoms: C_21  and  N_11 
REMARK    4  A    between atoms: O_20  and  C_23 
REMARK    5  A    between atoms: C_24  and  O_20 
REMARK    6  A    between atoms: C_23  and  C_21 
REMARK    7  A    between atoms: C_22  and  C_24 
ROOT
ATOM      1  C   UNL d   1      52.611  33.623  53.383  0.00  0.00     0.167 A 
ATOM      2  N   UNL d   1      51.960  33.506  52.847  0.00  0.00    -0.195 N 
ATOM      3  C   UNL d   1      53.154  33.032  53.498  0.00  0.00     0.057 A 
ATOM      4  C   UNL d   1      51.428  34.105  52.745  0.00  0.00     0.167 A 
ATOM      5  N   UNL d   1      52.441  32.195  52.570  0.00  0.00    -0.161 NA
ATOM      6  N   UNL d   1      52.687  34.332  53.781  0.00  0.00    -0.227 NA
ATOM      7  C   UNL d   1      51.497  34.824  53.142  0.00  0.00     0.058 A 
ATOM      8  C   UNL d   1      53.072  32.309  53.089  0.00  0.00     0.124 A 
ATOM      9  C   UNL d   1      52.138  34.939  53.669  0.00  0.00     0.086 A 
ATOM     10  C   UNL d   1      52.218  35.686  54.088  0.00  0.00     0.021 C 
ENDROOT
BRANCH   3  11
ATOM     11  C   UNL d   1      53.785  33.145  54.017  0.00  0.00     0.005 A 
ATOM     12  C   UNL d   1      54.498  33.422  53.734  0.00  0.00     0.001 A 
ATOM     13  C   UNL d   1      55.119  33.534  54.245  0.00  0.00     0.011 A 
ATOM     14  C   UNL d   1      55.037  33.371  55.047  0.00  0.00     0.058 A 
ATOM     15  C   UNL d   1      54.324  33.094  55.329  0.00  0.00     0.011 A 
ATOM     16 CL   UNL d   1      55.698  33.490  55.591  0.00  0.00    -0.082 Cl
ATOM     17  C   UNL d   1      53.693  32.980  54.810  0.00  0.00     0.001 A 
ENDBRANCH   3  11
BRANCH   4  18
ATOM     18  N   UNL d   1      50.769  33.990  52.205  0.00  0.00    -0.223 NA
BRANCH  18  19
ATOM     19  C   UNL d   1      50.238  34.242  51.587  0.00  0.00     0.127 C 
BRANCH  19  20
ATOM     20  C   UNL d   1      49.387  34.227  51.744  0.00  0.00     0.143 C 
BRANCH  20  21
ATOM     21  O   UNL d   1      48.837  34.588  51.195  0.00  0.00    -0.298 OA
BRANCH  21  22
ATOM     22  C   UNL d   1      48.085  34.909  51.472  0.00  0.00     0.168 C 
BRANCH  22  23
ATOM     23  C   UNL d   1      47.521  35.229  50.909  0.00  0.00     0.261 C 
ATOM     24  O   UNL d   1      46.675  35.151  51.054  0.00  0.00    -0.281 OA
ENDBRANCH  22  23
ENDBRANCH  21  22
ENDBRANCH  20  21
ENDBRANCH  19  20
ENDBRANCH  18  19
ENDBRANCH   4  18
TORSDOF 7
ENDMDL
MODEL 2
REMARK VINA RESULT:      -6.5      0.768      1.670
REMARK  7 active torsions:
REMARK  status: ('A' for Active; 'I' for Inactive)
REMARK    1  A    between atoms: C_10  and  C_3 
REMARK    2  A    between atoms: N_11  and  C_4 
REMARK    3  A    between atoms: C_21  and  N_11 
REMARK    4  A    between atoms: O_20  and  C_23 
REMARK    5  A    between atoms: C_24  and  O_20 
REMARK    6  A    between atoms: C_23  and  C_21 
REMARK    7  A    between atoms: C_22  and  C_24 
ROOT
ATOM      1  C   UNL d   1      52.443  34.074  53.677  0.00  0.00     0.167 A 
ATOM      2  N   UNL d   1      51.712  34.359  53.347  0.00  0.00    -0.195 N 
ATOM      3  C   UNL d   1      52.896  34.560  54.142  0.00  0.00     0.057 A 
ATOM      4  C   UNL d   1      51.274  33.861  52.887  0.00  0.00     0.167 A 
ATOM      5  N   UNL d   1      51.934  35.617  53.974  0.00  0.00    -0.161 NA
ATOM      6  N   UNL d   1      52.688  33.310  53.526  0.00  0.00    -0.227 NA
ATOM      7  C   UNL d   1      51.512  33.088  52.727  0.00  0.00     0.058 A 
ATOM      8  C   UNL d   1      52.643  35.341  54.295  0.00  0.00     0.124 A 
ATOM      9  C   UNL d   1      52.231  32.807  53.053  0.00  0.00     0.086 A 
ATOM     10  C   UNL d   1      52.488  32.002  52.893  0.00  0.00     0.021 C 
ENDROOT
BRANCH   3  11
ATOM     11  C   UNL d   1      53.605  34.284  54.463  0.00  0.00     0.005 A 
ATOM     12  C   UNL d   1      53.605  33.923  55.193  0.00  0.00     0.001 A 
ATOM     13  C   UNL d   1      54.302  33.651  55.508  0.00  0.00     0.011 A 
ATOM     14  C   UNL d   1      55.009  33.736  55.098  0.00  0.00     0.058 A 
ATOM     15  C   UNL d   1      55.008  34.098  54.367  0.00  0.00     0.011 A 
ATOM     16 CL   UNL d   1      55.752  33.447  55.434  0.00  0.00    -0.082 Cl
ATOM     17  C   UNL d   1      54.300  34.374  54.047  0.00  0.00     0.001 A 
ENDBRANCH   3  11
BRANCH   4  18
ATOM     18  N   UNL d   1      50.535  34.145  52.551  0.00  0.00    -0.223 NA
BRANCH  18  19
ATOM     19  C   UNL d   1      49.952  34.202  51.931  0.00  0.00     0.127 C 
BRANCH  19  20
ATOM     20  C   UNL d   1      49.255  34.696  52.066  0.00  0.00     0.143 C 
BRANCH  20  21
ATOM     21  O   UNL d   1      48.698  34.846  51.431  0.00  0.00    -0.298 OA
BRANCH  21  22
ATOM     22  C   UNL d   1      47.943  35.233  51.589  0.00  0.00     0.168 C 
BRANCH  22  23
ATOM     23  C   UNL d   1      47.330  35.238  50.990  0.00  0.00     0.261 C 
ATOM     24  O   UNL d   1      46.500  35.225  51.222  0.00  0.00    -0.281 OA
ENDBRANCH  22  23
ENDBRANCH  21  22
ENDBRANCH  20  21
ENDBRANCH  19  20
ENDBRANCH  18  19
ENDBRANCH   4  18
TORSDOF 7
ENDMDL
MODEL 3
REMARK VINA RESULT:      -6.1      3.008      4.569
REMARK  7 active torsions:
REMARK  status: ('A' for Active; 'I' for Inactive)
REMARK    1  A    between atoms: C_10  and  C_3 
REMARK    2  A    between atoms: N_11  and  C_4 
REMARK    3  A    between atoms: C_21  and  N_11 
REMARK    4  A    between atoms: O_20  and  C_23 
REMARK    5  A    between atoms: C_24  and  O_20 
REMARK    6  A    between atoms: C_23  and  C_21 
REMARK    7  A    between atoms: C_22  and  C_24 
ROOT
ATOM      1  C   UNL d   1      53.004  33.154  53.621  0.00  0.00     0.167 A 
ATOM      2  N   UNL d   1      53.174  32.364  53.357  0.00  0.00    -0.195 N 
ATOM      3  C   UNL d   1      53.591  33.609  53.949  0.00  0.00     0.057 A 
ATOM      4  C   UNL d   1      52.577  31.926  53.033  0.00  0.00     0.167 A 
ATOM      5  N   UNL d   1      54.526  32.530  53.769  0.00  0.00    -0.161 NA
ATOM      6  N   UNL d   1      52.249  33.456  53.545  0.00  0.00    -0.227 NA
ATOM      7  C   UNL d   1      51.812  32.221  52.951  0.00  0.00     0.058 A 
ATOM      8  C   UNL d   1      54.361  33.297  54.025  0.00  0.00     0.124 A 
ATOM      9  C   UNL d   1      51.645  32.999  53.212  0.00  0.00     0.086 A 
ATOM     10  C   UNL d   1      50.849  33.316  53.131  0.00  0.00     0.021 C 
ENDROOT
BRANCH   3  11
ATOM     11  C   UNL d   1      53.426  34.375  54.205  0.00  0.00     0.005 A 
ATOM     12  C   UNL d   1      53.257  34.512  54.991  0.00  0.00     0.001 A 
ATOM     13  C   UNL d   1      53.095  35.267  55.243  0.00  0.00     0.011 A 
ATOM     14  C   UNL d   1      53.100  35.896  54.714  0.00  0.00     0.058 A 
ATOM     15  C   UNL d   1      53.270  35.758  53.929  0.00  0.00     0.011 A 
ATOM     16 CL   UNL d   1      52.927  36.699  54.983  0.00  0.00    -0.082 Cl
ATOM     17  C   UNL d   1      53.435  34.991  53.672  0.00  0.00     0.001 A 
ENDBRANCH   3  11
BRANCH   4  18
ATOM     18  N   UNL d   1      52.745  31.127  52.765  0.00  0.00    -0.223 NA
BRANCH  18  19
ATOM     19  C   UNL d   1      52.577  30.292  52.703  0.00  0.00     0.127 C 
BRANCH  19  20
ATOM     20  C   UNL d   1      53.135  29.733  53.056  0.00  0.00     0.143 C 
BRANCH  20  21
ATOM     21  O   UNL d   1      52.878  29.192  53.669  0.00  0.00    -0.298 OA
BRANCH  21  22
ATOM     22  C   UNL d   1      53.446  28.851  54.222  0.00  0.00     0.168 C 
BRANCH  22  23
ATOM     23  C   UNL d   1      53.259  28.806  55.058  0.00  0.00     0.261 C 
ATOM     24  O   UNL d   1      53.486  28.111  55.515  0.00  0.00    -0.281 OA
ENDBRANCH  22  23
ENDBRANCH  21  22
ENDBRANCH  20  21
ENDBRANCH  19  20
ENDBRANCH  18  19
ENDBRANCH   4  18
TORSDOF 7
ENDMDL
MODEL 4
REMARK VINA RESULT:      -5.7      2.155      3.131
REMARK  7 active torsions:
REMARK  status: ('A' for Active; 'I' for Inactive)
REMARK    1  A    between atoms: C_10  and  C_3 
REMARK    2  A    between atoms: N_11  and  C_4 
REMARK    3  A    between atoms: C_21  and  N_11 
REMARK    4  A    between atoms: O_20  and  C_23 
REMARK    5  A    between atoms: C_24  and  O_20 
REMARK    6  A    between atoms: C_23  and  C_21 
REMARK    7  A    between atoms: C_22  and  C_24 
ROOT
ATOM      1  C   UNL d   1      53.180  31.719  53.686  0.00  0.00     0.167 A 
ATOM      2  N   UNL d   1      52.945  32.433  53.288  0.00  0.00    -0.195 N 
ATOM      3  C   UNL d   1      52.986  30.996  53.372  0.00  0.00     0.057 A 
ATOM      4  C   UNL d   1      53.147  33.143  53.615  0.00  0.00     0.167 A 
ATOM      5  N   UNL d   1      52.329  31.650  52.272  0.00  0.00    -0.161 NA
ATOM      6  N   UNL d   1      53.600  31.761  54.385  0.00  0.00    -0.227 NA
ATOM      7  C   UNL d   1      53.571  33.198  54.320  0.00  0.00     0.058 A 
ATOM      8  C   UNL d   1      52.557  30.957  52.658  0.00  0.00     0.124 A 
ATOM      9  C   UNL d   1      53.802  32.494  54.711  0.00  0.00     0.086 A 
ATOM     10  C   UNL d   1      54.245  32.539  55.447  0.00  0.00     0.021 C 
ENDROOT
BRANCH   3  11
ATOM     11  C   UNL d   1      53.214  30.303  53.758  0.00  0.00     0.005 A 
ATOM     12  C   UNL d   1      52.732  29.981  54.331  0.00  0.00     0.001 A 
ATOM     13  C   UNL d   1      52.956  29.299  54.710  0.00  0.00     0.011 A 
ATOM     14  C   UNL d   1      53.665  28.929  54.523  0.00  0.00     0.058 A 
ATOM     15  C   UNL d   1      54.147  29.251  53.950  0.00  0.00     0.011 A 
ATOM     16 CL   UNL d   1      53.903  28.202  54.927  0.00  0.00    -0.082 Cl
ATOM     17  C   UNL d   1      53.919  29.944  53.564  0.00  0.00     0.001 A 
ENDBRANCH   3  11
BRANCH   4  18
ATOM     18  N   UNL d   1      52.911  33.868  53.216  0.00  0.00    -0.223 NA
BRANCH  18  19
ATOM     19  C   UNL d   1      52.473  34.598  53.157  0.00  0.00     0.127 C 
BRANCH  19  20
ATOM     20  C   UNL d   1      51.774  34.618  52.648  0.00  0.00     0.143 C 
BRANCH  20  21
ATOM     21  O   UNL d   1      51.004  34.807  52.975  0.00  0.00    -0.298 OA
BRANCH  21  22
ATOM     22  C   UNL d   1      50.282  34.621  52.540  0.00  0.00     0.168 C 
BRANCH  22  23
ATOM     23  C   UNL d   1      49.525  34.909  52.821  0.00  0.00     0.261 C 
ATOM     24  O   UNL d   1      48.856  34.963  52.280  0.00  0.00    -0.281 OA
ENDBRANCH  22  23
ENDBRANCH  21  22
ENDBRANCH  20  21
ENDBRANCH  19  20
ENDBRANCH  18  19
ENDBRANCH   4  18
TORSDOF 7
ENDMDL
MODEL 5
REMARK VINA RESULT:      -4.8      3.438      6.620
REMARK  7 active torsions:
REMARK  status: ('A' for Active; 'I' for Inactive)
REMARK    1  A    between atoms: C_10  and  C_3 
REMARK    2  A    between atoms: N_11  and  C_4 
REMARK    3  A    between atoms: C_21  and  N_11 
REMARK    4  A    between atoms: O_20  and  C_23 
REMARK    5  A    between atoms: C_24  and  O_20 
REMARK    6  A    between atoms: C_23  and  C_21 
REMARK    7  A    between atoms: C_22  and  C_24 
ROOT
ATOM      1  C   UNL d   1      47.880  35.426  52.331  0.00  0.00     0.167 A 
ATOM      2  N   UNL d   1      48.660  35.086  52.297  0.00  0.00    -0.195 N 
ATOM      3  C   UNL d   1      47.361  35.315  51.718  0.00  0.00     0.057 A 
ATOM      4  C   UNL d   1      49.163  35.207  52.916  0.00  0.00     0.167 A 
ATOM      5  N   UNL d   1      48.350  34.537  51.021  0.00  0.00    -0.161 NA
ATOM      6  N   UNL d   1      47.656  35.864  52.982  0.00  0.00    -0.227 NA
ATOM      7  C   UNL d   1      48.947  35.647  53.578  0.00  0.00     0.058 A 
ATOM      8  C   UNL d   1      47.594  34.866  51.054  0.00  0.00     0.124 A 
ATOM      9  C   UNL d   1      48.179  35.982  53.612  0.00  0.00     0.086 A 
ATOM     10  C   UNL d   1      47.943  36.444  54.298  0.00  0.00     0.021 C 
ENDROOT
BRANCH   3  11
ATOM     11  C   UNL d   1      46.605  35.644  51.751  0.00  0.00     0.005 A 
ATOM     12  C   UNL d   1      46.472  36.384  51.438  0.00  0.00     0.001 A 
ATOM     13  C   UNL d   1      45.728  36.708  51.471  0.00  0.00     0.011 A 
ATOM     14  C   UNL d   1      45.106  36.297  51.817  0.00  0.00     0.058 A 
ATOM     15  C   UNL d   1      45.241  35.556  52.130  0.00  0.00     0.011 A 
ATOM     16 CL   UNL d   1      44.314  36.642  51.852  0.00  0.00    -0.082 Cl
ATOM     17  C   UNL d   1      45.996  35.227  52.097  0.00  0.00     0.001 A 
ENDBRANCH   3  11
BRANCH   4  18
ATOM     18  N   UNL d   1      49.952  34.865  52.885  0.00  0.00    -0.223 NA
BRANCH  18  19
ATOM     19  C   UNL d   1      50.631  34.481  53.232  0.00  0.00     0.127 C 
BRANCH  19  20
ATOM     20  C   UNL d   1      51.070  33.911  52.753  0.00  0.00     0.143 C 
BRANCH  20  21
ATOM     21  O   UNL d   1      51.599  33.348  53.124  0.00  0.00    -0.298 OA
BRANCH  21  22
ATOM     22  C   UNL d   1      52.117  32.848  52.647  0.00  0.00     0.168 C 
BRANCH  22  23
ATOM     23  C   UNL d   1      52.709  32.357  53.026  0.00  0.00     0.261 C 
ATOM     24  O   UNL d   1      52.920  31.594  52.685  0.00  0.00    -0.281 OA
ENDBRANCH  22  23
ENDBRANCH  21  22
ENDBRANCH  20  21
ENDBRANCH  19  20
ENDBRANCH  18  19
ENDBRANCH   4  18
TORSDOF 7
ENDMDL
MODEL 6
REMARK VINA RESULT:      -4.7     11.039     11.703
REMARK  7 active torsions:
REMARK  status: ('A' for Active; 'I' for Inactive)
REMARK    1  A    between atoms: C_10  and  C_3 
REMARK    2  A    between atoms: N_11  and  C_4 
REMARK    3  A    between atoms: C_21  and  N_11 
REMARK    4  A    between atoms: O_20  and  C_23 
REMARK    5  A    between atoms: C_24  and  O_20 
REMARK    6  A    between atoms: C_23  and  C_21 
REMARK    7  A    between atoms: C_22  and  C_24 
ROOT
ATOM      1  C   UNL d   1      44.870  28.362  58.862  0.00  0.00     0.167 A 
ATOM      2  N   UNL d   1      44.859  28.722  59.633  0.00  0.00    -0.195 N 
ATOM      3  C   UNL d   1      44.968  27.560  58.789  0.00  0.00     0.057 A 
ATOM      4  C   UNL d   1      44.761  29.522  59.686  0.00  0.00     0.167 A 
ATOM      5  N   UNL d   1      45.048  27.440  60.221  0.00  0.00    -0.161 NA
ATOM      6  N   UNL d   1      44.781  28.825  58.195  0.00  0.00    -0.227 NA
ATOM      7  C   UNL d   1      44.670  29.998  59.020  0.00  0.00     0.058 A 
ATOM      8  C   UNL d   1      45.058  27.091  59.473  0.00  0.00     0.124 A 
ATOM      9  C   UNL d   1      44.680  29.643  58.261  0.00  0.00     0.086 A 
ATOM     10  C   UNL d   1      44.587  30.131  57.559  0.00  0.00     0.021 C 
ENDROOT
BRANCH   3  11
ATOM     11  C   UNL d   1      44.978  27.210  58.042  0.00  0.00     0.005 A 
ATOM     12  C   UNL d   1      44.314  26.828  57.765  0.00  0.00     0.001 A 
ATOM     13  C   UNL d   1      44.324  26.484  57.029  0.00  0.00     0.011 A 
ATOM     14  C   UNL d   1      44.998  26.518  56.560  0.00  0.00     0.058 A 
ATOM     15  C   UNL d   1      45.662  26.900  56.838  0.00  0.00     0.011 A 
ATOM     16 CL   UNL d   1      45.008  26.151  55.777  0.00  0.00    -0.082 Cl
ATOM     17  C   UNL d   1      45.652  27.250  57.585  0.00  0.00     0.001 A 
ENDBRANCH   3  11
BRANCH   4  18
ATOM     18  N   UNL d   1      44.750  29.890  60.463  0.00  0.00    -0.223 NA
BRANCH  18  19
ATOM     19  C   UNL d   1      44.639  30.550  60.993  0.00  0.00     0.127 C 
BRANCH  19  20
ATOM     20  C   UNL d   1      44.617  30.395  61.844  0.00  0.00     0.143 C 
BRANCH  20  21
ATOM     21  O   UNL d   1      44.475  31.034  62.398  0.00  0.00    -0.298 OA
BRANCH  21  22
ATOM     22  C   UNL d   1      44.325  30.869  63.232  0.00  0.00     0.168 C 
BRANCH  22  23
ATOM     23  C   UNL d   1      44.481  31.470  63.823  0.00  0.00     0.261 C 
ATOM     24  O   UNL d   1      44.316  31.311  64.654  0.00  0.00    -0.281 OA
ENDBRANCH  22  23
ENDBRANCH  21  22
ENDBRANCH  20  21
ENDBRANCH  19  20
ENDBRANCH  18  19
ENDBRANCH   4  18
TORSDOF 7
ENDMDL
MODEL 7
REMARK VINA RESULT:      -4.5      3.098      5.109
REMARK  7 active torsions:
REMARK  status: ('A' for Active; 'I' for Inactive)
REMARK    1  A    between atoms: C_10  and  C_3 
REMARK    2  A    between atoms: N_11  and  C_4 
REMARK    3  A    between atoms: C_21  and  N_11 
REMARK    4  A    between atoms: O_20  and  C_23 
REMARK    5  A    between atoms: C_24  and  O_20 
REMARK    6  A    between atoms: C_23  and  C_21 
REMARK    7  A    between atoms: C_22  and  C_24 
ROOT
ATOM      1  C   UNL d   1      51.549  33.706  53.188  0.00  0.00     0.167 A 
ATOM      2  N   UNL d   1      52.111  33.075  53.284  0.00  0.00    -0.195 N 
ATOM      3  C   UNL d   1      50.772  33.537  53.023  0.00  0.00     0.057 A 
ATOM      4  C   UNL d   1      52.880  33.262  53.447  0.00  0.00     0.167 A 
ATOM      5  N   UNL d   1      51.074  32.131  53.043  0.00  0.00    -0.161 NA
ATOM      6  N   UNL d   1      51.791  34.482  53.261  0.00  0.00    -0.227 NA
ATOM      7  C   UNL d   1      53.135  34.042  53.523  0.00  0.00     0.058 A 
ATOM      8  C   UNL d   1      50.529  32.743  52.950  0.00  0.00     0.124 A 
ATOM      9  C   UNL d   1      52.581  34.663  53.428  0.00  0.00     0.086 A 
ATOM     10  C   UNL d   1      52.837  35.481  53.505  0.00  0.00     0.021 C 
ENDROOT
BRANCH   3  11
ATOM     11  C   UNL d   1      50.227  34.149  52.930  0.00  0.00     0.005 A 
ATOM     12  C   UNL d   1      49.989  34.369  52.182  0.00  0.00     0.001 A 
ATOM     13  C   UNL d   1      49.452  34.971  52.090  0.00  0.00     0.011 A 
ATOM     14  C   UNL d   1      49.145  35.362  52.745  0.00  0.00     0.058 A 
ATOM     15  C   UNL d   1      49.383  35.141  53.492  0.00  0.00     0.011 A 
ATOM     16 CL   UNL d   1      48.573  36.004  52.647  0.00  0.00    -0.082 Cl
ATOM     17  C   UNL d   1      49.928  34.529  53.586  0.00  0.00     0.001 A 
ENDBRANCH   3  11
BRANCH   4  18
ATOM     18  N   UNL d   1      53.451  32.627  53.545  0.00  0.00    -0.223 NA
BRANCH  18  19
ATOM     19  C   UNL d   1      53.883  32.055  54.008  0.00  0.00     0.127 C 
BRANCH  19  20
ATOM     20  C   UNL d   1      53.910  31.237  53.731  0.00  0.00     0.143 C 
BRANCH  20  21
ATOM     21  O   UNL d   1      53.670  30.595  54.246  0.00  0.00    -0.298 OA
BRANCH  21  22
ATOM     22  C   UNL d   1      53.677  29.778  53.967  0.00  0.00     0.168 C 
BRANCH  22  23
ATOM     23  C   UNL d   1      53.148  29.200  54.316  0.00  0.00     0.261 C 
ATOM     24  O   UNL d   1      53.468  28.498  54.699  0.00  0.00    -0.281 OA
ENDBRANCH  22  23
ENDBRANCH  21  22
ENDBRANCH  20  21
ENDBRANCH  19  20
ENDBRANCH  18  19
ENDBRANCH   4  18
TORSDOF 7
ENDMDL
MODEL 8
REMARK VINA RESULT:      -4.4     10.392     11.127
REMARK  7 active torsions:
REMARK  status: ('A' for Active; 'I' for Inactive)
REMARK    1  A    between atoms: C_10  and  C_3 
REMARK    2  A    between atoms: N_11  and  C_4 
REMARK    3  A    between atoms: C_21  and  N_11 
REMARK    4  A    between atoms: O_20  and  C_23 
REMARK    5  A    between atoms: C_24  and  O_20 
REMARK    6  A    between atoms: C_23  and  C_21 
REMARK    7  A    between atoms: C_22  and  C_24 
ROOT
ATOM      1  C   UNL d   1      44.887  28.161  57.716  0.00  0.00     0.167 A 
ATOM      2  N   UNL d   1      44.894  27.623  57.056  0.00  0.00    -0.195 N 
ATOM      3  C   UNL d   1      44.971  28.958  57.591  0.00  0.00     0.057 A 
ATOM      4  C   UNL d   1      44.809  26.833  57.199  0.00  0.00     0.167 A 
ATOM      5  N   UNL d   1      45.070  28.726  56.175  0.00  0.00    -0.161 NA
ATOM      6  N   UNL d   1      44.796  27.874  58.474  0.00  0.00    -0.227 NA
ATOM      7  C   UNL d   1      44.716  26.532  57.961  0.00  0.00     0.058 A 
ATOM      8  C   UNL d   1      45.064  29.247  56.814  0.00  0.00     0.124 A 
ATOM      9  C   UNL d   1      44.710  27.062  58.610  0.00  0.00     0.086 A 
ATOM     10  C   UNL d   1      44.614  26.759  59.409  0.00  0.00     0.021 C 
ENDROOT
BRANCH   3  11
ATOM     11  C   UNL d   1      44.965  29.480  58.230  0.00  0.00     0.005 A 
ATOM     12  C   UNL d   1      45.602  29.508  58.736  0.00  0.00     0.001 A 
ATOM     13  C   UNL d   1      45.596  30.022  59.365  0.00  0.00     0.011 A 
ATOM     14  C   UNL d   1      44.952  30.514  59.497  0.00  0.00     0.058 A 
ATOM     15  C   UNL d   1      44.314  30.486  58.990  0.00  0.00     0.011 A 
ATOM     16 CL   UNL d   1      44.945  31.061  60.168  0.00  0.00    -0.082 Cl
ATOM     17  C   UNL d   1      44.321  29.964  58.351  0.00  0.00     0.001 A 
ENDBRANCH   3  11
BRANCH   4  18
ATOM     18  N   UNL d   1      44.815  26.286  56.536  0.00  0.00    -0.223 NA
BRANCH  18  19
ATOM     19  C   UNL d   1      44.477  25.669  56.053  0.00  0.00     0.127 C 
BRANCH  19  20
ATOM     20  C   UNL d   1      45.007  25.080  55.707  0.00  0.00     0.143 C 
BRANCH  20  21
ATOM     21  O   UNL d   1      44.732  24.562  55.081  0.00  0.00    -0.298 OA
BRANCH  21  22
ATOM     22  C   UNL d   1      45.059  23.768  54.990  0.00  0.00     0.168 C 
BRANCH  22  23
ATOM     23  C   UNL d   1      44.762  23.249  54.376  0.00  0.00     0.261 C 
ATOM     24  O   UNL d   1      44.842  23.472  53.547  0.00  0.00    -0.281 OA
ENDBRANCH  22  23
ENDBRANCH  21  22
ENDBRANCH  20  21
ENDBRANCH  19  20
ENDBRANCH  18  19
ENDBRANCH   4  18
TORSDOF 7
ENDMDL
MODEL 9
REMARK VINA RESULT:      -4.0      3.110      4.674
REMARK  7 active torsions:
REMARK  status: ('A' for Active; 'I' for Inactive)
REMARK    1  A    between atoms: C_10  and  C_3 
REMARK    2  A    between atoms: N_11  and  C_4 
REMARK    3  A    between atoms: C_21  and  N_11 
REMARK    4  A    between atoms: O_20  and  C_23 
REMARK    5  A    between atoms: C_24  and  O_20 
REMARK    6  A    between atoms: C_23  and  C_21 
REMARK    7  A    between atoms: C_22  and  C_24 
ROOT
ATOM      1  C   UNL d   1      52.857  33.179  53.529  0.00  0.00     0.167 A 
ATOM      2  N   UNL d   1      52.587  32.427  53.236  0.00  0.00    -0.195 N 
ATOM      3  C   UNL d   1      52.324  33.771  53.684  0.00  0.00     0.057 A 
ATOM      4  C   UNL d   1      53.131  31.850  53.087  0.00  0.00     0.167 A 
ATOM      5  N   UNL d   1      51.248  32.910  53.271  0.00  0.00    -0.161 NA
ATOM      6  N   UNL d   1      53.654  33.304  53.654  0.00  0.00    -0.227 NA
ATOM      7  C   UNL d   1      53.938  31.966  53.210  0.00  0.00     0.058 A 
ATOM      8  C   UNL d   1      51.511  33.639  53.555  0.00  0.00     0.124 A 
ATOM      9  C   UNL d   1      54.204  32.706  53.498  0.00  0.00     0.086 A 
ATOM     10  C   UNL d   1      55.044  32.837  53.629  0.00  0.00     0.021 C 
ENDROOT
BRANCH   3  11
ATOM     11  C   UNL d   1      52.587  34.500  53.968  0.00  0.00     0.005 A 
ATOM     12  C   UNL d   1      52.662  34.619  54.770  0.00  0.00     0.001 A 
ATOM     13  C   UNL d   1      52.920  35.336  55.049  0.00  0.00     0.011 A 
ATOM     14  C   UNL d   1      53.107  35.945  54.530  0.00  0.00     0.058 A 
ATOM     15  C   UNL d   1      53.031  35.826  53.727  0.00  0.00     0.011 A 
ATOM     16 CL   UNL d   1      53.382  36.710  54.828  0.00  0.00    -0.082 Cl
ATOM     17  C   UNL d   1      52.769  35.097  53.444  0.00  0.00     0.001 A 
ENDBRANCH   3  11
BRANCH   4  18
ATOM     18  N   UNL d   1      52.861  31.089  52.791  0.00  0.00    -0.223 NA
BRANCH  18  19
ATOM     19  C   UNL d   1      52.957  30.256  52.630  0.00  0.00     0.127 C 
BRANCH  19  20
ATOM     20  C   UNL d   1      52.624  29.688  53.190  0.00  0.00     0.143 C 
BRANCH  20  21
ATOM     21  O   UNL d   1      53.132  29.134  53.602  0.00  0.00    -0.298 OA
BRANCH  21  22
ATOM     22  C   UNL d   1      52.875  28.764  54.338  0.00  0.00     0.168 C 
BRANCH  22  23
ATOM     23  C   UNL d   1      53.455  28.447  54.885  0.00  0.00     0.261 C 
ATOM     24  O   UNL d   1      53.344  28.540  55.735  0.00  0.00    -0.281 OA
ENDBRANCH  22  23
ENDBRANCH  21  22
ENDBRANCH  20  21
ENDBRANCH  19  20
ENDBRANCH  18  19
ENDBRANCH   4  18
TORSDOF 7
ENDMDL
