MODEL 1
REMARK VINA RESULT:      -7.9      0.000      0.000
REMARK  4 active torsions:
REMARK  status: ('A' for Active; 'I' for Inactive)
REMARK    1  A    between atoms: N_3  and  C_1 
REMARK    2  A    between atoms: C_4  and  C_2 
REMARK       I    between atoms: C_6  and  N_3 
REMARK    3  A    between atoms: C_18  and  C_6 
REMARK    4  A    between atoms: C_17  and  C_18 
ROOT
ATOM      1  N   UNL d   1     -49.118  13.345  22.981  0.00  0.00    -0.201 NA
ATOM      2  C   UNL d   1     -48.445  13.773  22.778  0.00  0.00     0.280 C 
ATOM      3  O   UNL d   1     -48.397  14.172  22.053  0.00  0.00    -0.265 OA
ENDROOT
BRANCH   2   4
ATOM      4  C   UNL d   1     -47.802  13.807  23.308  0.00  0.00     0.063 C 
BRANCH   4   5
ATOM      5  C   UNL d   1     -47.084  13.420  23.130  0.00  0.00     0.007 A 
ATOM      6  C   UNL d   1     -46.517  13.783  22.644  0.00  0.00     0.026 A 
ATOM      7  C   UNL d   1     -45.805  13.390  22.473  0.00  0.00     0.119 A 
ATOM      8  O   UNL d   1     -45.148  13.611  22.013  0.00  0.00    -0.300 OA
ATOM      9  C   UNL d   1     -45.662  12.644  22.782  0.00  0.00     0.119 A 
ATOM     10  C   UNL d   1     -44.595  12.981  22.047  0.00  0.00     0.304 A 
ATOM     11  O   UNL d   1     -44.923  12.400  22.520  0.00  0.00    -0.300 OA
ATOM     12  C   UNL d   1     -46.226  12.280  23.266  0.00  0.00     0.026 A 
ATOM     13  C   UNL d   1     -46.930  12.670  23.435  0.00  0.00     0.002 A 
ENDBRANCH   4   5
ENDBRANCH   2   4
BRANCH   1  14
ATOM     14  C   UNL d   1     -49.754  13.309  22.461  0.00  0.00     0.119 A 
ATOM     15  C   UNL d   1     -50.376  12.778  22.491  0.00  0.00     0.084 A 
ATOM     16  C   UNL d   1     -50.884  12.938  21.871  0.00  0.00     0.014 A 
ATOM     17  C   UNL d   1     -50.582  13.580  21.440  0.00  0.00     0.037 A 
ATOM     18  S   UNL d   1     -49.873  13.807  21.815  0.00  0.00    -0.067 SA
BRANCH  15  19
ATOM     19  C   UNL d   1     -50.488  12.176  23.046  0.00  0.00     0.299 C 
ATOM     20  O   UNL d   1     -50.129  11.439  22.964  0.00  0.00    -0.264 OA
ATOM     21  N   UNL d   1     -50.971  12.321  23.697  0.00  0.00    -0.102 N 
ENDBRANCH  15  19
ENDBRANCH   1  14
TORSDOF 4
ENDMDL
MODEL 2
REMARK VINA RESULT:      -6.9      1.062      1.581
REMARK  4 active torsions:
REMARK  status: ('A' for Active; 'I' for Inactive)
REMARK    1  A    between atoms: N_3  and  C_1 
REMARK    2  A    between atoms: C_4  and  C_2 
REMARK       I    between atoms: C_6  and  N_3 
REMARK    3  A    between atoms: C_18  and  C_6 
REMARK    4  A    between atoms: C_17  and  C_18 
ROOT
ATOM      1  N   UNL d   1     -49.278  13.662  22.959  0.00  0.00    -0.201 NA
ATOM      2  C   UNL d   1     -48.672  13.111  22.877  0.00  0.00     0.280 C 
ATOM      3  O   UNL d   1     -48.710  12.520  22.297  0.00  0.00    -0.265 OA
ENDROOT
BRANCH   2   4
ATOM      4  C   UNL d   1     -48.012  13.146  23.385  0.00  0.00     0.063 C 
BRANCH   4   5
ATOM      5  C   UNL d   1     -47.253  13.317  23.082  0.00  0.00     0.007 A 
ATOM      6  C   UNL d   1     -46.704  12.707  22.950  0.00  0.00     0.026 A 
ATOM      7  C   UNL d   1     -45.950  12.887  22.648  0.00  0.00     0.119 A 
ATOM      8  O   UNL d   1     -45.300  12.403  22.463  0.00  0.00    -0.300 OA
ATOM      9  C   UNL d   1     -45.747  13.663  22.481  0.00  0.00     0.119 A 
ATOM     10  C   UNL d   1     -44.689  12.903  22.177  0.00  0.00     0.304 A 
ATOM     11  O   UNL d   1     -44.978  13.668  22.195  0.00  0.00    -0.300 OA
ATOM     12  C   UNL d   1     -46.293  14.273  22.613  0.00  0.00     0.026 A 
ATOM     13  C   UNL d   1     -47.039  14.093  22.911  0.00  0.00     0.002 A 
ENDBRANCH   4   5
ENDBRANCH   2   4
BRANCH   1  14
ATOM     14  C   UNL d   1     -49.932  13.631  22.461  0.00  0.00     0.119 A 
ATOM     15  C   UNL d   1     -50.526  14.191  22.404  0.00  0.00     0.084 A 
ATOM     16  C   UNL d   1     -51.064  13.941  21.842  0.00  0.00     0.014 A 
ATOM     17  C   UNL d   1     -50.810  13.213  21.537  0.00  0.00     0.037 A 
ATOM     18  S   UNL d   1     -50.100  13.024  21.929  0.00  0.00    -0.067 SA
BRANCH  15  19
ATOM     19  C   UNL d   1     -50.587  14.894  22.833  0.00  0.00     0.299 C 
ATOM     20  O   UNL d   1     -50.231  15.591  22.576  0.00  0.00    -0.264 OA
ATOM     21  N   UNL d   1     -51.016  14.894  23.536  0.00  0.00    -0.102 N 
ENDBRANCH  15  19
ENDBRANCH   1  14
TORSDOF 4
ENDMDL
MODEL 3
REMARK VINA RESULT:      -6.1      8.517      9.518
REMARK  4 active torsions:
REMARK  status: ('A' for Active; 'I' for Inactive)
REMARK    1  A    between atoms: N_3  and  C_1 
REMARK    2  A    between atoms: C_4  and  C_2 
REMARK       I    between atoms: C_6  and  N_3 
REMARK    3  A    between atoms: C_18  and  C_6 
REMARK    4  A    between atoms: C_17  and  C_18 
ROOT
ATOM      1  N   UNL d   1     -40.177  14.068  18.729  0.00  0.00    -0.201 NA
ATOM      2  C   UNL d   1     -40.554  14.600  19.231  0.00  0.00     0.280 C 
ATOM      3  O   UNL d   1     -40.752  15.362  18.972  0.00  0.00    -0.265 OA
ENDROOT
BRANCH   2   4
ATOM      4  C   UNL d   1     -40.740  14.371  20.011  0.00  0.00     0.063 C 
BRANCH   4   5
ATOM      5  C   UNL d   1     -40.402  14.769  20.662  0.00  0.00     0.007 A 
ATOM      6  C   UNL d   1     -39.797  14.415  21.107  0.00  0.00     0.026 A 
ATOM      7  C   UNL d   1     -39.467  14.819  21.754  0.00  0.00     0.119 A 
ATOM      8  O   UNL d   1     -38.867  14.608  22.290  0.00  0.00    -0.300 OA
ATOM      9  C   UNL d   1     -39.738  15.566  21.954  0.00  0.00     0.119 A 
ATOM     10  C   UNL d   1     -38.774  15.246  22.827  0.00  0.00     0.304 A 
ATOM     11  O   UNL d   1     -39.313  15.822  22.609  0.00  0.00    -0.300 OA
ATOM     12  C   UNL d   1     -40.341  15.922  21.512  0.00  0.00     0.026 A 
ATOM     13  C   UNL d   1     -40.667  15.520  20.872  0.00  0.00     0.002 A 
ENDBRANCH   4   5
ENDBRANCH   2   4
BRANCH   1  14
ATOM     14  C   UNL d   1     -39.992  14.290  17.959  0.00  0.00     0.119 A 
ATOM     15  C   UNL d   1     -39.413  13.958  17.484  0.00  0.00     0.084 A 
ATOM     16  C   UNL d   1     -39.417  14.344  16.764  0.00  0.00     0.014 A 
ATOM     17  C   UNL d   1     -40.005  14.929  16.780  0.00  0.00     0.037 A 
ATOM     18  S   UNL d   1     -40.362  14.890  17.532  0.00  0.00    -0.067 SA
BRANCH  15  19
ATOM     19  C   UNL d   1     -38.904  13.339  17.683  0.00  0.00     0.299 C 
ATOM     20  O   UNL d   1     -39.140  12.552  17.636  0.00  0.00    -0.264 OA
ATOM     21  N   UNL d   1     -38.140  13.518  17.934  0.00  0.00    -0.102 N 
ENDBRANCH  15  19
ENDBRANCH   1  14
TORSDOF 4
ENDMDL
MODEL 4
REMARK VINA RESULT:      -5.8      8.611      9.780
REMARK  4 active torsions:
REMARK  status: ('A' for Active; 'I' for Inactive)
REMARK    1  A    between atoms: N_3  and  C_1 
REMARK    2  A    between atoms: C_4  and  C_2 
REMARK       I    between atoms: C_6  and  N_3 
REMARK    3  A    between atoms: C_18  and  C_6 
REMARK    4  A    between atoms: C_17  and  C_18 
ROOT
ATOM      1  N   UNL d   1     -40.197  14.391  19.949  0.00  0.00    -0.201 NA
ATOM      2  C   UNL d   1     -40.544  14.656  19.252  0.00  0.00     0.280 C 
ATOM      3  O   UNL d   1     -40.841  15.428  19.191  0.00  0.00    -0.265 OA
ENDROOT
BRANCH   2   4
ATOM      4  C   UNL d   1     -40.598  14.143  18.597  0.00  0.00     0.063 C 
BRANCH   4   5
ATOM      5  C   UNL d   1     -40.139  14.278  17.912  0.00  0.00     0.007 A 
ATOM      6  C   UNL d   1     -39.482  13.800  17.743  0.00  0.00     0.026 A 
ATOM      7  C   UNL d   1     -39.031  13.942  17.058  0.00  0.00     0.119 A 
ATOM      8  O   UNL d   1     -38.359  13.563  16.751  0.00  0.00    -0.300 OA
ATOM      9  C   UNL d   1     -39.235  14.553  16.551  0.00  0.00     0.119 A 
ATOM     10  C   UNL d   1     -38.152  13.956  16.040  0.00  0.00     0.304 A 
ATOM     11  O   UNL d   1     -38.696  14.558  15.932  0.00  0.00    -0.300 OA
ATOM     12  C   UNL d   1     -39.890  15.032  16.719  0.00  0.00     0.026 A 
ATOM     13  C   UNL d   1     -40.335  14.890  17.396  0.00  0.00     0.002 A 
ENDBRANCH   4   5
ENDBRANCH   2   4
BRANCH   1  14
ATOM     14  C   UNL d   1     -40.141  14.894  20.598  0.00  0.00     0.119 A 
ATOM     15  C   UNL d   1     -39.647  14.800  21.244  0.00  0.00     0.084 A 
ATOM     16  C   UNL d   1     -39.770  15.424  21.756  0.00  0.00     0.014 A 
ATOM     17  C   UNL d   1     -40.350  15.922  21.433  0.00  0.00     0.037 A 
ATOM     18  S   UNL d   1     -40.578  15.583  20.707  0.00  0.00    -0.067 SA
BRANCH  15  19
ATOM     19  C   UNL d   1     -39.109  14.186  21.372  0.00  0.00     0.299 C 
ATOM     20  O   UNL d   1     -39.341  13.469  21.704  0.00  0.00    -0.264 OA
ATOM     21  N   UNL d   1     -38.321  14.298  21.159  0.00  0.00    -0.102 N 
ENDBRANCH  15  19
ENDBRANCH   1  14
TORSDOF 4
ENDMDL
MODEL 5
REMARK VINA RESULT:      -5.3      8.447      9.491
REMARK  4 active torsions:
REMARK  status: ('A' for Active; 'I' for Inactive)
REMARK    1  A    between atoms: N_3  and  C_1 
REMARK    2  A    between atoms: C_4  and  C_2 
REMARK       I    between atoms: C_6  and  N_3 
REMARK    3  A    between atoms: C_18  and  C_6 
REMARK    4  A    between atoms: C_17  and  C_18 
ROOT
ATOM      1  N   UNL d   1     -39.710  14.546  21.731  0.00  0.00    -0.201 NA
ATOM      2  C   UNL d   1     -40.156  15.113  21.336  0.00  0.00     0.280 C 
ATOM      3  O   UNL d   1     -40.012  15.922  21.448  0.00  0.00    -0.265 OA
ENDROOT
BRANCH   2   4
ATOM      4  C   UNL d   1     -40.761  14.872  20.815  0.00  0.00     0.063 C 
BRANCH   4   5
ATOM      5  C   UNL d   1     -40.674  14.967  19.990  0.00  0.00     0.007 A 
ATOM      6  C   UNL d   1     -40.511  14.314  19.505  0.00  0.00     0.026 A 
ATOM      7  C   UNL d   1     -40.426  14.418  18.684  0.00  0.00     0.119 A 
ATOM      8  O   UNL d   1     -40.265  13.879  18.072  0.00  0.00    -0.300 OA
ATOM      9  C   UNL d   1     -40.504  15.164  18.353  0.00  0.00     0.119 A 
ATOM     10  C   UNL d   1     -40.245  14.312  17.354  0.00  0.00     0.304 A 
ATOM     11  O   UNL d   1     -40.393  15.094  17.543  0.00  0.00    -0.300 OA
ATOM     12  C   UNL d   1     -40.667  15.817  18.836  0.00  0.00     0.026 A 
ATOM     13  C   UNL d   1     -40.750  15.712  19.648  0.00  0.00     0.002 A 
ENDBRANCH   4   5
ENDBRANCH   2   4
BRANCH   1  14
ATOM     14  C   UNL d   1     -39.112  14.779  22.245  0.00  0.00     0.119 A 
ATOM     15  C   UNL d   1     -38.596  14.285  22.645  0.00  0.00     0.084 A 
ATOM     16  C   UNL d   1     -38.093  14.746  23.095  0.00  0.00     0.014 A 
ATOM     17  C   UNL d   1     -38.290  15.543  22.980  0.00  0.00     0.037 A 
ATOM     18  S   UNL d   1     -38.930  15.557  22.447  0.00  0.00    -0.067 SA
BRANCH  15  19
ATOM     19  C   UNL d   1     -38.573  13.460  22.612  0.00  0.00     0.299 C 
ATOM     20  O   UNL d   1     -38.214  13.061  21.987  0.00  0.00    -0.264 OA
ATOM     21  N   UNL d   1     -38.920  13.028  23.222  0.00  0.00    -0.102 N 
ENDBRANCH  15  19
ENDBRANCH   1  14
TORSDOF 4
ENDMDL
