MODEL 1
REMARK VINA RESULT:      24.3      0.000      0.000
REMARK  4 active torsions:
REMARK  status: ('A' for Active; 'I' for Inactive)
REMARK    1  A    between atoms: N_3  and  C_1 
REMARK    2  A    between atoms: C_4  and  C_2 
REMARK       I    between atoms: C_6  and  N_3 
REMARK    3  A    between atoms: C_11  and  C_6 
REMARK    4  A    between atoms: C_13  and  C_11 
ROOT
ATOM      1  N   UNL d   1      58.033  49.702  49.952  0.00  0.00    -0.201 NA
ATOM      2  C   UNL d   1      58.796  49.582  50.222  0.00  0.00     0.280 C 
ATOM      3  O   UNL d   1      59.437  49.708  49.706  0.00  0.00    -0.265 OA
ENDROOT
BRANCH   2   4
ATOM      4  C   UNL d   1      58.943  49.340  50.990  0.00  0.00     0.062 C 
BRANCH   4   5
ATOM      5  C   UNL d   1      59.703  49.373  51.303  0.00  0.00     0.005 A 
ATOM      6  C   UNL d   1      59.826  49.672  52.067  0.00  0.00     0.003 A 
ATOM      7  C   UNL d   1      60.592  49.702  52.376  0.00  0.00     0.030 A 
ATOM      8  C   UNL d   1      61.233  49.438  51.931  0.00  0.00     0.140 A 
ATOM      9  C   UNL d   1      61.109  49.144  51.179  0.00  0.00     0.030 A 
ATOM     10  F   UNL d   1      61.986  49.473  52.249  0.00  0.00    -0.204 F 
ATOM     11  C   UNL d   1      60.351  49.106  50.855  0.00  0.00     0.003 A 
ENDBRANCH   4   5
ENDBRANCH   2   4
BRANCH   1  12
ATOM     12  C   UNL d   1      57.401  49.576  50.466  0.00  0.00     0.119 A 
ATOM     13  C   UNL d   1      56.658  49.304  50.248  0.00  0.00     0.084 A 
ATOM     14  C   UNL d   1      56.196  49.258  50.931  0.00  0.00     0.014 A 
ATOM     15  C   UNL d   1      56.663  49.504  51.573  0.00  0.00     0.037 A 
ATOM     16  S   UNL d   1      57.404  49.697  51.273  0.00  0.00    -0.067 SA
BRANCH  13  17
ATOM     17  C   UNL d   1      56.409  49.110  49.485  0.00  0.00     0.299 C 
ATOM     18  O   UNL d   1      56.488  48.342  49.204  0.00  0.00    -0.264 OA
ATOM     19  N   UNL d   1      56.078  49.696  49.003  0.00  0.00    -0.102 N 
ENDBRANCH  13  17
ENDBRANCH   1  12
TORSDOF 4
ENDMDL
