MODEL 1
REMARK VINA RESULT:       7.5      0.000      0.000
REMARK  2 active torsions:
REMARK  status: ('A' for Active; 'I' for Inactive)
REMARK    1  A    between atoms: C_7  and  C_1 
REMARK    2  A    between atoms: C_8  and  C_7 
ROOT
ATOM      1  C   UNL d   1      45.228 -13.958  44.801  0.00  0.00     0.118 A 
ATOM      2  N   UNL d   1      44.731 -15.297  44.856  0.00  0.00    -0.178 NA
ATOM      3  N   UNL d   1      46.135 -15.056  44.899  0.00  0.00    -0.178 NA
ATOM      4  C   UNL d   1      44.593 -14.482  44.805  0.00  0.00     0.286 A 
ATOM      5  C   UNL d   1      45.997 -14.241  44.848  0.00  0.00     0.286 A 
ATOM      6  C   UNL d   1      45.507 -15.602  44.904  0.00  0.00     0.226 A 
ATOM      7  S   UNL d   1      45.645 -16.412  44.954  0.00  0.00    -0.037 SA
ATOM      8  O   UNL d   1      43.805 -14.202  44.758  0.00  0.00    -0.265 OA
ATOM      9  O   UNL d   1      46.646 -13.714  44.845  0.00  0.00    -0.265 OA
ENDROOT
BRANCH   1  10
ATOM     10  C   UNL d   1      45.089 -13.140  44.750  0.00  0.00     0.034 C 
BRANCH  10  11
ATOM     11  C   UNL d   1      45.188 -12.759  44.035  0.00  0.00     0.100 A 
ATOM     12  O   UNL d   1      44.544 -12.684  43.520  0.00  0.00    -0.307 OA
ATOM     13  C   UNL d   1      44.810 -12.280  42.851  0.00  0.00     0.100 A 
ATOM     14  C   UNL d   1      44.353 -12.080  42.190  0.00  0.00     0.027 C 
ATOM     15  C   UNL d   1      45.592 -12.113  42.952  0.00  0.00     0.027 A 
ATOM     16  C   UNL d   1      45.848 -12.402  43.680  0.00  0.00     0.027 A 
ENDBRANCH  10  11
ENDBRANCH   1  10
TORSDOF 2
ENDMDL
MODEL 2
REMARK VINA RESULT:      10.2      1.895      3.059
REMARK  2 active torsions:
REMARK  status: ('A' for Active; 'I' for Inactive)
REMARK    1  A    between atoms: C_7  and  C_1 
REMARK    2  A    between atoms: C_8  and  C_7 
ROOT
ATOM      1  C   UNL d   1      44.894 -13.234  44.210  0.00  0.00     0.118 A 
ATOM      2  N   UNL d   1      44.062 -13.014  43.069  0.00  0.00    -0.178 NA
ATOM      3  N   UNL d   1      45.295 -12.311  43.197  0.00  0.00    -0.178 NA
ATOM      4  C   UNL d   1      44.205 -13.396  43.789  0.00  0.00     0.286 A 
ATOM      5  C   UNL d   1      45.438 -12.693  43.917  0.00  0.00     0.286 A 
ATOM      6  C   UNL d   1      44.604 -12.461  42.757  0.00  0.00     0.226 A 
ATOM      7  S   UNL d   1      44.462 -12.081  42.041  0.00  0.00    -0.037 SA
ATOM      8  O   UNL d   1      43.645 -13.946  44.080  0.00  0.00    -0.265 OA
ATOM      9  O   UNL d   1      46.140 -12.523  44.339  0.00  0.00    -0.265 OA
ENDROOT
BRANCH   1  10
ATOM     10  C   UNL d   1      45.038 -13.618  44.933  0.00  0.00     0.034 C 
BRANCH  10  11
ATOM     11  C   UNL d   1      45.466 -14.314  44.940  0.00  0.00     0.100 A 
ATOM     12  O   UNL d   1      45.066 -15.038  44.932  0.00  0.00    -0.307 OA
ATOM     13  C   UNL d   1      45.636 -15.635  44.942  0.00  0.00     0.100 A 
ATOM     14  C   UNL d   1      45.489 -16.449  44.939  0.00  0.00     0.027 C 
ATOM     15  C   UNL d   1      46.363 -15.287  44.955  0.00  0.00     0.027 A 
ATOM     16  C   UNL d   1      46.282 -14.466  44.954  0.00  0.00     0.027 A 
ENDBRANCH  10  11
ENDBRANCH   1  10
TORSDOF 2
ENDMDL
