MODEL 1
REMARK VINA RESULT:      -2.2      0.000      0.000
REMARK  8 active torsions:
REMARK  status: ('A' for Active; 'I' for Inactive)
REMARK    1  A    between atoms: C_14  and  N_1 
REMARK    2  A    between atoms: N_9  and  C_2 
REMARK    3  A    between atoms: C_6  and  C_5 
REMARK    4  A    between atoms: C_7  and  C_6 
REMARK       I    between atoms: N_8  and  C_7 
REMARK    5  A    between atoms: C_10  and  N_8 
REMARK    6  A    between atoms: C_16  and  N_9 
REMARK    7  A    between atoms: O_15  and  C_13 
REMARK    8  A    between atoms: C_19  and  O_15 
ROOT
ATOM      1  C   UNL d   1      32.917  19.896 -21.843  0.00  0.00     0.074 C 
ENDROOT
BRANCH   1   2
ATOM      2  C   UNL d   1      33.012  20.702 -21.682  0.00  0.00     0.093 A 
ATOM      3  C   UNL d   1      33.071  21.046 -20.935  0.00  0.00     0.272 A 
ATOM      4  N   UNL d   1      33.160  21.862 -21.028  0.00  0.00    -0.252 N 
ATOM      5  O   UNL d   1      33.045  20.641 -20.213  0.00  0.00    -0.266 OA
ATOM      6  C   UNL d   1      33.156  22.025 -21.839  0.00  0.00     0.182 A 
ATOM      7  S   UNL d   1      33.065  21.314 -22.245  0.00  0.00    -0.045 SA
BRANCH   4   8
ATOM      8  C   UNL d   1      33.238  22.407 -20.418  0.00  0.00     0.085 C 
ATOM      9  C   UNL d   1      32.614  22.543 -19.900  0.00  0.00     0.021 C 
ENDBRANCH   4   8
BRANCH   6  10
ATOM     10  N   UNL d   1      33.231  22.770 -22.175  0.00  0.00    -0.221 NA
BRANCH  10  11
ATOM     11  C   UNL d   1      33.095  22.884 -22.978  0.00  0.00     0.101 C 
ATOM     12  C   UNL d   1      32.915  23.634 -23.275  0.00  0.00     0.022 C 
ENDBRANCH  10  11
ENDBRANCH   6  10
ENDBRANCH   1   2
BRANCH   1  13
ATOM     13  C   UNL d   1      33.013  19.618 -22.614  0.00  0.00     0.280 C 
ATOM     14  N   UNL d   1      32.945  18.819 -22.777  0.00  0.00    -0.206 NA
ATOM     15  O   UNL d   1      33.180  20.153 -23.216  0.00  0.00    -0.265 OA
BRANCH  14  16
ATOM     16  C   UNL d   1      33.042  18.544 -23.549  0.00  0.00     0.107 A 
ATOM     17  C   UNL d   1      33.058  17.734 -23.703  0.00  0.00     0.118 A 
ATOM     18  C   UNL d   1      33.155  17.459 -24.474  0.00  0.00     0.026 A 
ATOM     19  C   UNL d   1      33.238  18.006 -25.097  0.00  0.00     0.002 A 
ATOM     20  C   UNL d   1      33.223  18.811 -24.945  0.00  0.00     0.002 A 
ATOM     21  C   UNL d   1      33.125  19.090 -24.175  0.00  0.00     0.021 A 
BRANCH  17  22
ATOM     22  O   UNL d   1      32.975  17.201 -23.077  0.00  0.00    -0.304 OA
BRANCH  22  23
ATOM     23  C   UNL d   1      33.053  16.394 -23.217  0.00  0.00     0.123 C 
ATOM     24  C   UNL d   1      33.122  15.867 -22.586  0.00  0.00     0.029 C 
ENDBRANCH  22  23
ENDBRANCH  17  22
ENDBRANCH  14  16
ENDBRANCH   1  13
TORSDOF 8
ENDMDL
MODEL 2
REMARK VINA RESULT:      -1.7      1.537      2.432
REMARK  8 active torsions:
REMARK  status: ('A' for Active; 'I' for Inactive)
REMARK    1  A    between atoms: C_14  and  N_1 
REMARK    2  A    between atoms: N_9  and  C_2 
REMARK    3  A    between atoms: C_6  and  C_5 
REMARK    4  A    between atoms: C_7  and  C_6 
REMARK       I    between atoms: N_8  and  C_7 
REMARK    5  A    between atoms: C_10  and  N_8 
REMARK    6  A    between atoms: C_16  and  N_9 
REMARK    7  A    between atoms: O_15  and  C_13 
REMARK    8  A    between atoms: C_19  and  O_15 
ROOT
ATOM      1  C   UNL d   1      33.159  19.281 -23.949  0.00  0.00     0.074 C 
ENDROOT
BRANCH   1   2
ATOM      2  C   UNL d   1      33.170  19.947 -23.459  0.00  0.00     0.093 A 
ATOM      3  C   UNL d   1      33.208  20.733 -23.706  0.00  0.00     0.272 A 
ATOM      4  N   UNL d   1      33.207  21.219 -23.037  0.00  0.00    -0.252 N 
ATOM      5  O   UNL d   1      33.240  20.991 -24.491  0.00  0.00    -0.266 OA
ATOM      6  C   UNL d   1      33.169  20.729 -22.371  0.00  0.00     0.182 A 
ATOM      7  S   UNL d   1      33.146  19.947 -22.626  0.00  0.00    -0.045 SA
BRANCH   4   8
ATOM      8  C   UNL d   1      33.239  22.040 -23.043  0.00  0.00     0.085 C 
ATOM      9  C   UNL d   1      32.552  22.481 -23.140  0.00  0.00     0.021 C 
ENDBRANCH   4   8
BRANCH   6  10
ATOM     10  N   UNL d   1      33.156  20.987 -21.592  0.00  0.00    -0.221 NA
BRANCH  10  11
ATOM     11  C   UNL d   1      33.041  20.456 -20.976  0.00  0.00     0.101 C 
ATOM     12  C   UNL d   1      33.103  20.699 -20.189  0.00  0.00     0.022 C 
ENDBRANCH  10  11
ENDBRANCH   6  10
ENDBRANCH   1   2
BRANCH   1  13
ATOM     13  C   UNL d   1      32.448  18.884 -24.084  0.00  0.00     0.280 C 
ATOM     14  N   UNL d   1      32.449  18.093 -24.294  0.00  0.00    -0.206 NA
ATOM     15  O   UNL d   1      31.739  19.293 -24.006  0.00  0.00    -0.265 OA
BRANCH  14  16
ATOM     16  C   UNL d   1      31.737  17.698 -24.428  0.00  0.00     0.107 A 
ATOM     17  C   UNL d   1      31.654  16.906 -24.218  0.00  0.00     0.118 A 
ATOM     18  C   UNL d   1      30.942  16.511 -24.352  0.00  0.00     0.026 A 
ATOM     19  C   UNL d   1      30.307  16.921 -24.703  0.00  0.00     0.002 A 
ATOM     20  C   UNL d   1      30.388  17.709 -24.912  0.00  0.00     0.002 A 
ATOM     21  C   UNL d   1      31.099  18.106 -24.779  0.00  0.00     0.021 A 
BRANCH  17  22
ATOM     22  O   UNL d   1      32.291  16.510 -23.871  0.00  0.00    -0.304 OA
BRANCH  22  23
ATOM     23  C   UNL d   1      32.196  15.736 -23.611  0.00  0.00     0.123 C 
ATOM     24  C   UNL d   1      32.624  15.458 -22.962  0.00  0.00     0.029 C 
ENDBRANCH  22  23
ENDBRANCH  17  22
ENDBRANCH  14  16
ENDBRANCH   1  13
TORSDOF 8
ENDMDL
MODEL 3
REMARK VINA RESULT:       0.0      1.542      4.760
REMARK  8 active torsions:
REMARK  status: ('A' for Active; 'I' for Inactive)
REMARK    1  A    between atoms: C_14  and  N_1 
REMARK    2  A    between atoms: N_9  and  C_2 
REMARK    3  A    between atoms: C_6  and  C_5 
REMARK    4  A    between atoms: C_7  and  C_6 
REMARK       I    between atoms: N_8  and  C_7 
REMARK    5  A    between atoms: C_10  and  N_8 
REMARK    6  A    between atoms: C_16  and  N_9 
REMARK    7  A    between atoms: O_15  and  C_13 
REMARK    8  A    between atoms: C_19  and  O_15 
ROOT
ATOM      1  C   UNL d   1      32.842  18.749 -22.504  0.00  0.00     0.074 C 
ENDROOT
BRANCH   1   2
ATOM      2  C   UNL d   1      32.584  18.140 -23.001  0.00  0.00     0.093 A 
ATOM      3  C   UNL d   1      32.765  17.339 -22.925  0.00  0.00     0.272 A 
ATOM      4  N   UNL d   1      32.393  16.927 -23.537  0.00  0.00    -0.252 N 
ATOM      5  O   UNL d   1      33.239  17.006 -22.334  0.00  0.00    -0.266 OA
ATOM      6  C   UNL d   1      31.980  17.477 -23.996  0.00  0.00     0.182 A 
ATOM      7  S   UNL d   1      32.094  18.224 -23.670  0.00  0.00    -0.045 SA
BRANCH   4   8
ATOM      8  C   UNL d   1      32.434  16.115 -23.660  0.00  0.00     0.085 C 
ATOM      9  C   UNL d   1      32.976  15.803 -24.194  0.00  0.00     0.021 C 
ENDBRANCH   4   8
BRANCH   6  10
ATOM     10  N   UNL d   1      31.533  17.300 -24.662  0.00  0.00    -0.221 NA
BRANCH  10  11
ATOM     11  C   UNL d   1      31.169  17.897 -25.093  0.00  0.00     0.101 C 
ATOM     12  C   UNL d   1      30.351  18.010 -25.055  0.00  0.00     0.022 C 
ENDBRANCH  10  11
ENDBRANCH   6  10
ENDBRANCH   1   2
BRANCH   1  13
ATOM     13  C   UNL d   1      32.953  19.508 -22.809  0.00  0.00     0.280 C 
ATOM     14  N   UNL d   1      32.840  20.165 -22.335  0.00  0.00    -0.206 NA
ATOM     15  O   UNL d   1      33.177  19.595 -23.596  0.00  0.00    -0.265 OA
BRANCH  14  16
ATOM     16  C   UNL d   1      32.952  20.923 -22.643  0.00  0.00     0.107 A 
ATOM     17  C   UNL d   1      32.900  21.583 -22.152  0.00  0.00     0.118 A 
ATOM     18  C   UNL d   1      33.011  22.340 -22.460  0.00  0.00     0.026 A 
ATOM     19  C   UNL d   1      33.177  22.432 -23.271  0.00  0.00     0.002 A 
ATOM     20  C   UNL d   1      33.229  21.777 -23.759  0.00  0.00     0.002 A 
ATOM     21  C   UNL d   1      33.118  21.018 -23.455  0.00  0.00     0.021 A 
BRANCH  17  22
ATOM     22  O   UNL d   1      32.735  21.479 -21.348  0.00  0.00    -0.304 OA
BRANCH  22  23
ATOM     23  C   UNL d   1      32.167  21.950 -20.986  0.00  0.00     0.123 C 
ATOM     24  C   UNL d   1      32.394  22.566 -20.486  0.00  0.00     0.029 C 
ENDBRANCH  22  23
ENDBRANCH  17  22
ENDBRANCH  14  16
ENDBRANCH   1  13
TORSDOF 8
ENDMDL
