MODEL 1
REMARK VINA RESULT:      -9.8      0.000      0.000
REMARK  4 active torsions:
REMARK  status: ('A' for Active; 'I' for Inactive)
REMARK    1  A    between atoms: N_10  and  C_3 
REMARK    2  A    between atoms: C_11  and  C_5 
REMARK    3  A    between atoms: C_13  and  N_10 
REMARK    4  A    between atoms: C_15  and  C_13 
ROOT
ATOM      1  N   UNL d   1     -47.756  12.232  23.260  0.00  0.00    -0.195 N 
ATOM      2  C   UNL d   1     -48.404  12.746  23.122  0.00  0.00     0.167 A 
ATOM      3  C   UNL d   1     -46.984  12.513  23.163  0.00  0.00     0.167 A 
ATOM      4  N   UNL d   1     -48.655  11.183  23.582  0.00  0.00    -0.163 NA
ATOM      5  C   UNL d   1     -49.158  12.473  23.216  0.00  0.00     0.055 A 
ATOM      6  N   UNL d   1     -48.258  13.522  22.893  0.00  0.00    -0.227 NA
ATOM      7  C   UNL d   1     -46.856  13.282  22.937  0.00  0.00     0.054 A 
ATOM      8  C   UNL d   1     -49.294  11.689  23.446  0.00  0.00     0.104 A 
ATOM      9  C   UNL d   1     -47.499  13.802  22.797  0.00  0.00     0.086 A 
ATOM     10  C   UNL d   1     -46.178  13.707  22.800  0.00  0.00     0.005 A 
ATOM     11  C   UNL d   1     -50.061  11.420  23.539  0.00  0.00     0.023 C 
ATOM     12  C   UNL d   1     -47.201  14.534  22.578  0.00  0.00     0.019 A 
ATOM     13  C   UNL d   1     -46.373  14.470  22.582  0.00  0.00     0.002 A 
ENDROOT
BRANCH   3  14
ATOM     14  N   UNL d   1     -46.326  11.997  23.301  0.00  0.00    -0.224 NA
BRANCH  14  15
ATOM     15  C   UNL d   1     -46.122  11.276  23.694  0.00  0.00     0.120 C 
BRANCH  15  16
ATOM     16  C   UNL d   1     -45.368  10.938  23.579  0.00  0.00     0.101 A 
ATOM     17  N   UNL d   1     -44.718  11.429  23.343  0.00  0.00    -0.242 NA
ATOM     18  C   UNL d   1     -43.955  11.091  23.226  0.00  0.00     0.099 A 
ATOM     19  C   UNL d   1     -43.841  10.263  23.344  0.00  0.00     0.021 A 
ATOM     20  C   UNL d   1     -44.490   9.773  23.580  0.00  0.00     0.003 A 
ATOM     21  C   UNL d   1     -45.254  10.118  23.696  0.00  0.00     0.021 A 
ENDBRANCH  15  16
ENDBRANCH  14  15
ENDBRANCH   3  14
BRANCH   5  22
ATOM     22  C   UNL d   1     -49.793  12.975  23.081  0.00  0.00     0.004 A 
ATOM     23  C   UNL d   1     -50.148  13.005  22.345  0.00  0.00     0.000 A 
ATOM     24  C   UNL d   1     -50.790  13.514  22.209  0.00  0.00     0.000 A 
ATOM     25  C   UNL d   1     -51.064  13.982  22.811  0.00  0.00     0.000 A 
ATOM     26  C   UNL d   1     -50.709  13.956  23.555  0.00  0.00     0.000 A 
ATOM     27  C   UNL d   1     -50.076  13.454  23.685  0.00  0.00     0.000 A 
ENDBRANCH   5  22
TORSDOF 4
ENDMDL
MODEL 2
REMARK VINA RESULT:      -8.2      1.331      2.500
REMARK  4 active torsions:
REMARK  status: ('A' for Active; 'I' for Inactive)
REMARK    1  A    between atoms: N_10  and  C_3 
REMARK    2  A    between atoms: C_11  and  C_5 
REMARK    3  A    between atoms: C_13  and  N_10 
REMARK    4  A    between atoms: C_15  and  C_13 
ROOT
ATOM      1  N   UNL d   1     -47.514  13.674  22.800  0.00  0.00    -0.195 N 
ATOM      2  C   UNL d   1     -48.337  13.807  22.891  0.00  0.00     0.167 A 
ATOM      3  C   UNL d   1     -47.199  12.929  22.973  0.00  0.00     0.167 A 
ATOM      4  N   UNL d   1     -47.343  15.015  22.370  0.00  0.00    -0.163 NA
ATOM      5  C   UNL d   1     -48.645  14.534  22.722  0.00  0.00     0.055 A 
ATOM      6  N   UNL d   1     -48.816  13.191  23.151  0.00  0.00    -0.227 NA
ATOM      7  C   UNL d   1     -47.685  12.331  23.230  0.00  0.00     0.054 A 
ATOM      8  C   UNL d   1     -48.154  15.147  22.460  0.00  0.00     0.104 A 
ATOM      9  C   UNL d   1     -48.509  12.456  23.323  0.00  0.00     0.086 A 
ATOM     10  C   UNL d   1     -47.541  11.560  23.438  0.00  0.00     0.005 A 
ATOM     11  C   UNL d   1     -48.474  15.880  22.291  0.00  0.00     0.023 C 
ATOM     12  C   UNL d   1     -48.852  11.760  23.586  0.00  0.00     0.019 A 
ATOM     13  C   UNL d   1     -48.242  11.201  23.657  0.00  0.00     0.002 A 
ENDROOT
BRANCH   3  14
ATOM     14  N   UNL d   1     -46.368  12.790  22.883  0.00  0.00    -0.224 NA
BRANCH  14  15
ATOM     15  C   UNL d   1     -45.626  13.195  22.883  0.00  0.00     0.120 C 
BRANCH  15  16
ATOM     16  C   UNL d   1     -44.962  12.849  22.515  0.00  0.00     0.101 A 
ATOM     17  N   UNL d   1     -44.644  12.123  22.817  0.00  0.00    -0.242 NA
ATOM     18  C   UNL d   1     -43.974  11.770  22.449  0.00  0.00     0.099 A 
ATOM     19  C   UNL d   1     -43.620  12.142  21.778  0.00  0.00     0.021 A 
ATOM     20  C   UNL d   1     -43.937  12.867  21.476  0.00  0.00     0.003 A 
ATOM     21  C   UNL d   1     -44.611  13.216  21.851  0.00  0.00     0.021 A 
ENDBRANCH  15  16
ENDBRANCH  14  15
ENDBRANCH   3  14
BRANCH   5  22
ATOM     22  C   UNL d   1     -49.451  14.665  22.810  0.00  0.00     0.004 A 
ATOM     23  C   UNL d   1     -49.750  14.935  23.521  0.00  0.00     0.000 A 
ATOM     24  C   UNL d   1     -50.565  15.067  23.611  0.00  0.00     0.000 A 
ATOM     25  C   UNL d   1     -51.064  14.927  22.988  0.00  0.00     0.000 A 
ATOM     26  C   UNL d   1     -50.767  14.655  22.268  0.00  0.00     0.000 A 
ATOM     27  C   UNL d   1     -49.963  14.525  22.184  0.00  0.00     0.000 A 
ENDBRANCH   5  22
TORSDOF 4
ENDMDL
MODEL 3
REMARK VINA RESULT:      -7.0      8.142      9.446
REMARK  4 active torsions:
REMARK  status: ('A' for Active; 'I' for Inactive)
REMARK    1  A    between atoms: N_10  and  C_3 
REMARK    2  A    between atoms: C_11  and  C_5 
REMARK    3  A    between atoms: C_13  and  N_10 
REMARK    4  A    between atoms: C_15  and  C_13 
ROOT
ATOM      1  N   UNL d   1     -39.374  14.524  19.653  0.00  0.00    -0.195 N 
ATOM      2  C   UNL d   1     -39.816  14.820  19.004  0.00  0.00     0.167 A 
ATOM      3  C   UNL d   1     -39.606  14.709  20.425  0.00  0.00     0.167 A 
ATOM      4  N   UNL d   1     -38.491  13.873  18.752  0.00  0.00    -0.163 NA
ATOM      5  C   UNL d   1     -39.591  14.640  18.250  0.00  0.00     0.055 A 
ATOM      6  N   UNL d   1     -40.475  15.291  19.151  0.00  0.00    -0.227 NA
ATOM      7  C   UNL d   1     -40.258  15.174  20.554  0.00  0.00     0.054 A 
ATOM      8  C   UNL d   1     -38.926  14.165  18.114  0.00  0.00     0.104 A 
ATOM      9  C   UNL d   1     -40.706  15.475  19.911  0.00  0.00     0.086 A 
ATOM     10  C   UNL d   1     -40.613  15.445  21.231  0.00  0.00     0.005 A 
ATOM     11  C   UNL d   1     -38.705  13.987  17.347  0.00  0.00     0.023 C 
ATOM     12  C   UNL d   1     -41.324  15.922  20.209  0.00  0.00     0.019 A 
ATOM     13  C   UNL d   1     -41.263  15.900  21.037  0.00  0.00     0.002 A 
ENDROOT
BRANCH   3  14
ATOM     14  N   UNL d   1     -39.161  14.411  21.082  0.00  0.00    -0.224 NA
BRANCH  14  15
ATOM     15  C   UNL d   1     -38.372  14.370  21.382  0.00  0.00     0.120 C 
BRANCH  15  16
ATOM     16  C   UNL d   1     -38.231  14.055  22.142  0.00  0.00     0.101 A 
ATOM     17  N   UNL d   1     -38.125  14.578  22.801  0.00  0.00    -0.242 NA
ATOM     18  C   UNL d   1     -37.982  14.264  23.570  0.00  0.00     0.099 A 
ATOM     19  C   UNL d   1     -37.945  13.427  23.681  0.00  0.00     0.021 A 
ATOM     20  C   UNL d   1     -38.051  12.905  23.022  0.00  0.00     0.003 A 
ATOM     21  C   UNL d   1     -38.194  13.227  22.253  0.00  0.00     0.021 A 
ENDBRANCH  15  16
ENDBRANCH  14  15
ENDBRANCH   3  14
BRANCH   5  22
ATOM     22  C   UNL d   1     -40.024  14.930  17.616  0.00  0.00     0.004 A 
ATOM     23  C   UNL d   1     -39.806  15.628  17.252  0.00  0.00     0.000 A 
ATOM     24  C   UNL d   1     -40.244  15.922  16.610  0.00  0.00     0.000 A 
ATOM     25  C   UNL d   1     -40.891  15.511  16.346  0.00  0.00     0.000 A 
ATOM     26  C   UNL d   1     -41.115  14.806  16.711  0.00  0.00     0.000 A 
ATOM     27  C   UNL d   1     -40.681  14.520  17.343  0.00  0.00     0.000 A 
ENDBRANCH   5  22
TORSDOF 4
ENDMDL
