MODEL 1
REMARK VINA RESULT:      -9.1      0.000      0.000
REMARK  4 active torsions:
REMARK  status: ('A' for Active; 'I' for Inactive)
REMARK    1  A    between atoms: C_2  and  C_1 
REMARK    2  A    between atoms: C_3  and  C_4 
REMARK       I    between atoms: N_12  and  C_3 
REMARK    3  A    between atoms: C_4  and  C_5 
REMARK    4  A    between atoms: C_5  and  C_11 
ROOT
ATOM      1  C   UNL d   1      53.246  29.577  54.049  0.00  0.00     0.071 A 
ATOM      2  C   UNL d   1      53.696  30.267  54.077  0.00  0.00     0.004 A 
ATOM      3  C   UNL d   1      53.543  30.879  53.545  0.00  0.00     0.000 A 
ATOM      4  C   UNL d   1      52.639  29.498  53.487  0.00  0.00     0.004 A 
ATOM      5  C   UNL d   1      52.487  30.110  52.955  0.00  0.00    -0.000 A 
ATOM      6  C   UNL d   1      52.937  30.800  52.983  0.00  0.00    -0.000 A 
ENDROOT
BRANCH   3   7
ATOM      7  C   UNL d   1      54.000  31.571  53.579  0.00  0.00     0.005 C 
BRANCH   7   8
ATOM      8  C   UNL d   1      53.801  32.169  54.123  0.00  0.00     0.062 C 
BRANCH   8   9
ATOM      9  C   UNL d   1      54.327  32.788  54.267  0.00  0.00     0.279 C 
ATOM     10  O   UNL d   1      54.784  33.088  53.646  0.00  0.00    -0.265 OA
ATOM     11  N   UNL d   1      54.397  33.107  55.026  0.00  0.00    -0.205 NA
ATOM     12  C   UNL d   1      54.926  33.730  55.164  0.00  0.00     0.123 C 
ENDBRANCH   8   9
ENDBRANCH   7   8
ENDBRANCH   3   7
BRANCH   1  13
ATOM     13  C   UNL d   1      53.396  28.964  54.578  0.00  0.00     0.419 C 
ATOM     14  F   UNL d   1      53.153  28.890  55.415  0.00  0.00    -0.166 F 
ATOM     15  F   UNL d   1      53.828  28.230  54.461  0.00  0.00    -0.166 F 
ATOM     16  F   UNL d   1      53.530  28.406  55.067  0.00  0.00    -0.166 F 
ENDBRANCH   1  13
TORSDOF 4
ENDMDL
MODEL 2
REMARK VINA RESULT:      -9.0      3.181      3.892
REMARK  4 active torsions:
REMARK  status: ('A' for Active; 'I' for Inactive)
REMARK    1  A    between atoms: C_2  and  C_1 
REMARK    2  A    between atoms: C_3  and  C_4 
REMARK       I    between atoms: N_12  and  C_3 
REMARK    3  A    between atoms: C_4  and  C_5 
REMARK    4  A    between atoms: C_5  and  C_11 
ROOT
ATOM      1  C   UNL d   1      54.182  32.913  54.329  0.00  0.00     0.071 A 
ATOM      2  C   UNL d   1      53.650  33.406  53.936  0.00  0.00     0.004 A 
ATOM      3  C   UNL d   1      53.127  33.089  53.383  0.00  0.00     0.000 A 
ATOM      4  C   UNL d   1      54.191  32.098  54.168  0.00  0.00     0.004 A 
ATOM      5  C   UNL d   1      53.668  31.781  53.614  0.00  0.00    -0.000 A 
ATOM      6  C   UNL d   1      53.136  32.274  53.221  0.00  0.00    -0.000 A 
ENDROOT
BRANCH   3   7
ATOM      7  C   UNL d   1      52.595  33.591  52.992  0.00  0.00     0.005 C 
BRANCH   7   8
ATOM      8  C   UNL d   1      51.780  33.523  53.142  0.00  0.00     0.062 C 
BRANCH   8   9
ATOM      9  C   UNL d   1      51.243  34.003  52.739  0.00  0.00     0.279 C 
ATOM     10  O   UNL d   1      51.479  34.384  52.044  0.00  0.00    -0.265 OA
ATOM     11  N   UNL d   1      50.476  34.104  53.028  0.00  0.00    -0.205 NA
ATOM     12  C   UNL d   1      49.941  34.587  52.620  0.00  0.00     0.123 C 
ENDBRANCH   8   9
ENDBRANCH   7   8
ENDBRANCH   3   7
BRANCH   1  13
ATOM     13  C   UNL d   1      54.705  33.226  54.882  0.00  0.00     0.419 C 
ATOM     14  F   UNL d   1      55.470  33.629  54.747  0.00  0.00    -0.166 F 
ATOM     15  F   UNL d   1      54.652  33.247  55.740  0.00  0.00    -0.166 F 
ATOM     16  F   UNL d   1      55.188  33.515  55.384  0.00  0.00    -0.166 F 
ENDBRANCH   1  13
TORSDOF 4
ENDMDL
MODEL 3
REMARK VINA RESULT:      -9.0      2.786      4.082
REMARK  4 active torsions:
REMARK  status: ('A' for Active; 'I' for Inactive)
REMARK    1  A    between atoms: C_2  and  C_1 
REMARK    2  A    between atoms: C_3  and  C_4 
REMARK       I    between atoms: N_12  and  C_3 
REMARK    3  A    between atoms: C_4  and  C_5 
REMARK    4  A    between atoms: C_5  and  C_11 
ROOT
ATOM      1  C   UNL d   1      54.331  33.662  54.729  0.00  0.00     0.071 A 
ATOM      2  C   UNL d   1      54.222  33.011  54.234  0.00  0.00     0.004 A 
ATOM      3  C   UNL d   1      53.535  32.949  53.782  0.00  0.00     0.000 A 
ATOM      4  C   UNL d   1      53.750  34.254  54.773  0.00  0.00     0.004 A 
ATOM      5  C   UNL d   1      53.063  34.192  54.320  0.00  0.00    -0.000 A 
ATOM      6  C   UNL d   1      52.954  33.542  53.825  0.00  0.00    -0.000 A 
ENDROOT
BRANCH   3   7
ATOM      7  C   UNL d   1      53.432  32.293  53.286  0.00  0.00     0.005 C 
BRANCH   7   8
ATOM      8  C   UNL d   1      52.954  31.660  53.537  0.00  0.00     0.062 C 
BRANCH   8   9
ATOM      9  C   UNL d   1      52.899  30.976  53.077  0.00  0.00     0.279 C 
ATOM     10  O   UNL d   1      52.839  31.040  52.255  0.00  0.00    -0.265 OA
ATOM     11  N   UNL d   1      52.902  30.232  53.437  0.00  0.00    -0.205 NA
ATOM     12  C   UNL d   1      52.847  29.549  52.971  0.00  0.00     0.123 C 
ENDBRANCH   8   9
ENDBRANCH   7   8
ENDBRANCH   3   7
BRANCH   1  13
ATOM     13  C   UNL d   1      55.015  33.727  55.182  0.00  0.00     0.419 C 
ATOM     14  F   UNL d   1      55.783  34.088  54.969  0.00  0.00    -0.166 F 
ATOM     15  F   UNL d   1      55.171  33.461  55.985  0.00  0.00    -0.166 F 
ATOM     16  F   UNL d   1      55.645  33.789  55.592  0.00  0.00    -0.166 F 
ENDBRANCH   1  13
TORSDOF 4
ENDMDL
MODEL 4
REMARK VINA RESULT:      -8.7      3.281      4.613
REMARK  4 active torsions:
REMARK  status: ('A' for Active; 'I' for Inactive)
REMARK    1  A    between atoms: C_2  and  C_1 
REMARK    2  A    between atoms: C_3  and  C_4 
REMARK       I    between atoms: N_12  and  C_3 
REMARK    3  A    between atoms: C_4  and  C_5 
REMARK    4  A    between atoms: C_5  and  C_11 
ROOT
ATOM      1  C   UNL d   1      53.640  34.321  54.455  0.00  0.00     0.071 A 
ATOM      2  C   UNL d   1      53.450  33.701  53.945  0.00  0.00     0.004 A 
ATOM      3  C   UNL d   1      53.879  32.997  53.976  0.00  0.00     0.000 A 
ATOM      4  C   UNL d   1      54.263  34.236  54.999  0.00  0.00     0.004 A 
ATOM      5  C   UNL d   1      54.691  33.532  55.030  0.00  0.00    -0.000 A 
ATOM      6  C   UNL d   1      54.501  32.912  54.520  0.00  0.00    -0.000 A 
ENDROOT
BRANCH   3   7
ATOM      7  C   UNL d   1      53.682  32.378  53.460  0.00  0.00     0.005 C 
BRANCH   7   8
ATOM      8  C   UNL d   1      53.366  31.672  53.767  0.00  0.00     0.062 C 
BRANCH   8   9
ATOM      9  C   UNL d   1      53.101  31.081  53.255  0.00  0.00     0.279 C 
ATOM     10  O   UNL d   1      52.780  31.290  52.522  0.00  0.00    -0.265 OA
ATOM     11  N   UNL d   1      53.155  30.286  53.474  0.00  0.00    -0.205 NA
ATOM     12  C   UNL d   1      52.887  29.697  52.956  0.00  0.00     0.123 C 
ENDBRANCH   8   9
ENDBRANCH   7   8
ENDBRANCH   3   7
BRANCH   1  13
ATOM     13  C   UNL d   1      53.214  35.024  54.428  0.00  0.00     0.419 C 
ATOM     14  F   UNL d   1      53.241  35.659  53.826  0.00  0.00    -0.166 F 
ATOM     15  F   UNL d   1      52.628  35.335  54.975  0.00  0.00    -0.166 F 
ATOM     16  F   UNL d   1      52.827  35.670  54.397  0.00  0.00    -0.166 F 
ENDBRANCH   1  13
TORSDOF 4
ENDMDL
MODEL 5
REMARK VINA RESULT:      -8.3      2.535      3.121
REMARK  4 active torsions:
REMARK  status: ('A' for Active; 'I' for Inactive)
REMARK    1  A    between atoms: C_2  and  C_1 
REMARK    2  A    between atoms: C_3  and  C_4 
REMARK       I    between atoms: N_12  and  C_3 
REMARK    3  A    between atoms: C_4  and  C_5 
REMARK    4  A    between atoms: C_5  and  C_11 
ROOT
ATOM      1  C   UNL d   1      53.562  31.615  53.706  0.00  0.00     0.071 A 
ATOM      2  C   UNL d   1      53.029  32.031  53.233  0.00  0.00     0.004 A 
ATOM      3  C   UNL d   1      52.961  32.849  53.312  0.00  0.00     0.000 A 
ATOM      4  C   UNL d   1      54.030  32.021  54.261  0.00  0.00     0.004 A 
ATOM      5  C   UNL d   1      53.961  32.839  54.340  0.00  0.00    -0.000 A 
ATOM      6  C   UNL d   1      53.428  33.254  53.867  0.00  0.00    -0.000 A 
ENDROOT
BRANCH   3   7
ATOM      7  C   UNL d   1      52.423  33.260  52.833  0.00  0.00     0.005 C 
BRANCH   7   8
ATOM      8  C   UNL d   1      51.762  33.628  53.180  0.00  0.00     0.062 C 
BRANCH   8   9
ATOM      9  C   UNL d   1      51.199  34.000  52.705  0.00  0.00     0.279 C 
ATOM     10  O   UNL d   1      51.392  34.203  51.927  0.00  0.00    -0.265 OA
ATOM     11  N   UNL d   1      50.447  34.168  53.004  0.00  0.00    -0.205 NA
ATOM     12  C   UNL d   1      49.886  34.541  52.522  0.00  0.00     0.123 C 
ENDBRANCH   8   9
ENDBRANCH   7   8
ENDBRANCH   3   7
BRANCH   1  13
ATOM     13  C   UNL d   1      53.633  30.799  53.630  0.00  0.00     0.419 C 
ATOM     14  F   UNL d   1      53.249  30.169  54.100  0.00  0.00    -0.166 F 
ATOM     15  F   UNL d   1      54.099  30.336  53.075  0.00  0.00    -0.166 F 
ATOM     16  F   UNL d   1      53.694  30.051  53.566  0.00  0.00    -0.166 F 
ENDBRANCH   1  13
TORSDOF 4
ENDMDL
