MODEL 1
REMARK VINA RESULT:      15.8      0.000      0.000
REMARK  2 active torsions:
REMARK  status: ('A' for Active; 'I' for Inactive)
REMARK    1  A    between atoms: N_2  and  S_1 
REMARK    2  A    between atoms: C_3  and  S_1 
ROOT
ATOM      1  N   UNL d   1      13.719  11.881  -2.774  0.00  0.00    -0.229 N 
ATOM      2  C   UNL d   1      14.472  11.982  -2.477  0.00  0.00     0.092 A 
ATOM      3  C   UNL d   1      14.581  11.983  -1.659  0.00  0.00     0.018 A 
ATOM      4  C   UNL d   1      13.069  11.779  -2.273  0.00  0.00     0.092 A 
ATOM      5  C   UNL d   1      13.918  11.880  -1.149  0.00  0.00     0.003 A 
ATOM      6  C   UNL d   1      13.172  11.780  -1.475  0.00  0.00     0.020 A 
ATOM      7  C   UNL d   1      15.335  12.084  -1.335  0.00  0.00     0.002 A 
ATOM      8  C   UNL d   1      14.035  11.882  -0.333  0.00  0.00     0.000 A 
ATOM      9  C   UNL d   1      15.434  12.084  -0.523  0.00  0.00     0.000 A 
ATOM     10  C   UNL d   1      14.783  11.982  -0.022  0.00  0.00     0.000 A 
ENDROOT
BRANCH   1  11
ATOM     11  S   UNL d   1      13.611  11.880  -3.617  0.00  0.00     0.277 S 
ATOM     12  O   UNL d   1      14.440  11.796  -3.722  0.00  0.00    -0.199 OA
ATOM     13  O   UNL d   1      12.785  11.965  -3.519  0.00  0.00    -0.199 OA
BRANCH  11  14
ATOM     14  C   UNL d   1      13.490  11.882  -4.425  0.00  0.00     0.133 A 
ATOM     15  S   UNL d   1      12.770  11.780  -4.777  0.00  0.00    -0.074 SA
ATOM     16  C   UNL d   1      12.876  11.817  -5.631  0.00  0.00     0.036 A 
ATOM     17  C   UNL d   1      13.704  11.948  -5.776  0.00  0.00     0.008 A 
ATOM     18  C   UNL d   1      14.069  11.987  -5.051  0.00  0.00     0.020 A 
ENDBRANCH  11  14
ENDBRANCH   1  11
TORSDOF 2
ENDMDL
