MODEL 1
REMARK VINA RESULT:      -7.9      0.000      0.000
REMARK  5 active torsions:
REMARK  status: ('A' for Active; 'I' for Inactive)
REMARK       I    between atoms: C_2  and  N_1 
REMARK    1  A    between atoms: C_5  and  C_2 
REMARK    2  A    between atoms: S_7  and  C_3 
REMARK    3  A    between atoms: N_4  and  C_8 
REMARK    4  A    between atoms: C_17  and  S_7 
REMARK    5  A    between atoms: C_18  and  C_17 
ROOT
ATOM      1  N   UNL d   1     -49.555  12.734  23.134  0.00  0.00    -0.251 N 
ATOM      2  C   UNL d   1     -49.302  13.433  22.777  0.00  0.00     0.266 C 
ATOM      3  C   UNL d   1     -49.075  12.100  23.369  0.00  0.00     0.182 A 
ATOM      4  N   UNL d   1     -49.561  11.527  23.697  0.00  0.00    -0.219 NA
ATOM      5  O   UNL d   1     -48.500  13.554  22.620  0.00  0.00    -0.267 OA
ATOM      6  C   UNL d   1     -50.344  12.544  23.322  0.00  0.00     0.106 A 
ATOM      7  C   UNL d   1     -50.342  11.792  23.672  0.00  0.00     0.120 A 
ENDROOT
BRANCH   3   8
ATOM      8  S   UNL d   1     -48.257  12.066  23.282  0.00  0.00    -0.049 SA
BRANCH   8   9
ATOM      9  C   UNL d   1     -47.827  11.508  23.698  0.00  0.00     0.038 C 
BRANCH   9  10
ATOM     10  C   UNL d   1     -47.019  11.438  23.578  0.00  0.00     0.007 A 
ATOM     11  C   UNL d   1     -46.647  10.708  23.651  0.00  0.00     0.002 A 
ATOM     12  C   UNL d   1     -45.834  10.637  23.530  0.00  0.00     0.024 A 
ATOM     13  C   UNL d   1     -45.396  11.303  23.336  0.00  0.00     0.127 A 
ATOM     14  C   UNL d   1     -45.755  12.037  23.261  0.00  0.00     0.024 A 
ATOM     15  C   UNL d   1     -46.571  12.110  23.381  0.00  0.00     0.002 A 
BRANCH  13  16
ATOM     16  N   UNL d   1     -44.578  11.238  23.214  0.00  0.00    -0.114 N 
ATOM     17  O   UNL d   1     -44.126  10.686  23.659  0.00  0.00    -0.532 OA
ATOM     18  O   UNL d   1     -44.192  11.716  22.651  0.00  0.00    -0.532 OA
ENDBRANCH  13  16
ENDBRANCH   9  10
ENDBRANCH   8   9
ENDBRANCH   3   8
BRANCH   2  19
ATOM     19  C   UNL d   1     -49.854  14.019  22.574  0.00  0.00     0.057 A 
ATOM     20  C   UNL d   1     -49.740  14.797  22.839  0.00  0.00     0.005 A 
ATOM     21  C   UNL d   1     -49.083  14.985  23.301  0.00  0.00     0.000 C 
ATOM     22  C   UNL d   1     -50.287  15.367  22.634  0.00  0.00     0.000 A 
ATOM     23  C   UNL d   1     -50.948  15.169  22.167  0.00  0.00     0.000 A 
ATOM     24  C   UNL d   1     -51.058  14.401  21.907  0.00  0.00     0.000 A 
ATOM     25  C   UNL d   1     -50.508  13.823  22.111  0.00  0.00     0.005 A 
ENDBRANCH   2  19
TORSDOF 5
ENDMDL
MODEL 2
REMARK VINA RESULT:      -7.7      1.538      2.466
REMARK  5 active torsions:
REMARK  status: ('A' for Active; 'I' for Inactive)
REMARK       I    between atoms: C_2  and  N_1 
REMARK    1  A    between atoms: C_5  and  C_2 
REMARK    2  A    between atoms: S_7  and  C_3 
REMARK    3  A    between atoms: N_4  and  C_8 
REMARK    4  A    between atoms: C_17  and  S_7 
REMARK    5  A    between atoms: C_18  and  C_17 
ROOT
ATOM      1  N   UNL d   1     -48.385  13.750  22.511  0.00  0.00    -0.251 N 
ATOM      2  C   UNL d   1     -48.645  12.973  22.413  0.00  0.00     0.266 C 
ATOM      3  C   UNL d   1     -47.596  14.005  22.525  0.00  0.00     0.182 A 
ATOM      4  N   UNL d   1     -47.599  14.819  22.634  0.00  0.00    -0.219 NA
ATOM      5  O   UNL d   1     -48.100  12.360  22.317  0.00  0.00    -0.267 OA
ATOM      6  C   UNL d   1     -48.874  14.416  22.612  0.00  0.00     0.106 A 
ATOM      7  C   UNL d   1     -48.380  15.078  22.688  0.00  0.00     0.120 A 
ENDROOT
BRANCH   3   8
ATOM      8  S   UNL d   1     -46.937  13.519  22.443  0.00  0.00    -0.049 SA
BRANCH   8   9
ATOM      9  C   UNL d   1     -46.188  13.829  22.544  0.00  0.00     0.038 C 
BRANCH   9  10
ATOM     10  C   UNL d   1     -45.528  13.354  22.440  0.00  0.00     0.007 A 
ATOM     11  C   UNL d   1     -45.002  13.497  21.823  0.00  0.00     0.002 A 
ATOM     12  C   UNL d   1     -44.338  13.019  21.718  0.00  0.00     0.024 A 
ATOM     13  C   UNL d   1     -44.204  12.396  22.235  0.00  0.00     0.127 A 
ATOM     14  C   UNL d   1     -44.721  12.242  22.855  0.00  0.00     0.024 A 
ATOM     15  C   UNL d   1     -45.387  12.722  22.961  0.00  0.00     0.002 A 
BRANCH  13  16
ATOM     16  N   UNL d   1     -43.538  11.911  22.135  0.00  0.00    -0.114 N 
ATOM     17  O   UNL d   1     -42.883  12.181  21.682  0.00  0.00    -0.532 OA
ATOM     18  O   UNL d   1     -43.506  11.154  22.481  0.00  0.00    -0.532 OA
ENDBRANCH  13  16
ENDBRANCH   9  10
ENDBRANCH   8   9
ENDBRANCH   3   8
BRANCH   2  19
ATOM     19  C   UNL d   1     -49.459  12.805  22.411  0.00  0.00     0.057 A 
ATOM     20  C   UNL d   1     -49.770  12.287  22.980  0.00  0.00     0.005 A 
ATOM     21  C   UNL d   1     -49.274  11.943  23.543  0.00  0.00     0.000 C 
ATOM     22  C   UNL d   1     -50.570  12.128  22.971  0.00  0.00     0.000 A 
ATOM     23  C   UNL d   1     -51.064  12.479  22.399  0.00  0.00     0.000 A 
ATOM     24  C   UNL d   1     -50.755  12.990  21.839  0.00  0.00     0.000 A 
ATOM     25  C   UNL d   1     -49.947  13.153  21.845  0.00  0.00     0.005 A 
ENDBRANCH   2  19
TORSDOF 5
ENDMDL
MODEL 3
REMARK VINA RESULT:      -6.7      1.275      1.834
REMARK  5 active torsions:
REMARK  status: ('A' for Active; 'I' for Inactive)
REMARK       I    between atoms: C_2  and  N_1 
REMARK    1  A    between atoms: C_5  and  C_2 
REMARK    2  A    between atoms: S_7  and  C_3 
REMARK    3  A    between atoms: N_4  and  C_8 
REMARK    4  A    between atoms: C_17  and  S_7 
REMARK    5  A    between atoms: C_18  and  C_17 
ROOT
ATOM      1  N   UNL d   1     -48.586  12.839  22.865  0.00  0.00    -0.251 N 
ATOM      2  C   UNL d   1     -48.737  13.476  22.362  0.00  0.00     0.266 C 
ATOM      3  C   UNL d   1     -47.840  12.543  23.071  0.00  0.00     0.182 A 
ATOM      4  N   UNL d   1     -47.954  11.910  23.581  0.00  0.00    -0.219 NA
ATOM      5  O   UNL d   1     -48.112  13.886  22.010  0.00  0.00    -0.267 OA
ATOM      6  C   UNL d   1     -49.162  12.381  23.254  0.00  0.00     0.106 A 
ATOM      7  C   UNL d   1     -48.764  11.805  23.698  0.00  0.00     0.120 A 
ENDROOT
BRANCH   3   8
ATOM      8  S   UNL d   1     -47.120  12.840  22.805  0.00  0.00    -0.049 SA
BRANCH   8   9
ATOM      9  C   UNL d   1     -46.435  12.679  23.221  0.00  0.00     0.038 C 
BRANCH   9  10
ATOM     10  C   UNL d   1     -45.715  12.637  22.829  0.00  0.00     0.007 A 
ATOM     11  C   UNL d   1     -45.465  13.255  22.347  0.00  0.00     0.002 A 
ATOM     12  C   UNL d   1     -44.742  13.214  21.952  0.00  0.00     0.024 A 
ATOM     13  C   UNL d   1     -44.271  12.550  22.044  0.00  0.00     0.127 A 
ATOM     14  C   UNL d   1     -44.508  11.926  22.523  0.00  0.00     0.024 A 
ATOM     15  C   UNL d   1     -45.234  11.967  22.919  0.00  0.00     0.002 A 
BRANCH  13  16
ATOM     16  N   UNL d   1     -43.542  12.502  21.651  0.00  0.00    -0.114 N 
ATOM     17  O   UNL d   1     -42.962  11.946  21.900  0.00  0.00    -0.532 OA
ATOM     18  O   UNL d   1     -43.372  13.001  21.005  0.00  0.00    -0.532 OA
ENDBRANCH  13  16
ENDBRANCH   9  10
ENDBRANCH   8   9
ENDBRANCH   3   8
BRANCH   2  19
ATOM     19  C   UNL d   1     -49.520  13.707  22.209  0.00  0.00     0.057 A 
ATOM     20  C   UNL d   1     -49.828  13.620  21.443  0.00  0.00     0.005 A 
ATOM     21  C   UNL d   1     -49.360  13.307  20.840  0.00  0.00     0.000 C 
ATOM     22  C   UNL d   1     -50.599  13.850  21.301  0.00  0.00     0.000 A 
ATOM     23  C   UNL d   1     -51.064  14.165  21.915  0.00  0.00     0.000 A 
ATOM     24  C   UNL d   1     -50.758  14.250  22.669  0.00  0.00     0.000 A 
ATOM     25  C   UNL d   1     -49.981  14.019  22.817  0.00  0.00     0.005 A 
ENDBRANCH   2  19
TORSDOF 5
ENDMDL
MODEL 4
REMARK VINA RESULT:      -5.5      7.472      9.910
REMARK  5 active torsions:
REMARK  status: ('A' for Active; 'I' for Inactive)
REMARK       I    between atoms: C_2  and  N_1 
REMARK    1  A    between atoms: C_5  and  C_2 
REMARK    2  A    between atoms: S_7  and  C_3 
REMARK    3  A    between atoms: N_4  and  C_8 
REMARK    4  A    between atoms: C_17  and  S_7 
REMARK    5  A    between atoms: C_18  and  C_17 
ROOT
ATOM      1  N   UNL d   1     -39.346  14.829  18.642  0.00  0.00    -0.251 N 
ATOM      2  C   UNL d   1     -39.553  14.269  18.073  0.00  0.00     0.266 C 
ATOM      3  C   UNL d   1     -39.703  14.931  19.383  0.00  0.00     0.182 A 
ATOM      4  N   UNL d   1     -39.320  15.550  19.762  0.00  0.00    -0.219 NA
ATOM      5  O   UNL d   1     -40.171  13.739  18.216  0.00  0.00    -0.267 OA
ATOM      6  C   UNL d   1     -38.738  15.393  18.569  0.00  0.00     0.106 A 
ATOM      7  C   UNL d   1     -38.726  15.838  19.268  0.00  0.00     0.120 A 
ENDROOT
BRANCH   3   8
ATOM      8  S   UNL d   1     -40.330  14.484  19.675  0.00  0.00    -0.049 SA
BRANCH   8   9
ATOM      9  C   UNL d   1     -40.592  14.603  20.440  0.00  0.00     0.038 C 
BRANCH   9  10
ATOM     10  C   UNL d   1     -41.230  14.175  20.728  0.00  0.00     0.007 A 
ATOM     11  C   UNL d   1     -41.995  14.470  20.664  0.00  0.00     0.002 A 
ATOM     12  C   UNL d   1     -42.637  14.040  20.953  0.00  0.00     0.024 A 
ATOM     13  C   UNL d   1     -42.507  13.311  21.306  0.00  0.00     0.127 A 
ATOM     14  C   UNL d   1     -41.749  13.005  21.376  0.00  0.00     0.024 A 
ATOM     15  C   UNL d   1     -41.104  13.436  21.086  0.00  0.00     0.002 A 
BRANCH  13  16
ATOM     16  N   UNL d   1     -43.148  12.874  21.599  0.00  0.00    -0.114 N 
ATOM     17  O   UNL d   1     -43.039  12.078  21.847  0.00  0.00    -0.532 OA
ATOM     18  O   UNL d   1     -43.908  13.213  21.652  0.00  0.00    -0.532 OA
ENDBRANCH  13  16
ENDBRANCH   9  10
ENDBRANCH   8   9
ENDBRANCH   3   8
BRANCH   2  19
ATOM     19  C   UNL d   1     -39.141  14.236  17.353  0.00  0.00     0.057 A 
ATOM     20  C   UNL d   1     -38.734  13.542  17.147  0.00  0.00     0.005 A 
ATOM     21  C   UNL d   1     -38.741  12.891  17.654  0.00  0.00     0.000 C 
ATOM     22  C   UNL d   1     -38.331  13.519  16.437  0.00  0.00     0.000 A 
ATOM     23  C   UNL d   1     -38.330  14.180  15.931  0.00  0.00     0.000 A 
ATOM     24  C   UNL d   1     -38.731  14.863  16.137  0.00  0.00     0.000 A 
ATOM     25  C   UNL d   1     -39.139  14.891  16.852  0.00  0.00     0.005 A 
ENDBRANCH   2  19
TORSDOF 5
ENDMDL
MODEL 5
REMARK VINA RESULT:      -5.5      9.236     10.191
REMARK  5 active torsions:
REMARK  status: ('A' for Active; 'I' for Inactive)
REMARK       I    between atoms: C_2  and  N_1 
REMARK    1  A    between atoms: C_5  and  C_2 
REMARK    2  A    between atoms: S_7  and  C_3 
REMARK    3  A    between atoms: N_4  and  C_8 
REMARK    4  A    between atoms: C_17  and  S_7 
REMARK    5  A    between atoms: C_18  and  C_17 
ROOT
ATOM      1  N   UNL d   1     -39.237  15.206  18.140  0.00  0.00    -0.251 N 
ATOM      2  C   UNL d   1     -40.041  15.025  18.180  0.00  0.00     0.266 C 
ATOM      3  C   UNL d   1     -38.664  15.028  18.712  0.00  0.00     0.182 A 
ATOM      4  N   UNL d   1     -37.943  15.311  18.440  0.00  0.00    -0.219 NA
ATOM      5  O   UNL d   1     -40.346  14.628  18.838  0.00  0.00    -0.267 OA
ATOM      6  C   UNL d   1     -38.861  15.602  17.512  0.00  0.00     0.106 A 
ATOM      7  C   UNL d   1     -38.056  15.665  17.703  0.00  0.00     0.120 A 
ENDROOT
BRANCH   3   8
ATOM      8  S   UNL d   1     -38.806  14.637  19.422  0.00  0.00    -0.049 SA
BRANCH   8   9
ATOM      9  C   UNL d   1     -38.182  14.316  19.842  0.00  0.00     0.038 C 
BRANCH   9  10
ATOM     10  C   UNL d   1     -38.280  14.107  20.629  0.00  0.00     0.007 A 
ATOM     11  C   UNL d   1     -38.443  14.680  21.196  0.00  0.00     0.002 A 
ATOM     12  C   UNL d   1     -38.541  14.471  21.988  0.00  0.00     0.024 A 
ATOM     13  C   UNL d   1     -38.474  13.684  22.208  0.00  0.00     0.127 A 
ATOM     14  C   UNL d   1     -38.311  13.102  21.652  0.00  0.00     0.024 A 
ATOM     15  C   UNL d   1     -38.213  13.311  20.857  0.00  0.00     0.002 A 
BRANCH  13  16
ATOM     16  N   UNL d   1     -38.571  13.467  23.003  0.00  0.00    -0.114 N 
ATOM     17  O   UNL d   1     -38.485  12.663  23.235  0.00  0.00    -0.532 OA
ATOM     18  O   UNL d   1     -38.755  14.037  23.581  0.00  0.00    -0.532 OA
ENDBRANCH  13  16
ENDBRANCH   9  10
ENDBRANCH   8   9
ENDBRANCH   3   8
BRANCH   2  19
ATOM     19  C   UNL d   1     -40.548  15.242  17.559  0.00  0.00     0.057 A 
ATOM     20  C   UNL d   1     -41.226  15.691  17.723  0.00  0.00     0.005 A 
ATOM     21  C   UNL d   1     -41.394  15.921  18.497  0.00  0.00     0.000 C 
ATOM     22  C   UNL d   1     -41.718  15.900  17.106  0.00  0.00     0.000 A 
ATOM     23  C   UNL d   1     -41.540  15.664  16.327  0.00  0.00     0.000 A 
ATOM     24  C   UNL d   1     -40.871  15.221  16.168  0.00  0.00     0.000 A 
ATOM     25  C   UNL d   1     -40.372  15.008  16.787  0.00  0.00     0.005 A 
ENDBRANCH   2  19
TORSDOF 5
ENDMDL
