MODEL 1
REMARK VINA RESULT:      -1.4      0.000      0.000
REMARK  4 active torsions:
REMARK  status: ('A' for Active; 'I' for Inactive)
REMARK    1  A    between atoms: C_9  and  N_2 
REMARK    2  A    between atoms: C_6  and  C_3 
REMARK    3  A    between atoms: C_8  and  C_4 
REMARK    4  A    between atoms: O_18  and  C_15 
ROOT
ATOM      1  N   UNL d   1      30.196  16.162 -23.611  0.00  0.00    -0.165 NA
ATOM      2  N   UNL d   1      30.971  16.468 -23.788  0.00  0.00    -0.230 N 
ATOM      3  C   UNL d   1      29.653  16.776 -23.681  0.00  0.00     0.109 A 
ATOM      4  C   UNL d   1      30.857  17.284 -23.964  0.00  0.00     0.084 A 
ATOM      5  C   UNL d   1      30.055  17.466 -23.897  0.00  0.00     0.041 A 
ENDROOT
BRANCH   4   6
ATOM      6  C   UNL d   1      31.443  17.821 -24.169  0.00  0.00     0.018 A 
ATOM      7  C   UNL d   1      31.692  18.350 -23.587  0.00  0.00     0.004 A 
ATOM      8  C   UNL d   1      32.273  18.893 -23.766  0.00  0.00     0.024 A 
ATOM      9  C   UNL d   1      32.606  18.914 -24.514  0.00  0.00     0.094 A 
ATOM     10  C   UNL d   1      32.357  18.386 -25.097  0.00  0.00     0.024 A 
ATOM     11  C   UNL d   1      31.771  17.837 -24.917  0.00  0.00     0.004 A 
BRANCH   9  12
ATOM     12  O   UNL d   1      33.216  19.472 -24.730  0.00  0.00    -0.328 OA
ATOM     13  C   UNL d   1      33.081  20.311 -24.596  0.00  0.00     0.181 C 
ENDBRANCH   9  12
ENDBRANCH   4   6
BRANCH   2  14
ATOM     14  C   UNL d   1      31.721  16.135 -23.813  0.00  0.00     0.083 A 
ATOM     15  C   UNL d   1      32.210  16.087 -23.135  0.00  0.00     0.019 A 
ATOM     16  C   UNL d   1      32.965  15.745 -23.190  0.00  0.00     0.002 A 
ATOM     17  C   UNL d   1      33.240  15.453 -23.892  0.00  0.00     0.000 A 
ATOM     18  C   UNL d   1      32.754  15.499 -24.568  0.00  0.00     0.002 A 
ATOM     19  C   UNL d   1      31.993  15.841 -24.529  0.00  0.00     0.019 A 
ENDBRANCH   2  14
BRANCH   3  20
ATOM     20  C   UNL d   1      28.950  16.377 -23.492  0.00  0.00     0.049 A 
ATOM     21  S   UNL d   1      28.628  15.706 -23.148  0.00  0.00    -0.085 SA
ATOM     22  C   UNL d   1      27.812  15.760 -23.200  0.00  0.00     0.035 A 
ATOM     23  C   UNL d   1      27.623  16.450 -23.569  0.00  0.00     0.007 A 
ATOM     24  C   UNL d   1      28.310  16.856 -23.763  0.00  0.00     0.009 A 
ENDBRANCH   3  20
TORSDOF 4
ENDMDL
MODEL 2
REMARK VINA RESULT:      -1.2      5.326      7.003
REMARK  4 active torsions:
REMARK  status: ('A' for Active; 'I' for Inactive)
REMARK    1  A    between atoms: C_9  and  N_2 
REMARK    2  A    between atoms: C_6  and  C_3 
REMARK    3  A    between atoms: C_8  and  C_4 
REMARK    4  A    between atoms: O_18  and  C_15 
ROOT
ATOM      1  N   UNL d   1      32.729  22.163 -19.509  0.00  0.00    -0.165 NA
ATOM      2  N   UNL d   1      32.636  22.076 -20.351  0.00  0.00    -0.230 N 
ATOM      3  C   UNL d   1      32.801  22.964 -19.337  0.00  0.00     0.109 A 
ATOM      4  C   UNL d   1      32.658  22.858 -20.662  0.00  0.00     0.084 A 
ATOM      5  C   UNL d   1      32.758  23.394 -20.043  0.00  0.00     0.041 A 
ENDROOT
BRANCH   4   6
ATOM      6  C   UNL d   1      32.590  23.066 -21.454  0.00  0.00     0.018 A 
ATOM      7  C   UNL d   1      31.836  23.249 -21.733  0.00  0.00     0.004 A 
ATOM      8  C   UNL d   1      31.743  23.458 -22.516  0.00  0.00     0.024 A 
ATOM      9  C   UNL d   1      32.389  23.486 -23.018  0.00  0.00     0.094 A 
ATOM     10  C   UNL d   1      33.143  23.303 -22.739  0.00  0.00     0.024 A 
ATOM     11  C   UNL d   1      33.239  23.092 -21.950  0.00  0.00     0.004 A 
BRANCH   9  12
ATOM     12  O   UNL d   1      32.320  23.702 -23.843  0.00  0.00    -0.328 OA
ATOM     13  C   UNL d   1      32.547  23.131 -24.444  0.00  0.00     0.181 C 
ENDBRANCH   9  12
ENDBRANCH   4   6
BRANCH   2  14
ATOM     14  C   UNL d   1      32.541  21.430 -20.848  0.00  0.00     0.083 A 
ATOM     15  C   UNL d   1      31.791  21.094 -21.004  0.00  0.00     0.019 A 
ATOM     16  C   UNL d   1      31.724  20.439 -21.512  0.00  0.00     0.002 A 
ATOM     17  C   UNL d   1      32.378  20.117 -21.861  0.00  0.00     0.000 A 
ATOM     18  C   UNL d   1      33.127  20.449 -21.707  0.00  0.00     0.002 A 
ATOM     19  C   UNL d   1      33.209  21.107 -21.200  0.00  0.00     0.019 A 
ENDBRANCH   2  14
BRANCH   3  20
ATOM     20  C   UNL d   1      32.884  22.934 -18.512  0.00  0.00     0.049 A 
ATOM     21  S   UNL d   1      33.129  22.478 -17.875  0.00  0.00    -0.085 SA
ATOM     22  C   UNL d   1      33.007  22.912 -17.191  0.00  0.00     0.035 A 
ATOM     23  C   UNL d   1      32.693  23.625 -17.390  0.00  0.00     0.007 A 
ATOM     24  C   UNL d   1      32.604  23.669 -18.205  0.00  0.00     0.009 A 
ENDBRANCH   3  20
TORSDOF 4
ENDMDL
MODEL 3
REMARK VINA RESULT:       0.6      5.239      7.181
REMARK  4 active torsions:
REMARK  status: ('A' for Active; 'I' for Inactive)
REMARK    1  A    between atoms: C_9  and  N_2 
REMARK    2  A    between atoms: C_6  and  C_3 
REMARK    3  A    between atoms: C_8  and  C_4 
REMARK    4  A    between atoms: O_18  and  C_15 
ROOT
ATOM      1  N   UNL d   1      32.488  23.152 -19.875  0.00  0.00    -0.165 NA
ATOM      2  N   UNL d   1      32.508  22.798 -20.649  0.00  0.00    -0.230 N 
ATOM      3  C   UNL d   1      32.585  22.557 -19.316  0.00  0.00     0.109 A 
ATOM      4  C   UNL d   1      32.621  21.974 -20.517  0.00  0.00     0.084 A 
ATOM      5  C   UNL d   1      32.667  21.832 -19.706  0.00  0.00     0.041 A 
ENDROOT
BRANCH   4   6
ATOM      6  C   UNL d   1      32.677  21.395 -21.097  0.00  0.00     0.018 A 
ATOM      7  C   UNL d   1      32.183  20.738 -21.024  0.00  0.00     0.004 A 
ATOM      8  C   UNL d   1      32.220  20.149 -21.587  0.00  0.00     0.024 A 
ATOM      9  C   UNL d   1      32.740  20.209 -22.217  0.00  0.00     0.094 A 
ATOM     10  C   UNL d   1      33.234  20.865 -22.290  0.00  0.00     0.024 A 
ATOM     11  C   UNL d   1      33.198  21.460 -21.723  0.00  0.00     0.004 A 
BRANCH   9  12
ATOM     12  O   UNL d   1      32.800  19.607 -22.821  0.00  0.00    -0.328 OA
ATOM     13  C   UNL d   1      32.923  18.790 -22.585  0.00  0.00     0.181 C 
ENDBRANCH   9  12
ENDBRANCH   4   6
BRANCH   2  14
ATOM     14  C   UNL d   1      32.443  23.096 -21.411  0.00  0.00     0.083 A 
ATOM     15  C   UNL d   1      31.703  23.230 -21.776  0.00  0.00     0.019 A 
ATOM     16  C   UNL d   1      31.667  23.533 -22.549  0.00  0.00     0.002 A 
ATOM     17  C   UNL d   1      32.342  23.702 -22.961  0.00  0.00     0.000 A 
ATOM     18  C   UNL d   1      33.082  23.569 -22.599  0.00  0.00     0.002 A 
ATOM     19  C   UNL d   1      33.133  23.266 -21.823  0.00  0.00     0.019 A 
ENDBRANCH   2  14
BRANCH   3  20
ATOM     20  C   UNL d   1      32.551  23.002 -18.615  0.00  0.00     0.049 A 
ATOM     21  S   UNL d   1      32.118  23.551 -18.187  0.00  0.00    -0.085 SA
ATOM     22  C   UNL d   1      32.519  23.702 -17.488  0.00  0.00     0.035 A 
ATOM     23  C   UNL d   1      33.190  23.257 -17.476  0.00  0.00     0.007 A 
ATOM     24  C   UNL d   1      33.238  22.812 -18.163  0.00  0.00     0.009 A 
ENDBRANCH   3  20
TORSDOF 4
ENDMDL
