MODEL 1
REMARK VINA RESULT:      37.9      0.000      0.000
REMARK  5 active torsions:
REMARK  status: ('A' for Active; 'I' for Inactive)
REMARK    1  A    between atoms: C_3  and  C_1 
REMARK    2  A    between atoms: N_2  and  C_11 
REMARK    3  A    between atoms: N_6  and  C_3 
REMARK    4  A    between atoms: C_14  and  C_5 
REMARK    5  A    between atoms: C_10  and  N_7 
ROOT
ATOM      1  C   UNL d   1      46.088 -18.120  44.132  0.00  0.00     0.143 C 
ATOM      2  S   UNL d   1      46.197 -18.640  44.743  0.00  0.00    -0.057 SA
ENDROOT
BRANCH   1   3
ATOM      3  C   UNL d   1      45.888 -17.351  44.264  0.00  0.00     0.126 A 
ATOM      4  O   UNL d   1      45.996 -16.678  43.793  0.00  0.00    -0.305 OA
ATOM      5  C   UNL d   1      45.681 -16.033  44.210  0.00  0.00     0.100 A 
ATOM      6  C   UNL d   1      45.396 -16.298  44.899  0.00  0.00     0.027 A 
ATOM      7  C   UNL d   1      45.515 -17.118  44.953  0.00  0.00     0.029 A 
BRANCH   5   8
ATOM      8  C   UNL d   1      45.630 -15.247  44.028  0.00  0.00     0.023 A 
ATOM      9  C   UNL d   1      44.938 -14.814  44.194  0.00  0.00     0.004 A 
ATOM     10  C   UNL d   1      44.899 -14.010  44.002  0.00  0.00     0.024 A 
ATOM     11  C   UNL d   1      45.537 -13.624  43.647  0.00  0.00     0.127 A 
ATOM     12  C   UNL d   1      46.230 -14.075  43.485  0.00  0.00     0.024 A 
ATOM     13  C   UNL d   1      46.269 -14.861  43.672  0.00  0.00     0.004 A 
BRANCH  11  14
ATOM     14  N   UNL d   1      45.486 -12.838  43.464  0.00  0.00    -0.114 N 
ATOM     15  O   UNL d   1      45.134 -12.533  42.773  0.00  0.00    -0.532 OA
ATOM     16  O   UNL d   1      45.773 -12.232  43.935  0.00  0.00    -0.532 OA
ENDBRANCH  11  14
ENDBRANCH   5   8
ENDBRANCH   1   3
BRANCH   1  17
ATOM     17  N   UNL d   1      46.185 -18.383  43.327  0.00  0.00    -0.291 N 
ATOM     18  C   UNL d   1      45.897 -19.130  43.100  0.00  0.00     0.100 A 
ATOM     19  C   UNL d   1      45.986 -19.393  42.326  0.00  0.00     0.100 A 
ATOM     20  N   UNL d   1      46.365 -18.905  41.773  0.00  0.00    -0.301 N 
ATOM     21  C   UNL d   1      46.643 -18.179  41.997  0.00  0.00     0.100 A 
ATOM     22  C   UNL d   1      46.554 -17.916  42.776  0.00  0.00     0.100 A 
BRANCH  20  23
ATOM     23  C   UNL d   1      46.454 -19.169  40.998  0.00  0.00     0.064 A 
ATOM     24  C   UNL d   1      46.429 -18.592  40.402  0.00  0.00     0.016 A 
ATOM     25  C   UNL d   1      46.321 -17.784  40.562  0.00  0.00     0.002 C 
ATOM     26  C   UNL d   1      46.515 -18.833  39.622  0.00  0.00     0.001 A 
ATOM     27  C   UNL d   1      46.624 -19.641  39.436  0.00  0.00     0.000 A 
ATOM     28  C   UNL d   1      46.646 -20.191  40.033  0.00  0.00     0.002 A 
ATOM     29  C   UNL d   1      46.560 -19.954  40.812  0.00  0.00     0.018 A 
ENDBRANCH  20  23
ENDBRANCH   1  17
TORSDOF 5
ENDMDL
