MODEL 1
REMARK VINA RESULT:      69.8      0.000      0.000
REMARK  4 active torsions:
REMARK  status: ('A' for Active; 'I' for Inactive)
REMARK    1  A    between atoms: N_14  and  C_2 
REMARK       I    between atoms: C_9  and  N_11 
REMARK    2  A    between atoms: C_13  and  C_9 
REMARK    3  A    between atoms: C_10  and  C_17 
REMARK       I    between atoms: N_12  and  C_10 
REMARK    4  A    between atoms: C_30  and  N_14 
ROOT
ATOM      1  C   UNL d   1      45.480 -17.666  38.766  0.00  0.00     0.057 A 
ATOM      2  C   UNL d   1      45.076 -17.814  38.047  0.00  0.00     0.006 A 
ATOM      3  C   UNL d   1      45.705 -16.897  38.962  0.00  0.00     0.006 A 
ATOM      4  C   UNL d   1      45.133 -16.415  37.739  0.00  0.00     0.084 A 
ATOM      5  C   UNL d   1      44.909 -17.183  37.544  0.00  0.00     0.019 A 
ATOM      6  C   UNL d   1      45.533 -16.268  38.451  0.00  0.00     0.019 A 
ENDROOT
BRANCH   1   7
ATOM      7  C   UNL d   1      45.665 -18.282  39.297  0.00  0.00     0.265 C 
ATOM      8  N   UNL d   1      45.749 -18.128  40.106  0.00  0.00    -0.270 N 
ATOM      9  C   UNL d   1      45.819 -17.841  40.989  0.00  0.00     0.096 A 
ATOM     10  C   UNL d   1      45.884 -18.262  40.908  0.00  0.00     0.096 A 
ATOM     11  C   UNL d   1      46.001 -18.505  41.437  0.00  0.00     0.077 A 
ATOM     12  N   UNL d   1      46.163 -18.833  42.177  0.00  0.00    -0.171 NA
ATOM     13  C   UNL d   1      46.346 -19.471  42.671  0.00  0.00     0.267 C 
ATOM     14  C   UNL d   1      46.065 -18.915  41.361  0.00  0.00     0.077 A 
ATOM     15  O   UNL d   1      46.439 -20.220  42.360  0.00  0.00    -0.271 OA
ATOM     16  O   UNL d   1      45.765 -19.054  39.011  0.00  0.00    -0.267 OA
BRANCH  13  17
ATOM     17  C   UNL d   1      46.435 -19.342  43.479  0.00  0.00     0.151 A 
ATOM     18  O   UNL d   1      46.436 -18.618  43.854  0.00  0.00    -0.301 OA
ATOM     19  C   UNL d   1      46.539 -18.738  44.658  0.00  0.00     0.123 A 
ATOM     20  C   UNL d   1      46.602 -19.550  44.781  0.00  0.00     0.029 A 
ATOM     21  C   UNL d   1      46.538 -19.923  44.057  0.00  0.00     0.031 A 
ENDBRANCH  13  17
ENDBRANCH   1   7
BRANCH   4  22
ATOM     22  N   UNL d   1      44.959 -15.787  37.224  0.00  0.00    -0.221 NA
BRANCH  22  23
ATOM     23  C   UNL d   1      44.173 -15.539  37.123  0.00  0.00     0.194 A 
ATOM     24  S   UNL d   1      43.816 -14.950  37.547  0.00  0.00    -0.046 SA
ATOM     25  C   UNL d   1      43.028 -14.877  37.272  0.00  0.00     0.062 A 
ATOM     26  C   UNL d   1      42.321 -14.466  37.367  0.00  0.00     0.107 A 
ATOM     27  C   UNL d   1      42.918 -15.433  36.676  0.00  0.00     0.102 A 
ATOM     28  S   UNL d   1      41.780 -14.765  36.833  0.00  0.00     0.213 S 
ATOM     29  C   UNL d   1      42.141 -15.362  36.404  0.00  0.00     0.118 A 
ATOM     30  O   UNL d   1      41.310 -14.186  37.197  0.00  0.00    -0.217 OA
ATOM     31  O   UNL d   1      41.140 -14.973  36.346  0.00  0.00    -0.217 OA
ATOM     32  N   UNL d   1      43.631 -15.849  36.579  0.00  0.00    -0.220 NA
ENDBRANCH  22  23
ENDBRANCH   4  22
TORSDOF 4
ENDMDL
