MODEL 1
REMARK VINA RESULT:      97.2      0.000      0.000
REMARK  2 active torsions:
REMARK  status: ('A' for Active; 'I' for Inactive)
REMARK    1  A    between atoms: C_13  and  C_2 
REMARK    2  A    between atoms: N_12  and  C_8 
ROOT
ATOM      1  N   UNL d   1     -55.006-100.356 -39.041  0.00  0.00    -0.301 N 
ATOM      2  C   UNL d   1     -54.985-101.499 -38.181  0.00  0.00     0.121 A 
ATOM      3  C   UNL d   1     -54.945-100.846 -39.691  0.00  0.00     0.092 A 
ATOM      4  C   UNL d   1     -54.924-100.522 -40.461  0.00  0.00     0.134 A 
ATOM      5  C   UNL d   1     -54.903-101.665 -39.592  0.00  0.00     0.060 A 
ATOM      6  C   UNL d   1     -55.026-100.681 -38.280  0.00  0.00     0.090 A 
ATOM      7  C   UNL d   1     -54.923-101.983 -38.845  0.00  0.00     0.204 A 
ATOM      8  C   UNL d   1     -54.862-101.014 -41.122  0.00  0.00     0.116 A 
ATOM      9  O   UNL d   1     -54.966 -99.695 -40.560  0.00  0.00    -0.301 OA
ATOM     10  C   UNL d   1     -54.820-101.832 -41.024  0.00  0.00     0.158 A 
ATOM     11  C   UNL d   1     -54.842-102.147 -40.246  0.00  0.00     0.036 A 
ATOM     12  C   UNL d   1     -55.047 -99.541 -39.138  0.00  0.00     0.089 A 
ATOM     13  O   UNL d   1     -54.881-102.809 -38.746  0.00  0.00    -0.286 OA
ATOM     14  C   UNL d   1     -55.028 -99.210 -39.887  0.00  0.00     0.140 A 
ATOM     15  F   UNL d   1     -54.757-102.342 -41.684  0.00  0.00    -0.203 F 
ATOM     16  C   UNL d   1     -55.110 -99.045 -38.476  0.00  0.00     0.021 C 
ENDROOT
BRANCH   8  17
ATOM     17  N   UNL d   1     -54.841-100.692 -41.882  0.00  0.00    -0.298 N 
ATOM     18  C   UNL d   1     -54.733 -99.869 -41.978  0.00  0.00     0.100 A 
ATOM     19  C   UNL d   1     -54.715 -99.558 -42.752  0.00  0.00     0.100 A 
ATOM     20  N   UNL d   1     -54.801-100.051 -43.408  0.00  0.00    -0.299 N 
ATOM     21  C   UNL d   1     -54.907-100.870 -43.278  0.00  0.00     0.100 A 
ATOM     22  C   UNL d   1     -54.781 -99.733 -44.173  0.00  0.00     0.100 C 
ATOM     23  C   UNL d   1     -54.928-101.185 -42.538  0.00  0.00     0.100 A 
ENDBRANCH   8  17
BRANCH   2  24
ATOM     24  C   UNL d   1     -55.004-101.842 -37.419  0.00  0.00     0.215 C 
ATOM     25  O   UNL d   1     -55.172-102.653 -37.318  0.00  0.00    -0.644 OA
ATOM     26  O   UNL d   1     -54.857-101.379 -36.758  0.00  0.00    -0.644 OA
ENDBRANCH   2  24
TORSDOF 2
ENDMDL
MODEL 2
REMARK VINA RESULT:      98.4      2.004      4.603
REMARK  2 active torsions:
REMARK  status: ('A' for Active; 'I' for Inactive)
REMARK    1  A    between atoms: C_13  and  C_2 
REMARK    2  A    between atoms: N_12  and  C_8 
ROOT
ATOM      1  N   UNL d   1     -55.017-100.363 -43.473  0.00  0.00    -0.301 N 
ATOM      2  C   UNL d   1     -55.179-101.296 -44.546  0.00  0.00     0.121 A 
ATOM      3  C   UNL d   1     -55.060-100.977 -42.936  0.00  0.00     0.092 A 
ATOM      4  C   UNL d   1     -55.000-100.823 -42.117  0.00  0.00     0.134 A 
ATOM      5  C   UNL d   1     -55.162-101.752 -43.198  0.00  0.00     0.060 A 
ATOM      6  C   UNL d   1     -55.076-100.520 -44.284  0.00  0.00     0.090 A 
ATOM      7  C   UNL d   1     -55.221-101.906 -43.994  0.00  0.00     0.204 A 
ATOM      8  C   UNL d   1     -55.043-101.440 -41.569  0.00  0.00     0.116 A 
ATOM      9  O   UNL d   1     -54.897-100.038 -41.853  0.00  0.00    -0.301 OA
ATOM     10  C   UNL d   1     -55.146-102.216 -41.830  0.00  0.00     0.158 A 
ATOM     11  C   UNL d   1     -55.205-102.359 -42.655  0.00  0.00     0.036 A 
ATOM     12  C   UNL d   1     -54.914 -99.590 -43.213  0.00  0.00     0.089 A 
ATOM     13  O   UNL d   1     -55.324-102.689 -44.258  0.00  0.00    -0.286 OA
ATOM     14  C   UNL d   1     -54.855 -99.425 -42.413  0.00  0.00     0.140 A 
ATOM     15  F   UNL d   1     -55.191-102.850 -41.288  0.00  0.00    -0.203 F 
ATOM     16  C   UNL d   1     -54.871 -98.969 -43.761  0.00  0.00     0.021 C 
ENDROOT
BRANCH   8  17
ATOM     17  N   UNL d   1     -54.984-101.285 -40.760  0.00  0.00    -0.298 N 
ATOM     18  C   UNL d   1     -54.812-100.510 -40.500  0.00  0.00     0.100 A 
ATOM     19  C   UNL d   1     -54.756-100.369 -39.680  0.00  0.00     0.100 A 
ATOM     20  N   UNL d   1     -54.867-100.981 -39.137  0.00  0.00    -0.299 N 
ATOM     21  C   UNL d   1     -55.038-101.745 -39.429  0.00  0.00     0.100 A 
ATOM     22  C   UNL d   1     -54.809-100.831 -38.324  0.00  0.00     0.100 C 
ATOM     23  C   UNL d   1     -55.096-101.897 -40.218  0.00  0.00     0.100 A 
ENDBRANCH   8  17
BRANCH   2  24
ATOM     24  C   UNL d   1     -55.240-101.470 -45.361  0.00  0.00     0.215 C 
ATOM     25  O   UNL d   1     -54.725-101.120 -45.915  0.00  0.00    -0.644 OA
ATOM     26  O   UNL d   1     -55.815-101.993 -45.625  0.00  0.00    -0.644 OA
ENDBRANCH   2  24
TORSDOF 2
ENDMDL
