MODEL 1
REMARK VINA RESULT:      -2.8      0.000      0.000
REMARK  10 active torsions:
REMARK  status: ('A' for Active; 'I' for Inactive)
REMARK    1  A    between atoms: C_7  and  C_1 
REMARK    2  A    between atoms: C_8  and  C_2 
REMARK    3  A    between atoms: O_24  and  C_8 
REMARK    4  A    between atoms: O_25  and  C_12 
REMARK    5  A    between atoms: C_14  and  C_22 
REMARK    6  A    between atoms: O_26  and  C_14 
REMARK    7  A    between atoms: O_27  and  C_16 
REMARK    8  A    between atoms: O_21  and  C_20 
REMARK    9  A    between atoms: C_22  and  O_21 
REMARK   10  A    between atoms: C_28  and  O_24 
ROOT
ATOM      1  C   UNL d   1     -40.442  14.451  20.041  0.00  0.00     0.067 A 
ATOM      2  C   UNL d   1     -40.414  14.665  20.842  0.00  0.00     0.166 A 
ATOM      3  C   UNL d   1     -41.072  13.976  19.759  0.00  0.00     0.200 A 
ATOM      4  O   UNL d   1     -41.012  14.409  21.370  0.00  0.00    -0.301 OA
ATOM      5  C   UNL d   1     -41.660  13.723  20.273  0.00  0.00     0.062 A 
ATOM      6  C   UNL d   1     -41.632  13.939  21.081  0.00  0.00     0.105 A 
ATOM      7  C   UNL d   1     -42.226  13.683  21.601  0.00  0.00     0.050 A 
ATOM      8  C   UNL d   1     -42.289  13.252  20.002  0.00  0.00     0.007 A 
ATOM      9  O   UNL d   1     -41.096  13.765  18.960  0.00  0.00    -0.286 OA
ATOM     10  C   UNL d   1     -42.846  13.214  21.316  0.00  0.00     0.102 A 
ATOM     11  C   UNL d   1     -42.877  13.000  20.520  0.00  0.00     0.025 A 
ENDROOT
BRANCH   1  12
ATOM     12  C   UNL d   1     -39.854  14.703  19.523  0.00  0.00     0.007 A 
ATOM     13  C   UNL d   1     -39.192  14.219  19.397  0.00  0.00     0.026 A 
ATOM     14  C   UNL d   1     -38.605  14.479  18.875  0.00  0.00     0.116 A 
ATOM     15  C   UNL d   1     -38.678  15.208  18.486  0.00  0.00     0.116 A 
ATOM     16  C   UNL d   1     -39.340  15.681  18.618  0.00  0.00     0.026 A 
ATOM     17  C   UNL d   1     -39.927  15.428  19.136  0.00  0.00     0.002 A 
BRANCH  14  18
ATOM     18  O   UNL d   1     -37.944  14.006  18.743  0.00  0.00    -0.326 OA
ATOM     19  C   UNL d   1     -38.029  13.190  18.662  0.00  0.00     0.181 C 
ENDBRANCH  14  18
BRANCH  15  20
ATOM     20  O   UNL d   1     -38.091  15.457  17.970  0.00  0.00    -0.326 OA
ATOM     21  C   UNL d   1     -38.297  15.889  17.294  0.00  0.00     0.181 C 
ENDBRANCH  15  20
ENDBRANCH   1  12
BRANCH   2  22
ATOM     22  C   UNL d   1     -39.795  15.131  21.119  0.00  0.00     0.323 C 
ATOM     23  O   UNL d   1     -39.737  15.922  20.900  0.00  0.00    -0.257 OA
BRANCH  22  24
ATOM     24  O   UNL d   1     -39.220  14.804  21.625  0.00  0.00    -0.270 OA
BRANCH  24  25
ATOM     25  C   UNL d   1     -38.898  15.257  22.233  0.00  0.00     0.126 C 
ATOM     26  C   UNL d   1     -38.294  14.949  22.703  0.00  0.00     0.029 C 
ENDBRANCH  24  25
ENDBRANCH  22  24
ENDBRANCH   2  22
BRANCH  10  27
ATOM     27  O   UNL d   1     -43.434  12.963  21.835  0.00  0.00    -0.300 OA
BRANCH  27  28
ATOM     28  C   UNL d   1     -44.224  13.075  21.650  0.00  0.00     0.191 C 
BRANCH  28  29
ATOM     29  C   UNL d   1     -44.802  12.979  22.231  0.00  0.00     0.321 C 
ATOM     30  O   UNL d   1     -44.828  12.290  22.684  0.00  0.00    -0.257 OA
BRANCH  29  31
ATOM     31  O   UNL d   1     -45.359  13.570  22.364  0.00  0.00    -0.294 OA
ATOM     32  C   UNL d   1     -46.134  13.379  22.567  0.00  0.00     0.185 C 
ENDBRANCH  29  31
ENDBRANCH  28  29
ENDBRANCH  27  28
ENDBRANCH  10  27
TORSDOF 10
ENDMDL
MODEL 2
REMARK VINA RESULT:      -2.6      3.305      8.748
REMARK  10 active torsions:
REMARK  status: ('A' for Active; 'I' for Inactive)
REMARK    1  A    between atoms: C_7  and  C_1 
REMARK    2  A    between atoms: C_8  and  C_2 
REMARK    3  A    between atoms: O_24  and  C_8 
REMARK    4  A    between atoms: O_25  and  C_12 
REMARK    5  A    between atoms: C_14  and  C_22 
REMARK    6  A    between atoms: O_26  and  C_14 
REMARK    7  A    between atoms: O_27  and  C_16 
REMARK    8  A    between atoms: O_21  and  C_20 
REMARK    9  A    between atoms: C_22  and  O_21 
REMARK   10  A    between atoms: C_28  and  O_24 
ROOT
ATOM      1  C   UNL d   1     -48.058  13.800  22.823  0.00  0.00     0.067 A 
ATOM      2  C   UNL d   1     -48.002  12.987  22.981  0.00  0.00     0.166 A 
ATOM      3  C   UNL d   1     -47.374  14.229  22.598  0.00  0.00     0.200 A 
ATOM      4  O   UNL d   1     -47.265  12.593  22.917  0.00  0.00    -0.301 OA
ATOM      5  C   UNL d   1     -46.651  13.846  22.534  0.00  0.00     0.062 A 
ATOM      6  C   UNL d   1     -46.593  13.026  22.693  0.00  0.00     0.105 A 
ATOM      7  C   UNL d   1     -45.862  12.639  22.629  0.00  0.00     0.050 A 
ATOM      8  C   UNL d   1     -45.966  14.263  22.312  0.00  0.00     0.007 A 
ATOM      9  O   UNL d   1     -47.435  15.037  22.442  0.00  0.00    -0.286 OA
ATOM     10  C   UNL d   1     -45.190  13.069  22.406  0.00  0.00     0.102 A 
ATOM     11  C   UNL d   1     -45.242  13.877  22.249  0.00  0.00     0.025 A 
ENDROOT
BRANCH   1  12
ATOM     12  C   UNL d   1     -48.782  14.186  22.886  0.00  0.00     0.007 A 
ATOM     13  C   UNL d   1     -49.316  14.151  22.252  0.00  0.00     0.026 A 
ATOM     14  C   UNL d   1     -50.042  14.542  22.323  0.00  0.00     0.116 A 
ATOM     15  C   UNL d   1     -50.231  14.959  23.014  0.00  0.00     0.116 A 
ATOM     16  C   UNL d   1     -49.694  14.988  23.638  0.00  0.00     0.026 A 
ATOM     17  C   UNL d   1     -48.970  14.602  23.574  0.00  0.00     0.002 A 
BRANCH  14  18
ATOM     18  O   UNL d   1     -50.578  14.512  21.699  0.00  0.00    -0.326 OA
ATOM     19  C   UNL d   1     -50.316  14.611  20.923  0.00  0.00     0.181 C 
ENDBRANCH  14  18
BRANCH  15  20
ATOM     20  O   UNL d   1     -50.954  15.344  23.075  0.00  0.00    -0.326 OA
ATOM     21  C   UNL d   1     -51.063  15.918  23.661  0.00  0.00     0.181 C 
ENDBRANCH  15  20
ENDBRANCH   1  12
BRANCH   2  22
ATOM     22  C   UNL d   1     -48.674  12.566  23.202  0.00  0.00     0.323 C 
ATOM     23  O   UNL d   1     -49.238  12.908  23.693  0.00  0.00    -0.257 OA
BRANCH  22  24
ATOM     24  O   UNL d   1     -48.788  11.788  22.927  0.00  0.00    -0.270 OA
BRANCH  24  25
ATOM     25  C   UNL d   1     -49.069  11.207  23.437  0.00  0.00     0.126 C 
ATOM     26  C   UNL d   1     -49.877  11.044  23.475  0.00  0.00     0.029 C 
ENDBRANCH  24  25
ENDBRANCH  22  24
ENDBRANCH   2  22
BRANCH  10  27
ATOM     27  O   UNL d   1     -44.467  12.681  22.344  0.00  0.00    -0.300 OA
BRANCH  27  28
ATOM     28  C   UNL d   1     -44.114  12.580  21.610  0.00  0.00     0.191 C 
BRANCH  28  29
ATOM     29  C   UNL d   1     -43.298  12.473  21.556  0.00  0.00     0.321 C 
ATOM     30  O   UNL d   1     -42.933  11.840  21.938  0.00  0.00    -0.257 OA
BRANCH  29  31
ATOM     31  O   UNL d   1     -42.839  12.998  21.118  0.00  0.00    -0.294 OA
ATOM     32  C   UNL d   1     -42.023  13.032  21.226  0.00  0.00     0.185 C 
ENDBRANCH  29  31
ENDBRANCH  28  29
ENDBRANCH  27  28
ENDBRANCH  10  27
TORSDOF 10
ENDMDL
MODEL 3
REMARK VINA RESULT:      -1.3      2.031      7.640
REMARK  10 active torsions:
REMARK  status: ('A' for Active; 'I' for Inactive)
REMARK    1  A    between atoms: C_7  and  C_1 
REMARK    2  A    between atoms: C_8  and  C_2 
REMARK    3  A    between atoms: O_24  and  C_8 
REMARK    4  A    between atoms: O_25  and  C_12 
REMARK    5  A    between atoms: C_14  and  C_22 
REMARK    6  A    between atoms: O_26  and  C_14 
REMARK    7  A    between atoms: O_27  and  C_16 
REMARK    8  A    between atoms: O_21  and  C_20 
REMARK    9  A    between atoms: C_22  and  O_21 
REMARK   10  A    between atoms: C_28  and  O_24 
ROOT
ATOM      1  C   UNL d   1     -46.330  12.821  22.506  0.00  0.00     0.067 A 
ATOM      2  C   UNL d   1     -46.252  13.639  22.624  0.00  0.00     0.166 A 
ATOM      3  C   UNL d   1     -45.678  12.377  22.225  0.00  0.00     0.200 A 
ATOM      4  O   UNL d   1     -45.524  14.022  22.465  0.00  0.00    -0.301 OA
ATOM      5  C   UNL d   1     -44.963  12.749  22.068  0.00  0.00     0.062 A 
ATOM      6  C   UNL d   1     -44.883  13.573  22.187  0.00  0.00     0.105 A 
ATOM      7  C   UNL d   1     -44.161  13.950  22.027  0.00  0.00     0.050 A 
ATOM      8  C   UNL d   1     -44.310  12.316  21.788  0.00  0.00     0.007 A 
ATOM      9  O   UNL d   1     -45.760  11.563  22.109  0.00  0.00    -0.286 OA
ATOM     10  C   UNL d   1     -43.520  13.505  21.750  0.00  0.00     0.102 A 
ATOM     11  C   UNL d   1     -43.594  12.692  21.631  0.00  0.00     0.025 A 
ENDROOT
BRANCH   1  12
ATOM     12  C   UNL d   1     -47.046  12.446  22.663  0.00  0.00     0.007 A 
ATOM     13  C   UNL d   1     -47.632  12.433  22.078  0.00  0.00     0.026 A 
ATOM     14  C   UNL d   1     -48.349  12.054  22.243  0.00  0.00     0.116 A 
ATOM     15  C   UNL d   1     -48.476  11.694  22.979  0.00  0.00     0.116 A 
ATOM     16  C   UNL d   1     -47.886  11.712  23.554  0.00  0.00     0.026 A 
ATOM     17  C   UNL d   1     -47.172  12.088  23.396  0.00  0.00     0.002 A 
BRANCH  14  18
ATOM     18  O   UNL d   1     -48.938  12.036  21.668  0.00  0.00    -0.326 OA
ATOM     19  C   UNL d   1     -48.736  11.997  20.869  0.00  0.00     0.181 C 
ENDBRANCH  14  18
BRANCH  15  20
ATOM     20  O   UNL d   1     -49.190  11.320  23.134  0.00  0.00    -0.326 OA
ATOM     21  C   UNL d   1     -49.706  11.640  23.696  0.00  0.00     0.181 C 
ENDBRANCH  15  20
ENDBRANCH   1  12
BRANCH   2  22
ATOM     22  C   UNL d   1     -46.893  14.075  22.901  0.00  0.00     0.323 C 
ATOM     23  O   UNL d   1     -47.123  14.028  23.688  0.00  0.00    -0.257 OA
BRANCH  22  24
ATOM     24  O   UNL d   1     -47.315  14.570  22.380  0.00  0.00    -0.270 OA
BRANCH  24  25
ATOM     25  C   UNL d   1     -47.718  15.227  22.671  0.00  0.00     0.126 C 
ATOM     26  C   UNL d   1     -48.252  15.632  22.189  0.00  0.00     0.029 C 
ENDBRANCH  24  25
ENDBRANCH  22  24
ENDBRANCH   2  22
BRANCH  10  27
ATOM     27  O   UNL d   1     -42.805  13.882  21.593  0.00  0.00    -0.300 OA
BRANCH  27  28
ATOM     28  C   UNL d   1     -42.309  13.599  21.005  0.00  0.00     0.191 C 
BRANCH  28  29
ATOM     29  C   UNL d   1     -41.621  14.011  20.812  0.00  0.00     0.321 C 
ATOM     30  O   UNL d   1     -41.065  14.191  21.395  0.00  0.00    -0.257 OA
BRANCH  29  31
ATOM     31  O   UNL d   1     -41.482  14.245  20.035  0.00  0.00    -0.294 OA
ATOM     32  C   UNL d   1     -40.722  14.221  19.720  0.00  0.00     0.185 C 
ENDBRANCH  29  31
ENDBRANCH  28  29
ENDBRANCH  27  28
ENDBRANCH  10  27
TORSDOF 10
ENDMDL
