MODEL 1
REMARK VINA RESULT:      67.3      0.000      0.000
REMARK  6 active torsions:
REMARK  status: ('A' for Active; 'I' for Inactive)
REMARK    1  A    between atoms: C_9  and  C_2 
REMARK    2  A    between atoms: C_13  and  C_8 
REMARK       I    between atoms: N_10  and  C_9 
REMARK    3  A    between atoms: C_15  and  N_10 
REMARK    4  A    between atoms: N_14  and  C_12 
REMARK    5  A    between atoms: C_21  and  N_14 
REMARK    6  A    between atoms: C_22  and  N_14 
ROOT
ATOM      1  C   UNL d   1     -51.384  26.247  34.045  0.00  0.00     0.180 A 
ATOM      2  C   UNL d   1     -50.241  26.924  34.052  0.00  0.00     0.106 A 
ATOM      3  N   UNL d   1     -50.814  25.792  33.643  0.00  0.00    -0.283 N 
ATOM      4  S   UNL d   1     -51.018  26.940  34.290  0.00  0.00    -0.044 SA
ATOM      5  N   UNL d   1     -52.088  25.825  34.038  0.00  0.00    -0.221 NA
ATOM      6  C   UNL d   1     -50.110  26.213  33.649  0.00  0.00     0.077 A 
ATOM      7  C   UNL d   1     -51.180  25.098  33.397  0.00  0.00     0.101 A 
ATOM      8  C   UNL d   1     -51.968  25.125  33.645  0.00  0.00     0.101 A 
ATOM      9  C   UNL d   1     -49.390  25.960  33.306  0.00  0.00     0.020 C 
ENDROOT
BRANCH   2  10
ATOM     10  C   UNL d   1     -49.681  27.525  34.192  0.00  0.00     0.287 C 
ATOM     11  N   UNL d   1     -49.478  27.723  34.967  0.00  0.00    -0.208 NA
ATOM     12  O   UNL d   1     -49.340  27.910  33.558  0.00  0.00    -0.265 OA
BRANCH  11  13
ATOM     13  C   UNL d   1     -48.924  28.318  35.098  0.00  0.00     0.085 A 
ATOM     14  C   UNL d   1     -48.546  28.388  35.835  0.00  0.00     0.021 A 
ATOM     15  C   UNL d   1     -47.994  28.978  35.969  0.00  0.00     0.019 A 
ATOM     16  C   UNL d   1     -47.819  29.507  35.354  0.00  0.00     0.064 A 
ATOM     17  C   UNL d   1     -48.188  29.447  34.620  0.00  0.00     0.019 A 
ATOM     18  C   UNL d   1     -48.738  28.852  34.498  0.00  0.00     0.021 A 
BRANCH  16  19
ATOM     19  N   UNL d   1     -47.266  30.108  35.468  0.00  0.00    -0.304 N 
BRANCH  19  20
ATOM     20  C   UNL d   1     -46.838  30.139  36.167  0.00  0.00     0.080 C 
ATOM     21  C   UNL d   1     -47.101  30.612  36.790  0.00  0.00     0.021 C 
ENDBRANCH  19  20
BRANCH  19  22
ATOM     22  C   UNL d   1     -47.141  30.677  34.889  0.00  0.00     0.080 C 
ATOM     23  C   UNL d   1     -47.100  31.476  35.086  0.00  0.00     0.021 C 
ENDBRANCH  19  22
ENDBRANCH  16  19
ENDBRANCH  11  13
ENDBRANCH   2  10
BRANCH   8  24
ATOM     24  C   UNL d   1     -52.554  24.568  33.534  0.00  0.00     0.019 A 
ATOM     25  C   UNL d   1     -53.341  24.793  33.457  0.00  0.00     0.002 A 
ATOM     26  C   UNL d   1     -53.933  24.229  33.345  0.00  0.00     0.000 A 
ATOM     27  C   UNL d   1     -53.736  23.419  33.309  0.00  0.00     0.000 A 
ATOM     28  C   UNL d   1     -52.948  23.194  33.386  0.00  0.00     0.000 A 
ATOM     29  C   UNL d   1     -52.354  23.760  33.499  0.00  0.00     0.002 A 
ENDBRANCH   8  24
TORSDOF 6
ENDMDL
