MODEL 1
REMARK VINA RESULT:      42.0      0.000      0.000
REMARK  3 active torsions:
REMARK  status: ('A' for Active; 'I' for Inactive)
REMARK    1  A    between atoms: N_6  and  C_1 
REMARK    2  A    between atoms: C_7  and  C_2 
REMARK    3  A    between atoms: C_9  and  C_5 
ROOT
ATOM      1  C   UNL d   1     -50.489  26.483  33.720  0.00  0.00     0.189 A 
ATOM      2  C   UNL d   1     -49.997  25.863  33.404  0.00  0.00     0.144 A 
ATOM      3  O   UNL d   1     -51.261  26.142  33.806  0.00  0.00    -0.271 OA
ATOM      4  N   UNL d   1     -50.449  25.193  33.308  0.00  0.00    -0.217 NA
ATOM      5  C   UNL d   1     -51.193  25.346  33.540  0.00  0.00     0.184 A 
ENDROOT
BRANCH   5   6
ATOM      6  C   UNL d   1     -51.777  24.780  33.509  0.00  0.00     0.041 A 
ATOM      7  C   UNL d   1     -51.593  23.977  33.579  0.00  0.00     0.004 A 
ATOM      8  C   UNL d   1     -52.203  23.425  33.544  0.00  0.00     0.011 A 
ATOM      9  C   UNL d   1     -52.968  23.649  33.445  0.00  0.00     0.058 A 
ATOM     10  C   UNL d   1     -53.149  24.457  33.375  0.00  0.00     0.011 A 
ATOM     11 CL   UNL d   1     -53.681  23.195  33.392  0.00  0.00    -0.082 Cl
ATOM     12  C   UNL d   1     -52.538  25.020  33.409  0.00  0.00     0.004 A 
ENDBRANCH   5   6
BRANCH   1  13
ATOM     13  N   UNL d   1     -50.061  27.101  33.806  0.00  0.00    -0.284 N 
ATOM     14  C   UNL d   1     -49.351  27.469  34.081  0.00  0.00     0.082 A 
ATOM     15  C   UNL d   1     -49.247  28.280  33.972  0.00  0.00     0.019 A 
ATOM     16  C   UNL d   1     -49.835  28.739  33.593  0.00  0.00     0.003 A 
ATOM     17  C   UNL d   1     -50.528  28.388  33.323  0.00  0.00     0.019 A 
ATOM     18  C   UNL d   1     -50.649  27.561  33.428  0.00  0.00     0.082 A 
ENDBRANCH   1  13
BRANCH   2  19
ATOM     19  C   UNL d   1     -49.328  26.086  33.307  0.00  0.00     0.145 C 
ATOM     20  N   UNL d   1     -48.341  25.895  33.657  0.00  0.00    -0.145 N 
ENDBRANCH   2  19
TORSDOF 3
ENDMDL
MODEL 2
REMARK VINA RESULT:      42.1      1.861      4.136
REMARK  3 active torsions:
REMARK  status: ('A' for Active; 'I' for Inactive)
REMARK    1  A    between atoms: N_6  and  C_1 
REMARK    2  A    between atoms: C_7  and  C_2 
REMARK    3  A    between atoms: C_9  and  C_5 
ROOT
ATOM      1  C   UNL d   1     -52.044  25.316  33.607  0.00  0.00     0.189 A 
ATOM      2  C   UNL d   1     -51.305  24.953  33.391  0.00  0.00     0.144 A 
ATOM      3  O   UNL d   1     -51.886  26.149  33.653  0.00  0.00    -0.271 OA
ATOM      4  N   UNL d   1     -50.740  25.534  33.313  0.00  0.00    -0.217 NA
ATOM      5  C   UNL d   1     -51.070  26.241  33.465  0.00  0.00     0.184 A 
ENDROOT
BRANCH   5   6
ATOM      6  C   UNL d   1     -50.642  26.931  33.431  0.00  0.00     0.041 A 
ATOM      7  C   UNL d   1     -51.022  27.665  33.426  0.00  0.00     0.004 A 
ATOM      8  C   UNL d   1     -50.565  28.350  33.391  0.00  0.00     0.011 A 
ATOM      9  C   UNL d   1     -49.763  28.318  33.362  0.00  0.00     0.058 A 
ATOM     10  C   UNL d   1     -49.385  27.578  33.368  0.00  0.00     0.011 A 
ATOM     11 CL   UNL d   1     -49.181  28.931  33.325  0.00  0.00    -0.082 Cl
ATOM     12  C   UNL d   1     -49.840  26.883  33.402  0.00  0.00     0.004 A 
ENDBRANCH   5   6
BRANCH   1  13
ATOM     13  N   UNL d   1     -52.563  24.770  33.677  0.00  0.00    -0.284 N 
ATOM     14  C   UNL d   1     -52.760  23.957  33.798  0.00  0.00     0.082 A 
ATOM     15  C   UNL d   1     -53.552  23.729  33.811  0.00  0.00     0.019 A 
ATOM     16  C   UNL d   1     -54.161  24.294  33.707  0.00  0.00     0.003 A 
ATOM     17  C   UNL d   1     -53.977  25.087  33.589  0.00  0.00     0.019 A 
ATOM     18  C   UNL d   1     -53.172  25.335  33.573  0.00  0.00     0.082 A 
ENDBRANCH   1  13
BRANCH   2  19
ATOM     19  C   UNL d   1     -51.369  24.246  33.335  0.00  0.00     0.145 C 
ATOM     20  N   UNL d   1     -50.783  23.361  33.411  0.00  0.00    -0.145 N 
ENDBRANCH   2  19
TORSDOF 3
ENDMDL
