MODEL 1
REMARK VINA RESULT:      20.4      0.000      0.000
REMARK  5 active torsions:
REMARK  status: ('A' for Active; 'I' for Inactive)
REMARK    1  A    between atoms: C_7  and  C_1 
REMARK    2  A    between atoms: O_13  and  C_7 
REMARK    3  A    between atoms: C_15  and  C_9 
REMARK    4  A    between atoms: C_11  and  C_15 
REMARK    5  A    between atoms: C_18  and  O_13 
ROOT
ATOM      1  C   UNL d   1      59.531  49.632  50.879  0.00  0.00     0.127 A 
ATOM      2  C   UNL d   1      59.416  49.645  50.082  0.00  0.00     0.305 A 
ATOM      3  O   UNL d   1      58.638  49.665  49.755  0.00  0.00    -0.273 OA
ATOM      4  C   UNL d   1      58.877  49.638  51.413  0.00  0.00     0.013 A 
ATOM      5  C   UNL d   1      57.979  49.672  50.263  0.00  0.00     0.103 A 
ATOM      6  C   UNL d   1      58.101  49.658  51.108  0.00  0.00     0.023 A 
ATOM      7  O   UNL d   1      60.091  49.638  49.567  0.00  0.00    -0.259 OA
ATOM      8  C   UNL d   1      57.214  49.691  49.961  0.00  0.00     0.023 A 
ATOM      9  C   UNL d   1      57.453  49.664  51.619  0.00  0.00     0.002 A 
ATOM     10  C   UNL d   1      56.674  49.685  51.292  0.00  0.00     0.000 A 
ATOM     11  C   UNL d   1      56.559  49.698  50.495  0.00  0.00     0.002 A 
ENDROOT
BRANCH   1  12
ATOM     12  C   UNL d   1      60.310  49.613  51.125  0.00  0.00     0.305 C 
ATOM     13  O   UNL d   1      60.931  49.695  50.565  0.00  0.00    -0.259 OA
BRANCH  12  14
ATOM     14  O   UNL d   1      60.532  49.513  51.925  0.00  0.00    -0.271 OA
BRANCH  14  15
ATOM     15  C   UNL d   1      61.346  49.448  52.134  0.00  0.00     0.126 C 
ATOM     16  C   UNL d   1      61.585  49.706  52.878  0.00  0.00     0.029 C 
ENDBRANCH  14  15
ENDBRANCH  12  14
ENDBRANCH   1  12
BRANCH   8  17
ATOM     17  C   UNL d   1      57.097  49.705  49.149  0.00  0.00     0.002 C 
BRANCH  17  18
ATOM     18  C   UNL d   1      56.355  49.485  48.829  0.00  0.00     0.000 C 
ATOM     19  C   UNL d   1      56.034  48.749  49.001  0.00  0.00     0.000 C 
ENDBRANCH  17  18
ENDBRANCH   8  17
TORSDOF 5
ENDMDL
