MODEL 1
REMARK VINA RESULT:      34.2      0.000      0.000
REMARK  4 active torsions:
REMARK  status: ('A' for Active; 'I' for Inactive)
REMARK    1  A    between atoms: C_11  and  C_4 
REMARK    2  A    between atoms: C_9  and  C_5 
REMARK    3  A    between atoms: O_21  and  C_16 
REMARK    4  A    between atoms: O_22  and  C_17 
ROOT
ATOM      1  N   UNL d   1      14.488  13.127  -1.721  0.00  0.00    -0.185 N 
ATOM      2  C   UNL d   1      14.838  12.890  -1.008  0.00  0.00     0.219 A 
ATOM      3  N   UNL d   1      14.506  13.947  -1.752  0.00  0.00    -0.153 NA
ATOM      4  C   UNL d   1      14.254  12.450  -2.130  0.00  0.00     0.187 A 
ATOM      5  C   UNL d   1      14.867  14.226  -1.058  0.00  0.00     0.156 A 
ATOM      6  S   UNL d   1      15.072  13.568  -0.599  0.00  0.00    -0.024 SA
ATOM      7  N   UNL d   1      14.460  11.796  -1.669  0.00  0.00    -0.127 NA
ATOM      8  N   UNL d   1      14.819  12.061  -0.978  0.00  0.00    -0.120 NA
ENDROOT
BRANCH   4   9
ATOM      9  C   UNL d   1      13.883  12.426  -2.864  0.00  0.00     0.040 A 
ATOM     10  C   UNL d   1      14.015  13.035  -3.403  0.00  0.00     0.029 A 
ATOM     11  C   UNL d   1      13.649  13.017  -4.134  0.00  0.00     0.116 A 
ATOM     12  C   UNL d   1      13.146  12.391  -4.337  0.00  0.00     0.116 A 
ATOM     13  C   UNL d   1      13.015  11.779  -3.791  0.00  0.00     0.026 A 
ATOM     14  C   UNL d   1      13.386  11.802  -3.057  0.00  0.00     0.005 A 
BRANCH  11  15
ATOM     15  O   UNL d   1      13.775  13.624  -4.682  0.00  0.00    -0.326 OA
ATOM     16  C   UNL d   1      13.598  14.404  -4.495  0.00  0.00     0.181 C 
ENDBRANCH  11  15
BRANCH  12  17
ATOM     17  O   UNL d   1      12.770  12.364  -5.077  0.00  0.00    -0.326 OA
ATOM     18  C   UNL d   1      13.114  11.931  -5.686  0.00  0.00     0.181 C 
ENDBRANCH  12  17
ENDBRANCH   4   9
BRANCH   5  19
ATOM     19  C   UNL d   1      14.999  15.016  -0.862  0.00  0.00     0.126 A 
ATOM     20  O   UNL d   1      15.088  15.639  -1.388  0.00  0.00    -0.298 OA
ATOM     21  C   UNL d   1      15.208  16.328  -0.951  0.00  0.00     0.134 A 
ATOM     22 BR   UNL d   1      15.323  17.085  -1.264  0.00  0.00    -0.022 Br
ATOM     23  C   UNL d   1      15.193  16.133  -0.153  0.00  0.00     0.034 A 
ATOM     24  C   UNL d   1      15.063  15.317  -0.096  0.00  0.00     0.029 A 
ENDBRANCH   5  19
TORSDOF 4
ENDMDL
