MODEL 1
REMARK VINA RESULT:      -4.5      0.000      0.000
REMARK  5 active torsions:
REMARK  status: ('A' for Active; 'I' for Inactive)
REMARK    1  A    between atoms: C_7  and  C_1 
REMARK    2  A    between atoms: C_5  and  S_14 
REMARK       I    between atoms: N_13  and  C_7 
REMARK    3  A    between atoms: C_18  and  N_13 
REMARK    4  A    between atoms: S_14  and  C_19 
REMARK    5  A    between atoms: C_19  and  C_18 
ROOT
ATOM      1  C   UNL d   1      57.535  -0.596  31.003  0.00  0.00     0.056 C 
ENDROOT
BRANCH   1   2
ATOM      2  S   UNL d   1      57.098  -0.189  31.583  0.00  0.00    -0.083 SA
BRANCH   2   3
ATOM      3  C   UNL d   1      56.590  -0.610  32.089  0.00  0.00     0.050 A 
ATOM      4  C   UNL d   1      56.073  -0.274  32.634  0.00  0.00     0.025 A 
ATOM      5  C   UNL d   1      55.673  -0.895  33.021  0.00  0.00     0.082 A 
ATOM      6  C   UNL d   1      55.906   0.513  32.837  0.00  0.00     0.002 A 
ATOM      7  C   UNL d   1      55.113  -0.727  33.605  0.00  0.00     0.019 A 
ATOM      8  N   UNL d   1      55.953  -1.607  32.705  0.00  0.00    -0.243 NA
ATOM      9  C   UNL d   1      54.951   0.056  33.801  0.00  0.00     0.002 A 
ATOM     10  C   UNL d   1      55.352   0.681  33.414  0.00  0.00     0.000 A 
ATOM     11  C   UNL d   1      56.517  -1.430  32.132  0.00  0.00     0.105 A 
ENDBRANCH   2   3
ENDBRANCH   1   2
BRANCH   1  12
ATOM     12  C   UNL d   1      58.071  -0.185  30.529  0.00  0.00     0.109 C 
BRANCH  12  13
ATOM     13  N   UNL d   1      57.804   0.211  29.842  0.00  0.00    -0.204 NA
ATOM     14  C   UNL d   1      58.299   0.287  29.188  0.00  0.00     0.302 C 
ATOM     15  O   UNL d   1      58.030   0.679  28.513  0.00  0.00    -0.263 OA
BRANCH  14  16
ATOM     16  C   UNL d   1      59.069  -0.032  29.210  0.00  0.00     0.158 A 
ATOM     17  O   UNL d   1      59.351  -0.809  29.163  0.00  0.00    -0.296 OA
ATOM     18  C   UNL d   1      60.173  -0.780  29.216  0.00  0.00     0.134 A 
ATOM     19 BR   UNL d   1      60.688  -1.435  29.194  0.00  0.00    -0.022 Br
ATOM     20  C   UNL d   1      60.402   0.007  29.295  0.00  0.00     0.034 A 
ATOM     21  C   UNL d   1      59.720   0.467  29.290  0.00  0.00     0.032 A 
ENDBRANCH  14  16
ENDBRANCH  12  13
ENDBRANCH   1  12
TORSDOF 5
ENDMDL
MODEL 2
REMARK VINA RESULT:      -3.9      2.449      5.073
REMARK  5 active torsions:
REMARK  status: ('A' for Active; 'I' for Inactive)
REMARK    1  A    between atoms: C_7  and  C_1 
REMARK    2  A    between atoms: C_5  and  S_14 
REMARK       I    between atoms: N_13  and  C_7 
REMARK    3  A    between atoms: C_18  and  N_13 
REMARK    4  A    between atoms: S_14  and  C_19 
REMARK    5  A    between atoms: C_19  and  C_18 
ROOT
ATOM      1  C   UNL d   1      57.207  -0.009  31.037  0.00  0.00     0.056 C 
ENDROOT
BRANCH   1   2
ATOM      2  S   UNL d   1      57.958   0.341  30.947  0.00  0.00    -0.083 SA
BRANCH   2   3
ATOM      3  C   UNL d   1      58.267   0.464  30.185  0.00  0.00     0.050 A 
ATOM      4  C   UNL d   1      59.067   0.492  29.993  0.00  0.00     0.025 A 
ATOM      5  C   UNL d   1      59.126   0.627  29.173  0.00  0.00     0.082 A 
ATOM      6  C   UNL d   1      59.756   0.413  30.449  0.00  0.00     0.002 A 
ATOM      7  C   UNL d   1      59.869   0.682  28.815  0.00  0.00     0.019 A 
ATOM      8  N   UNL d   1      58.356   0.680  28.872  0.00  0.00    -0.243 NA
ATOM      9  C   UNL d   1      60.549   0.603  29.272  0.00  0.00     0.002 A 
ATOM     10  C   UNL d   1      60.491   0.468  30.096  0.00  0.00     0.000 A 
ATOM     11  C   UNL d   1      57.829   0.580  29.497  0.00  0.00     0.105 A 
ENDBRANCH   2   3
ENDBRANCH   1   2
BRANCH   1  12
ATOM     12  C   UNL d   1      56.948  -0.236  31.787  0.00  0.00     0.109 C 
BRANCH  12  13
ATOM     13  N   UNL d   1      56.642  -1.006  31.909  0.00  0.00    -0.204 NA
ATOM     14  C   UNL d   1      56.193  -1.172  32.578  0.00  0.00     0.302 C 
ATOM     15  O   UNL d   1      55.893  -1.933  32.693  0.00  0.00    -0.263 OA
BRANCH  14  16
ATOM     16  C   UNL d   1      56.040  -0.572  33.138  0.00  0.00     0.158 A 
ATOM     17  O   UNL d   1      56.421  -0.358  33.841  0.00  0.00    -0.296 OA
ATOM     18  C   UNL d   1      56.014   0.284  34.159  0.00  0.00     0.134 A 
ATOM     19 BR   UNL d   1      56.205   0.682  34.867  0.00  0.00    -0.022 Br
ATOM     20  C   UNL d   1      55.386   0.469  33.660  0.00  0.00     0.034 A 
ATOM     21  C   UNL d   1      55.403  -0.061  33.030  0.00  0.00     0.032 A 
ENDBRANCH  14  16
ENDBRANCH  12  13
ENDBRANCH   1  12
TORSDOF 5
ENDMDL
