MODEL 1
REMARK VINA RESULT:      39.6      0.000      0.000
REMARK  5 active torsions:
REMARK  status: ('A' for Active; 'I' for Inactive)
REMARK    1  A    between atoms: C_10  and  C_3 
REMARK    2  A    between atoms: N_13  and  C_4 
REMARK    3  A    between atoms: N_12  and  C_17 
REMARK    4  A    between atoms: C_16  and  N_13 
REMARK    5  A    between atoms: C_17  and  C_16 
ROOT
ATOM      1  C   UNL d   1      13.645  12.888  -3.179  0.00  0.00     0.150 A 
ATOM      2  N   UNL d   1      13.772  13.669  -2.932  0.00  0.00    -0.275 N 
ATOM      3  C   UNL d   1      13.324  12.738  -3.923  0.00  0.00     0.056 A 
ATOM      4  C   UNL d   1      13.577  14.305  -3.428  0.00  0.00     0.149 A 
ATOM      5  N   UNL d   1      13.843  12.260  -2.676  0.00  0.00    -0.227 NA
ATOM      6  C   UNL d   1      13.128  13.365  -4.423  0.00  0.00     0.007 A 
ATOM      7  C   UNL d   1      13.254  14.146  -4.176  0.00  0.00     0.038 A 
ATOM      8  C   UNL d   1      14.294  13.187  -1.676  0.00  0.00     0.084 A 
ATOM      9  C   UNL d   1      14.168  12.406  -1.923  0.00  0.00     0.099 A 
ATOM     10  C   UNL d   1      12.803  13.219  -5.176  0.00  0.00     0.000 C 
ATOM     11  C   UNL d   1      14.617  13.346  -0.928  0.00  0.00     0.019 A 
ATOM     12  C   UNL d   1      14.364  11.779  -1.424  0.00  0.00     0.021 A 
ATOM     13  C   UNL d   1      14.812  12.710  -0.433  0.00  0.00     0.002 A 
ATOM     14  C   UNL d   1      14.685  11.929  -0.680  0.00  0.00     0.002 A 
ENDROOT
BRANCH   4  15
ATOM     15  N   UNL d   1      13.703  15.082  -3.182  0.00  0.00    -0.225 NA
BRANCH  15  16
ATOM     16  C   UNL d   1      14.434  15.304  -2.873  0.00  0.00     0.120 C 
BRANCH  16  17
ATOM     17  C   UNL d   1      14.638  16.092  -2.833  0.00  0.00     0.101 C 
BRANCH  17  18
ATOM     18  N   UNL d   1      14.925  16.409  -2.136  0.00  0.00    -0.298 N 
ATOM     19  C   UNL d   1      15.342  15.930  -1.610  0.00  0.00     0.107 A 
ATOM     20  C   UNL d   1      15.633  16.246  -0.905  0.00  0.00     0.142 A 
ATOM     21  O   UNL d   1      15.511  17.040  -0.720  0.00  0.00    -0.300 OA
ATOM     22  C   UNL d   1      15.089  17.520  -1.254  0.00  0.00     0.142 A 
ATOM     23  C   UNL d   1      14.799  17.204  -1.958  0.00  0.00     0.107 A 
ENDBRANCH  17  18
ENDBRANCH  16  17
ENDBRANCH  15  16
ENDBRANCH   4  15
BRANCH   3  24
ATOM     24  C   UNL d   1      13.198  11.961  -4.169  0.00  0.00     0.125 C 
ATOM     25  N   UNL d   1      13.198  11.779  -4.931  0.00  0.00    -0.146 N 
ENDBRANCH   3  24
TORSDOF 5
ENDMDL
MODEL 2
REMARK VINA RESULT:      40.2      1.906      4.420
REMARK  5 active torsions:
REMARK  status: ('A' for Active; 'I' for Inactive)
REMARK    1  A    between atoms: C_10  and  C_3 
REMARK    2  A    between atoms: N_13  and  C_4 
REMARK    3  A    between atoms: N_12  and  C_17 
REMARK    4  A    between atoms: C_16  and  N_13 
REMARK    5  A    between atoms: C_17  and  C_16 
ROOT
ATOM      1  C   UNL d   1      14.963  14.003  -0.939  0.00  0.00     0.150 A 
ATOM      2  N   UNL d   1      14.548  14.199  -1.630  0.00  0.00    -0.275 N 
ATOM      3  C   UNL d   1      15.019  13.216  -0.702  0.00  0.00     0.056 A 
ATOM      4  C   UNL d   1      14.187  13.609  -2.087  0.00  0.00     0.149 A 
ATOM      5  N   UNL d   1      15.320  14.601  -0.490  0.00  0.00    -0.227 NA
ATOM      6  C   UNL d   1      14.663  12.622  -1.151  0.00  0.00     0.007 A 
ATOM      7  C   UNL d   1      14.248  12.818  -1.841  0.00  0.00     0.038 A 
ATOM      8  C   UNL d   1      14.851  15.594  -1.416  0.00  0.00     0.084 A 
ATOM      9  C   UNL d   1      15.266  15.398  -0.726  0.00  0.00     0.099 A 
ATOM     10  C   UNL d   1      14.717  11.825  -0.915  0.00  0.00     0.000 C 
ATOM     11  C   UNL d   1      14.790  16.385  -1.662  0.00  0.00     0.019 A 
ATOM     12  C   UNL d   1      15.622  15.992  -0.277  0.00  0.00     0.021 A 
ATOM     13  C   UNL d   1      15.151  16.975  -1.205  0.00  0.00     0.002 A 
ATOM     14  C   UNL d   1      15.566  16.779  -0.514  0.00  0.00     0.002 A 
ENDROOT
BRANCH   4  15
ATOM     15  N   UNL d   1      13.775  13.804  -2.773  0.00  0.00    -0.225 NA
BRANCH  15  16
ATOM     16  C   UNL d   1      13.698  13.250  -3.380  0.00  0.00     0.120 C 
BRANCH  16  17
ATOM     17  C   UNL d   1      13.097  13.323  -3.926  0.00  0.00     0.101 C 
BRANCH  17  18
ATOM     18  N   UNL d   1      13.142  12.933  -4.642  0.00  0.00    -0.298 N 
ATOM     19  C   UNL d   1      13.492  13.304  -5.289  0.00  0.00     0.107 A 
ATOM     20  C   UNL d   1      13.539  12.914  -6.015  0.00  0.00     0.142 A 
ATOM     21  O   UNL d   1      13.237  12.151  -6.101  0.00  0.00    -0.300 OA
ATOM     22  C   UNL d   1      12.884  11.779  -5.445  0.00  0.00     0.142 A 
ATOM     23  C   UNL d   1      12.838  12.170  -4.720  0.00  0.00     0.107 A 
ENDBRANCH  17  18
ENDBRANCH  16  17
ENDBRANCH  15  16
ENDBRANCH   4  15
BRANCH   3  24
ATOM     24  C   UNL d   1      15.432  13.021  -0.015  0.00  0.00     0.125 C 
ATOM     25  N   UNL d   1      16.173  12.774  -0.052  0.00  0.00    -0.146 N 
ENDBRANCH   3  24
TORSDOF 5
ENDMDL
MODEL 3
REMARK VINA RESULT:      41.1      0.925      2.728
REMARK  5 active torsions:
REMARK  status: ('A' for Active; 'I' for Inactive)
REMARK    1  A    between atoms: C_10  and  C_3 
REMARK    2  A    between atoms: N_13  and  C_4 
REMARK    3  A    between atoms: N_12  and  C_17 
REMARK    4  A    between atoms: C_16  and  N_13 
REMARK    5  A    between atoms: C_17  and  C_16 
ROOT
ATOM      1  C   UNL d   1      14.132  12.646  -2.037  0.00  0.00     0.150 A 
ATOM      2  N   UNL d   1      14.412  13.340  -2.393  0.00  0.00    -0.275 N 
ATOM      3  C   UNL d   1      14.332  12.473  -1.256  0.00  0.00     0.056 A 
ATOM      4  C   UNL d   1      14.894  13.867  -1.969  0.00  0.00     0.149 A 
ATOM      5  N   UNL d   1      13.652  12.127  -2.469  0.00  0.00    -0.227 NA
ATOM      6  C   UNL d   1      14.811  12.991  -0.828  0.00  0.00     0.007 A 
ATOM      7  C   UNL d   1      15.091  13.686  -1.183  0.00  0.00     0.038 A 
ATOM      8  C   UNL d   1      13.727  12.992  -3.614  0.00  0.00     0.084 A 
ATOM      9  C   UNL d   1      13.447  12.297  -3.258  0.00  0.00     0.099 A 
ATOM     10  C   UNL d   1      15.015  12.821  -0.038  0.00  0.00     0.000 C 
ATOM     11  C   UNL d   1      13.530  13.172  -4.400  0.00  0.00     0.019 A 
ATOM     12  C   UNL d   1      12.968  11.779  -3.687  0.00  0.00     0.021 A 
ATOM     13  C   UNL d   1      13.049  12.646  -4.823  0.00  0.00     0.002 A 
ATOM     14  C   UNL d   1      12.769  11.952  -4.468  0.00  0.00     0.002 A 
ENDROOT
BRANCH   4  15
ATOM     15  N   UNL d   1      15.172  14.557  -2.323  0.00  0.00    -0.225 NA
BRANCH  15  16
ATOM     16  C   UNL d   1      15.353  15.214  -1.859  0.00  0.00     0.120 C 
BRANCH  16  17
ATOM     17  C   UNL d   1      14.864  15.866  -1.865  0.00  0.00     0.101 C 
BRANCH  17  18
ATOM     18  N   UNL d   1      15.053  16.528  -1.424  0.00  0.00    -0.298 N 
ATOM     19  C   UNL d   1      15.178  16.457  -0.613  0.00  0.00     0.107 A 
ATOM     20  C   UNL d   1      15.369  17.123  -0.164  0.00  0.00     0.142 A 
ATOM     21  O   UNL d   1      15.437  17.864  -0.521  0.00  0.00    -0.300 OA
ATOM     22  C   UNL d   1      15.310  17.930  -1.342  0.00  0.00     0.142 A 
ATOM     23  C   UNL d   1      15.119  17.265  -1.789  0.00  0.00     0.107 A 
ENDBRANCH  17  18
ENDBRANCH  16  17
ENDBRANCH  15  16
ENDBRANCH   4  15
BRANCH   3  24
ATOM     24  C   UNL d   1      14.053  11.782  -0.902  0.00  0.00     0.125 C 
ATOM     25  N   UNL d   1      13.667  11.811  -0.222  0.00  0.00    -0.146 N 
ENDBRANCH   3  24
TORSDOF 5
ENDMDL
MODEL 4
REMARK VINA RESULT:      42.1      1.396      3.259
REMARK  5 active torsions:
REMARK  status: ('A' for Active; 'I' for Inactive)
REMARK    1  A    between atoms: C_10  and  C_3 
REMARK    2  A    between atoms: N_13  and  C_4 
REMARK    3  A    between atoms: N_12  and  C_17 
REMARK    4  A    between atoms: C_16  and  N_13 
REMARK    5  A    between atoms: C_17  and  C_16 
ROOT
ATOM      1  C   UNL d   1      13.558  13.672  -3.921  0.00  0.00     0.150 A 
ATOM      2  N   UNL d   1      13.809  13.436  -3.166  0.00  0.00    -0.275 N 
ATOM      3  C   UNL d   1      13.214  13.123  -4.431  0.00  0.00     0.056 A 
ATOM      4  C   UNL d   1      13.716  12.651  -2.918  0.00  0.00     0.149 A 
ATOM      5  N   UNL d   1      13.655  14.460  -4.159  0.00  0.00    -0.227 NA
ATOM      6  C   UNL d   1      13.119  12.340  -4.191  0.00  0.00     0.007 A 
ATOM      7  C   UNL d   1      13.369  12.104  -3.437  0.00  0.00     0.038 A 
ATOM      8  C   UNL d   1      14.252  14.782  -2.893  0.00  0.00     0.084 A 
ATOM      9  C   UNL d   1      14.002  15.018  -3.647  0.00  0.00     0.099 A 
ATOM     10  C   UNL d   1      12.772  11.782  -4.704  0.00  0.00     0.000 C 
ATOM     11  C   UNL d   1      14.599  15.329  -2.373  0.00  0.00     0.019 A 
ATOM     12  C   UNL d   1      14.097  15.802  -3.887  0.00  0.00     0.021 A 
ATOM     13  C   UNL d   1      14.691  16.115  -2.622  0.00  0.00     0.002 A 
ATOM     14  C   UNL d   1      14.441  16.350  -3.376  0.00  0.00     0.002 A 
ENDROOT
BRANCH   4  15
ATOM     15  N   UNL d   1      13.965  12.416  -2.168  0.00  0.00    -0.225 NA
BRANCH  15  16
ATOM     16  C   UNL d   1      13.423  12.101  -1.632  0.00  0.00     0.120 C 
BRANCH  16  17
ATOM     17  C   UNL d   1      13.628  12.010  -0.849  0.00  0.00     0.101 C 
BRANCH  17  18
ATOM     18  N   UNL d   1      14.343  12.296  -0.575  0.00  0.00    -0.298 N 
ATOM     19  C   UNL d   1      14.977  11.779  -0.470  0.00  0.00     0.107 A 
ATOM     20  C   UNL d   1      15.700  12.063  -0.193  0.00  0.00     0.142 A 
ATOM     21  O   UNL d   1      15.798  12.864  -0.019  0.00  0.00    -0.300 OA
ATOM     22  C   UNL d   1      15.155  13.382  -0.127  0.00  0.00     0.142 A 
ATOM     23  C   UNL d   1      14.432  13.098  -0.403  0.00  0.00     0.107 A 
ENDBRANCH  17  18
ENDBRANCH  16  17
ENDBRANCH  15  16
ENDBRANCH   4  15
BRANCH   3  24
ATOM     24  C   UNL d   1      12.965  13.358  -5.182  0.00  0.00     0.125 C 
ATOM     25  N   UNL d   1      13.257  13.017  -5.823  0.00  0.00    -0.146 N 
ENDBRANCH   3  24
TORSDOF 5
ENDMDL
