MODEL 1
REMARK VINA RESULT:      -7.1      0.000      0.000
REMARK  6 active torsions:
REMARK  status: ('A' for Active; 'I' for Inactive)
REMARK    1  A    between atoms: C_3  and  C_1 
REMARK    2  A    between atoms: C_2  and  C_4 
REMARK    3  A    between atoms: C_9  and  C_3 
REMARK    4  A    between atoms: C_4  and  C_10 
REMARK    5  A    between atoms: C_17  and  C_9 
REMARK    6  A    between atoms: C_10  and  C_17 
ROOT
ATOM      1  C   UNL d   1      53.996  32.480  53.661  0.00  0.00     0.006 C 
ATOM      2  C   UNL d   1      54.766  32.552  53.316  0.00  0.00     0.000 C 
ENDROOT
BRANCH   1   3
ATOM      3  C   UNL d   1      53.735  31.725  53.865  0.00  0.00     0.043 C 
BRANCH   3   4
ATOM      4  C   UNL d   1      53.412  31.215  53.312  0.00  0.00     0.202 C 
ATOM      5  O   UNL d   1      53.255  31.460  52.525  0.00  0.00    -0.286 OA
BRANCH   4   6
ATOM      6  C   UNL d   1      53.231  30.437  53.517  0.00  0.00     0.068 A 
ATOM      7  S   UNL d   1      52.619  30.008  53.160  0.00  0.00    -0.083 SA
ATOM      8  C   UNL d   1      52.584  29.259  53.486  0.00  0.00     0.035 A 
ATOM      9  C   UNL d   1      53.184  29.212  54.060  0.00  0.00     0.008 A 
ATOM     10  C   UNL d   1      53.571  29.935  54.071  0.00  0.00     0.010 A 
ENDBRANCH   4   6
ENDBRANCH   3   4
ENDBRANCH   1   3
BRANCH   1  11
ATOM     11  C   UNL d   1      53.520  33.137  53.790  0.00  0.00     0.043 C 
BRANCH  11  12
ATOM     12  C   UNL d   1      53.777  33.749  54.324  0.00  0.00     0.202 C 
ATOM     13  O   UNL d   1      54.432  33.629  54.798  0.00  0.00    -0.286 OA
BRANCH  12  14
ATOM     14  C   UNL d   1      53.351  34.472  54.356  0.00  0.00     0.068 A 
ATOM     15  S   UNL d   1      53.334  35.011  55.012  0.00  0.00    -0.083 SA
ATOM     16  C   UNL d   1      52.851  35.641  54.806  0.00  0.00     0.035 A 
ATOM     17  C   UNL d   1      52.565  35.509  54.036  0.00  0.00     0.008 A 
ATOM     18  C   UNL d   1      52.867  34.806  53.768  0.00  0.00     0.010 A 
ENDBRANCH  12  14
ENDBRANCH  11  12
ENDBRANCH   1  11
TORSDOF 6
ENDMDL
MODEL 2
REMARK VINA RESULT:      -7.1      1.537      1.776
REMARK  6 active torsions:
REMARK  status: ('A' for Active; 'I' for Inactive)
REMARK    1  A    between atoms: C_3  and  C_1 
REMARK    2  A    between atoms: C_2  and  C_4 
REMARK    3  A    between atoms: C_9  and  C_3 
REMARK    4  A    between atoms: C_4  and  C_10 
REMARK    5  A    between atoms: C_17  and  C_9 
REMARK    6  A    between atoms: C_10  and  C_17 
ROOT
ATOM      1  C   UNL d   1      53.402  32.889  53.817  0.00  0.00     0.006 C 
ATOM      2  C   UNL d   1      54.038  33.268  54.229  0.00  0.00     0.000 C 
ENDROOT
BRANCH   1   3
ATOM      3  C   UNL d   1      53.267  32.091  53.970  0.00  0.00     0.043 C 
BRANCH   3   4
ATOM      4  C   UNL d   1      53.716  31.502  53.621  0.00  0.00     0.202 C 
ATOM      5  O   UNL d   1      54.479  31.655  53.311  0.00  0.00    -0.286 OA
BRANCH   4   6
ATOM      6  C   UNL d   1      53.423  30.732  53.565  0.00  0.00     0.068 A 
ATOM      7  S   UNL d   1      53.583  30.149  54.131  0.00  0.00    -0.083 SA
ATOM      8  C   UNL d   1      53.214  29.451  53.915  0.00  0.00     0.035 A 
ATOM      9  C   UNL d   1      52.814  29.595  53.200  0.00  0.00     0.008 A 
ATOM     10  C   UNL d   1      52.949  30.378  52.996  0.00  0.00     0.010 A 
ENDBRANCH   4   6
ENDBRANCH   3   4
ENDBRANCH   1   3
BRANCH   1  11
ATOM     11  C   UNL d   1      52.931  33.299  53.283  0.00  0.00     0.043 C 
BRANCH  11  12
ATOM     12  C   UNL d   1      52.358  33.863  53.566  0.00  0.00     0.202 C 
ATOM     13  O   UNL d   1      52.467  34.226  54.290  0.00  0.00    -0.286 OA
BRANCH  12  14
ATOM     14  C   UNL d   1      51.687  34.038  53.094  0.00  0.00     0.068 A 
ATOM     15  S   UNL d   1      50.880  34.043  53.359  0.00  0.00    -0.083 SA
ATOM     16  C   UNL d   1      50.407  34.242  52.720  0.00  0.00     0.035 A 
ATOM     17  C   UNL d   1      50.899  34.362  52.060  0.00  0.00     0.008 A 
ATOM     18  C   UNL d   1      51.667  34.239  52.288  0.00  0.00     0.010 A 
ENDBRANCH  12  14
ENDBRANCH  11  12
ENDBRANCH   1  11
TORSDOF 6
ENDMDL
MODEL 3
REMARK VINA RESULT:      -7.1      0.045      4.396
REMARK  6 active torsions:
REMARK  status: ('A' for Active; 'I' for Inactive)
REMARK    1  A    between atoms: C_3  and  C_1 
REMARK    2  A    between atoms: C_2  and  C_4 
REMARK    3  A    between atoms: C_9  and  C_3 
REMARK    4  A    between atoms: C_4  and  C_10 
REMARK    5  A    between atoms: C_17  and  C_9 
REMARK    6  A    between atoms: C_10  and  C_17 
ROOT
ATOM      1  C   UNL d   1      53.993  32.500  53.665  0.00  0.00     0.006 C 
ATOM      2  C   UNL d   1      54.760  32.599  53.319  0.00  0.00     0.000 C 
ENDROOT
BRANCH   1   3
ATOM      3  C   UNL d   1      53.534  33.174  53.780  0.00  0.00     0.043 C 
BRANCH   3   4
ATOM      4  C   UNL d   1      53.746  33.756  54.316  0.00  0.00     0.202 C 
ATOM      5  O   UNL d   1      54.378  33.647  54.857  0.00  0.00    -0.286 OA
BRANCH   4   6
ATOM      6  C   UNL d   1      53.339  34.473  54.336  0.00  0.00     0.068 A 
ATOM      7  S   UNL d   1      53.335  34.969  55.000  0.00  0.00    -0.083 SA
ATOM      8  C   UNL d   1      52.882  35.633  54.842  0.00  0.00     0.035 A 
ATOM      9  C   UNL d   1      52.595  35.555  54.065  0.00  0.00     0.008 A 
ATOM     10  C   UNL d   1      52.879  34.846  53.767  0.00  0.00     0.010 A 
ENDBRANCH   4   6
ENDBRANCH   3   4
ENDBRANCH   1   3
BRANCH   1  11
ATOM     11  C   UNL d   1      53.712  31.759  53.880  0.00  0.00     0.043 C 
BRANCH  11  12
ATOM     12  C   UNL d   1      53.392  31.237  53.286  0.00  0.00     0.202 C 
ATOM     13  O   UNL d   1      53.270  31.510  52.526  0.00  0.00    -0.286 OA
BRANCH  12  14
ATOM     14  C   UNL d   1      53.207  30.445  53.493  0.00  0.00     0.068 A 
ATOM     15  S   UNL d   1      52.593  29.971  53.146  0.00  0.00    -0.083 SA
ATOM     16  C   UNL d   1      52.607  29.237  53.511  0.00  0.00     0.035 A 
ATOM     17  C   UNL d   1      53.214  29.240  54.079  0.00  0.00     0.008 A 
ATOM     18  C   UNL d   1      53.573  29.968  54.066  0.00  0.00     0.010 A 
ENDBRANCH  12  14
ENDBRANCH  11  12
ENDBRANCH   1  11
TORSDOF 6
ENDMDL
MODEL 4
REMARK VINA RESULT:      -7.0      1.458      4.099
REMARK  6 active torsions:
REMARK  status: ('A' for Active; 'I' for Inactive)
REMARK    1  A    between atoms: C_3  and  C_1 
REMARK    2  A    between atoms: C_2  and  C_4 
REMARK    3  A    between atoms: C_9  and  C_3 
REMARK    4  A    between atoms: C_4  and  C_10 
REMARK    5  A    between atoms: C_17  and  C_9 
REMARK    6  A    between atoms: C_10  and  C_17 
ROOT
ATOM      1  C   UNL d   1      53.447  32.886  53.876  0.00  0.00     0.006 C 
ATOM      2  C   UNL d   1      54.090  33.279  54.264  0.00  0.00     0.000 C 
ENDROOT
BRANCH   1   3
ATOM      3  C   UNL d   1      52.993  33.323  53.346  0.00  0.00     0.043 C 
BRANCH   3   4
ATOM      4  C   UNL d   1      52.416  33.846  53.599  0.00  0.00     0.202 C 
ATOM      5  O   UNL d   1      52.449  34.208  54.354  0.00  0.00    -0.286 OA
BRANCH   4   6
ATOM      6  C   UNL d   1      51.777  34.031  53.109  0.00  0.00     0.068 A 
ATOM      7  S   UNL d   1      50.995  34.056  53.380  0.00  0.00    -0.083 SA
ATOM      8  C   UNL d   1      50.498  34.256  52.762  0.00  0.00     0.035 A 
ATOM      9  C   UNL d   1      50.974  34.360  52.088  0.00  0.00     0.008 A 
ATOM     10  C   UNL d   1      51.751  34.221  52.311  0.00  0.00     0.010 A 
ENDBRANCH   4   6
ENDBRANCH   3   4
ENDBRANCH   1   3
BRANCH   1  11
ATOM     11  C   UNL d   1      53.278  32.096  54.021  0.00  0.00     0.043 C 
BRANCH  11  12
ATOM     12  C   UNL d   1      53.741  31.486  53.646  0.00  0.00     0.202 C 
ATOM     13  O   UNL d   1      54.453  31.675  53.291  0.00  0.00    -0.286 OA
BRANCH  12  14
ATOM     14  C   UNL d   1      53.458  30.696  53.647  0.00  0.00     0.068 A 
ATOM     15  S   UNL d   1      52.978  30.339  53.044  0.00  0.00    -0.083 SA
ATOM     16  C   UNL d   1      52.830  29.564  53.267  0.00  0.00     0.035 A 
ATOM     17  C   UNL d   1      53.206  29.427  53.997  0.00  0.00     0.008 A 
ATOM     18  C   UNL d   1      53.582  30.109  54.222  0.00  0.00     0.010 A 
ENDBRANCH  12  14
ENDBRANCH  11  12
ENDBRANCH   1  11
TORSDOF 6
ENDMDL
MODEL 5
REMARK VINA RESULT:      -7.0      2.039      3.178
REMARK  6 active torsions:
REMARK  status: ('A' for Active; 'I' for Inactive)
REMARK    1  A    between atoms: C_3  and  C_1 
REMARK    2  A    between atoms: C_2  and  C_4 
REMARK    3  A    between atoms: C_9  and  C_3 
REMARK    4  A    between atoms: C_4  and  C_10 
REMARK    5  A    between atoms: C_17  and  C_9 
REMARK    6  A    between atoms: C_10  and  C_17 
ROOT
ATOM      1  C   UNL d   1      53.094  32.178  53.285  0.00  0.00     0.006 C 
ATOM      2  C   UNL d   1      53.167  31.393  52.977  0.00  0.00     0.000 C 
ENDROOT
BRANCH   1   3
ATOM      3  C   UNL d   1      53.507  32.361  53.975  0.00  0.00     0.043 C 
BRANCH   3   4
ATOM      4  C   UNL d   1      54.277  32.636  53.957  0.00  0.00     0.202 C 
ATOM      5  O   UNL d   1      54.782  32.493  53.303  0.00  0.00    -0.286 OA
BRANCH   4   6
ATOM      6  C   UNL d   1      54.581  33.068  54.592  0.00  0.00     0.068 A 
ATOM      7  S   UNL d   1      55.171  33.642  54.504  0.00  0.00    -0.083 SA
ATOM      8  C   UNL d   1      55.348  33.966  55.234  0.00  0.00     0.035 A 
ATOM      9  C   UNL d   1      54.861  33.590  55.794  0.00  0.00     0.008 A 
ATOM     10  C   UNL d   1      54.398  33.046  55.392  0.00  0.00     0.010 A 
ENDBRANCH   4   6
ENDBRANCH   3   4
ENDBRANCH   1   3
BRANCH   1  11
ATOM     11  C   UNL d   1      52.629  32.744  52.914  0.00  0.00     0.043 C 
BRANCH  11  12
ATOM     12  C   UNL d   1      51.779  32.695  52.962  0.00  0.00     0.202 C 
ATOM     13  O   UNL d   1      51.423  31.994  53.183  0.00  0.00    -0.286 OA
BRANCH  12  14
ATOM     14  C   UNL d   1      51.318  33.372  52.781  0.00  0.00     0.068 A 
ATOM     15  S   UNL d   1      50.667  33.668  53.240  0.00  0.00    -0.083 SA
ATOM     16  C   UNL d   1      50.377  34.336  52.863  0.00  0.00     0.035 A 
ATOM     17  C   UNL d   1      50.832  34.466  52.178  0.00  0.00     0.008 A 
ATOM     18  C   UNL d   1      51.396  33.885  52.131  0.00  0.00     0.010 A 
ENDBRANCH  12  14
ENDBRANCH  11  12
ENDBRANCH   1  11
TORSDOF 6
ENDMDL
MODEL 6
REMARK VINA RESULT:      -6.9      2.140      3.482
REMARK  6 active torsions:
REMARK  status: ('A' for Active; 'I' for Inactive)
REMARK    1  A    between atoms: C_3  and  C_1 
REMARK    2  A    between atoms: C_2  and  C_4 
REMARK    3  A    between atoms: C_9  and  C_3 
REMARK    4  A    between atoms: C_4  and  C_10 
REMARK    5  A    between atoms: C_17  and  C_9 
REMARK    6  A    between atoms: C_10  and  C_17 
ROOT
ATOM      1  C   UNL d   1      52.626  32.651  53.176  0.00  0.00     0.006 C 
ATOM      2  C   UNL d   1      52.592  31.876  52.835  0.00  0.00     0.000 C 
ENDROOT
BRANCH   1   3
ATOM      3  C   UNL d   1      51.925  33.082  53.221  0.00  0.00     0.043 C 
BRANCH   3   4
ATOM      4  C   UNL d   1      51.652  33.531  52.593  0.00  0.00     0.202 C 
ATOM      5  O   UNL d   1      52.069  33.573  51.867  0.00  0.00    -0.286 OA
BRANCH   4   6
ATOM      6  C   UNL d   1      50.949  33.958  52.661  0.00  0.00     0.068 A 
ATOM      7  S   UNL d   1      50.480  34.158  52.008  0.00  0.00    -0.083 SA
ATOM      8  C   UNL d   1      49.826  34.580  52.260  0.00  0.00     0.035 A 
ATOM      9  C   UNL d   1      49.882  34.648  53.088  0.00  0.00     0.008 A 
ATOM     10  C   UNL d   1      50.570  34.266  53.320  0.00  0.00     0.010 A 
ENDBRANCH   4   6
ENDBRANCH   3   4
ENDBRANCH   1   3
BRANCH   1  11
ATOM     11  C   UNL d   1      53.331  32.967  53.453  0.00  0.00     0.043 C 
BRANCH  11  12
ATOM     12  C   UNL d   1      53.750  32.581  54.087  0.00  0.00     0.202 C 
ATOM     13  O   UNL d   1      53.596  31.797  54.259  0.00  0.00    -0.286 OA
BRANCH  12  14
ATOM     14  C   UNL d   1      54.317  33.014  54.528  0.00  0.00     0.068 A 
ATOM     15  S   UNL d   1      54.287  33.168  55.363  0.00  0.00    -0.083 SA
ATOM     16  C   UNL d   1      54.949  33.609  55.562  0.00  0.00     0.035 A 
ATOM     17  C   UNL d   1      55.394  33.735  54.870  0.00  0.00     0.008 A 
ATOM     18  C   UNL d   1      55.012  33.377  54.251  0.00  0.00     0.010 A 
ENDBRANCH  12  14
ENDBRANCH  11  12
ENDBRANCH   1  11
TORSDOF 6
ENDMDL
MODEL 7
REMARK VINA RESULT:      -6.3      2.853      4.549
REMARK  6 active torsions:
REMARK  status: ('A' for Active; 'I' for Inactive)
REMARK    1  A    between atoms: C_3  and  C_1 
REMARK    2  A    between atoms: C_2  and  C_4 
REMARK    3  A    between atoms: C_9  and  C_3 
REMARK    4  A    between atoms: C_4  and  C_10 
REMARK    5  A    between atoms: C_17  and  C_9 
REMARK    6  A    between atoms: C_10  and  C_17 
ROOT
ATOM      1  C   UNL d   1      51.770  33.913  52.979  0.00  0.00     0.006 C 
ATOM      2  C   UNL d   1      52.161  34.575  53.334  0.00  0.00     0.000 C 
ENDROOT
BRANCH   1   3
ATOM      3  C   UNL d   1      51.176  34.067  52.429  0.00  0.00     0.043 C 
BRANCH   3   4
ATOM      4  C   UNL d   1      50.443  34.356  52.654  0.00  0.00     0.202 C 
ATOM      5  O   UNL d   1      50.273  34.553  53.451  0.00  0.00    -0.286 OA
BRANCH   4   6
ATOM      6  C   UNL d   1      49.846  34.461  52.093  0.00  0.00     0.068 A 
ATOM      7  S   UNL d   1      49.123  34.822  52.270  0.00  0.00    -0.083 SA
ATOM      8  C   UNL d   1      48.655  34.841  51.599  0.00  0.00     0.035 A 
ATOM      9  C   UNL d   1      49.092  34.485  50.986  0.00  0.00     0.008 A 
ATOM     10  C   UNL d   1      49.815  34.258  51.298  0.00  0.00     0.010 A 
ENDBRANCH   4   6
ENDBRANCH   3   4
ENDBRANCH   1   3
BRANCH   1  11
ATOM     11  C   UNL d   1      51.972  33.141  53.172  0.00  0.00     0.043 C 
BRANCH  11  12
ATOM     12  C   UNL d   1      52.779  32.878  53.086  0.00  0.00     0.202 C 
ATOM     13  O   UNL d   1      53.366  33.417  52.904  0.00  0.00    -0.286 OA
BRANCH  12  14
ATOM     14  C   UNL d   1      52.959  32.065  53.189  0.00  0.00     0.068 A 
ATOM     15  S   UNL d   1      53.585  31.752  53.670  0.00  0.00    -0.083 SA
ATOM     16  C   UNL d   1      53.561  30.934  53.612  0.00  0.00     0.035 A 
ATOM     17  C   UNL d   1      52.935  30.728  53.105  0.00  0.00     0.008 A 
ATOM     18  C   UNL d   1      52.574  31.410  52.853  0.00  0.00     0.010 A 
ENDBRANCH  12  14
ENDBRANCH  11  12
ENDBRANCH   1  11
TORSDOF 6
ENDMDL
