MODEL 1
REMARK VINA RESULT:      45.6      0.000      0.000
REMARK  4 active torsions:
REMARK  status: ('A' for Active; 'I' for Inactive)
REMARK    1  A    between atoms: S_10  and  C_1 
REMARK    2  A    between atoms: N_3  and  C_2 
REMARK    3  A    between atoms: S_4  and  C_9 
REMARK    4  A    between atoms: C_8  and  S_10 
ROOT
ATOM      1  C   UNL d   1      60.710  49.110  50.695  0.00  0.00     0.133 A 
ATOM      2  C   UNL d   1      61.124  48.913  51.388  0.00  0.00     0.035 A 
ATOM      3  C   UNL d   1      59.981  49.497  50.748  0.00  0.00     0.053 A 
ATOM      4  C   UNL d   1      60.808  49.103  52.130  0.00  0.00     0.086 A 
ATOM      5  C   UNL d   1      59.667  49.687  51.487  0.00  0.00     0.009 A 
ATOM      6  C   UNL d   1      60.077  49.491  52.178  0.00  0.00     0.012 A 
ENDROOT
BRANCH   3   7
ATOM      7  S   UNL d   1      59.568  49.695  50.060  0.00  0.00    -0.060 SA
BRANCH   7   8
ATOM      8  C   UNL d   1      58.741  49.691  50.059  0.00  0.00     0.141 A 
ATOM      9  N   UNL d   1      58.255  49.672  50.725  0.00  0.00    -0.232 NA
ATOM     10  C   UNL d   1      57.470  49.674  50.467  0.00  0.00     0.088 A 
ATOM     11  C   UNL d   1      56.758  49.661  50.873  0.00  0.00     0.020 A 
ATOM     12  C   UNL d   1      57.472  49.695  49.644  0.00  0.00     0.049 A 
ATOM     13  C   UNL d   1      56.047  49.668  50.458  0.00  0.00     0.002 A 
ATOM     14  C   UNL d   1      56.052  49.689  49.634  0.00  0.00     0.001 A 
ATOM     15  C   UNL d   1      56.765  49.702  49.229  0.00  0.00     0.008 A 
ATOM     16  S   UNL d   1      58.260  49.705  49.389  0.00  0.00    -0.060 SA
ENDBRANCH   7   8
ENDBRANCH   3   7
BRANCH   1  17
ATOM     17  N   UNL d   1      61.026  48.920  49.951  0.00  0.00    -0.113 N 
ATOM     18  O   UNL d   1      61.225  49.522  49.421  0.00  0.00    -0.532 OA
ATOM     19  O   UNL d   1      61.141  48.128  49.742  0.00  0.00    -0.532 OA
ENDBRANCH   1  17
BRANCH   4  20
ATOM     20  S   UNL d   1      61.219  48.907  52.818  0.00  0.00     0.191 S 
ATOM     21  O   UNL d   1      61.631  48.707  53.506  0.00  0.00    -0.222 OA
ATOM     22  O   UNL d   1      61.213  48.114  52.600  0.00  0.00    -0.222 OA
ATOM     23  C   UNL d   1      61.226  49.707  53.041  0.00  0.00     0.145 C 
ENDBRANCH   4  20
TORSDOF 4
ENDMDL
