MODEL 1
REMARK VINA RESULT:      -3.1      0.000      0.000
REMARK  4 active torsions:
REMARK  status: ('A' for Active; 'I' for Inactive)
REMARK       I    between atoms: C_2  and  N_1 
REMARK       I    between atoms: N_8  and  C_2 
REMARK    1  A    between atoms: C_12  and  N_8 
REMARK    2  A    between atoms: C_9  and  C_12 
REMARK    3  A    between atoms: O_13  and  C_9 
REMARK    4  A    between atoms: C_18  and  O_13 
ROOT
ATOM      1  N   UNL d   1      59.289  -1.386  29.509  0.00  0.00    -0.258 N 
ATOM      2  C   UNL d   1      58.553  -1.354  29.877  0.00  0.00     0.354 C 
ATOM      3  S   UNL d   1      60.775  -1.449  28.768  0.00  0.00    -0.084 SA
ATOM      4  C   UNL d   1      59.553  -2.088  29.167  0.00  0.00     0.074 A 
ATOM      5  C   UNL d   1      59.764  -0.711  29.484  0.00  0.00     0.074 A 
ATOM      6  C   UNL d   1      60.294  -2.124  28.796  0.00  0.00     0.046 A 
ATOM      7  C   UNL d   1      60.511  -0.743  29.112  0.00  0.00     0.046 A 
ATOM      8  N   UNL d   1      58.291  -0.643  30.221  0.00  0.00    -0.185 NA
ATOM      9  O   UNL d   1      58.079  -2.026  29.902  0.00  0.00    -0.244 OA
ATOM     10  C   UNL d   1      59.075  -2.754  29.196  0.00  0.00     0.018 A 
ATOM     11  C   UNL d   1      59.498  -0.017  29.826  0.00  0.00     0.018 A 
ATOM     12  C   UNL d   1      60.984  -0.080  29.084  0.00  0.00     0.008 A 
ATOM     13  C   UNL d   1      60.553  -2.829  28.455  0.00  0.00     0.008 A 
ATOM     14  C   UNL d   1      59.326  -3.466  28.857  0.00  0.00     0.002 A 
ATOM     15  C   UNL d   1      59.985   0.668  29.798  0.00  0.00     0.002 A 
ATOM     16  C   UNL d   1      60.727   0.632  29.427  0.00  0.00     0.001 A 
ATOM     17  C   UNL d   1      60.063  -3.502  28.487  0.00  0.00     0.001 A 
ENDROOT
BRANCH   8  18
ATOM     18  C   UNL d   1      57.531  -0.610  30.600  0.00  0.00     0.172 C 
BRANCH  18  19
ATOM     19  C   UNL d   1      57.329   0.052  31.028  0.00  0.00     0.320 C 
ATOM     20  O   UNL d   1      56.957   0.682  30.651  0.00  0.00    -0.257 OA
BRANCH  19  21
ATOM     21  O   UNL d   1      57.494   0.094  31.824  0.00  0.00    -0.270 OA
BRANCH  21  22
ATOM     22  C   UNL d   1      56.902   0.339  32.361  0.00  0.00     0.126 C 
ATOM     23  C   UNL d   1      57.099   0.510  33.137  0.00  0.00     0.029 C 
ENDBRANCH  21  22
ENDBRANCH  19  21
ENDBRANCH  18  19
ENDBRANCH   8  18
TORSDOF 4
ENDMDL
MODEL 2
REMARK VINA RESULT:      -2.3      8.911      9.294
REMARK  4 active torsions:
REMARK  status: ('A' for Active; 'I' for Inactive)
REMARK       I    between atoms: C_2  and  N_1 
REMARK       I    between atoms: N_8  and  C_2 
REMARK    1  A    between atoms: C_12  and  N_8 
REMARK    2  A    between atoms: C_9  and  C_12 
REMARK    3  A    between atoms: O_13  and  C_9 
REMARK    4  A    between atoms: C_18  and  O_13 
ROOT
ATOM      1  N   UNL d   1      59.517  -9.813  31.236  0.00  0.00    -0.258 N 
ATOM      2  C   UNL d   1      59.966  -9.814  31.927  0.00  0.00     0.354 C 
ATOM      3  S   UNL d   1      58.610  -9.809  29.844  0.00  0.00    -0.084 SA
ATOM      4  C   UNL d   1      59.888  -9.811  30.499  0.00  0.00     0.074 A 
ATOM      5  C   UNL d   1      58.693  -9.813  31.284  0.00  0.00     0.074 A 
ATOM      6  C   UNL d   1      59.438  -9.809  29.802  0.00  0.00     0.046 A 
ATOM      7  C   UNL d   1      58.237  -9.811  30.584  0.00  0.00     0.046 A 
ATOM      8  N   UNL d   1      59.588  -9.816  32.669  0.00  0.00    -0.185 NA
ATOM      9  O   UNL d   1      60.787  -9.814  31.880  0.00  0.00    -0.244 OA
ATOM     10  C   UNL d   1      60.706  -9.811  30.461  0.00  0.00     0.018 A 
ATOM     11  C   UNL d   1      58.330  -9.815  32.017  0.00  0.00     0.018 A 
ATOM     12  C   UNL d   1      57.423  -9.811  30.624  0.00  0.00     0.008 A 
ATOM     13  C   UNL d   1      59.813  -9.807  29.068  0.00  0.00     0.008 A 
ATOM     14  C   UNL d   1      61.092  -9.809  29.729  0.00  0.00     0.002 A 
ATOM     15  C   UNL d   1      57.490  -9.815  32.061  0.00  0.00     0.002 A 
ATOM     16  C   UNL d   1      57.041  -9.813  31.363  0.00  0.00     0.001 A 
ATOM     17  C   UNL d   1      60.646  -9.807  29.035  0.00  0.00     0.001 A 
ENDROOT
BRANCH   8  18
ATOM     18  C   UNL d   1      60.051  -9.818  33.380  0.00  0.00     0.172 C 
BRANCH  18  19
ATOM     19  C   UNL d   1      59.783  -9.406  34.029  0.00  0.00     0.320 C 
ATOM     20  O   UNL d   1      59.713  -8.586  33.990  0.00  0.00    -0.257 OA
BRANCH  19  21
ATOM     21  O   UNL d   1      59.586  -9.799  34.713  0.00  0.00    -0.270 OA
BRANCH  21  22
ATOM     22  C   UNL d   1      59.768  -9.462  35.456  0.00  0.00     0.126 C 
ATOM     23  C   UNL d   1      59.293  -9.619  36.105  0.00  0.00     0.029 C 
ENDBRANCH  21  22
ENDBRANCH  19  21
ENDBRANCH  18  19
ENDBRANCH   8  18
TORSDOF 4
ENDMDL
MODEL 3
REMARK VINA RESULT:      -2.2      8.948      9.286
REMARK  4 active torsions:
REMARK  status: ('A' for Active; 'I' for Inactive)
REMARK       I    between atoms: C_2  and  N_1 
REMARK       I    between atoms: N_8  and  C_2 
REMARK    1  A    between atoms: C_12  and  N_8 
REMARK    2  A    between atoms: C_9  and  C_12 
REMARK    3  A    between atoms: O_13  and  C_9 
REMARK    4  A    between atoms: C_18  and  O_13 
ROOT
ATOM      1  N   UNL d   1      58.763  -9.817  31.424  0.00  0.00    -0.258 N 
ATOM      2  C   UNL d   1      58.600  -9.818  32.232  0.00  0.00     0.354 C 
ATOM      3  S   UNL d   1      59.090  -9.817  29.795  0.00  0.00    -0.084 SA
ATOM      4  C   UNL d   1      58.145  -9.817  30.876  0.00  0.00     0.074 A 
ATOM      5  C   UNL d   1      59.545  -9.817  31.163  0.00  0.00     0.074 A 
ATOM      6  C   UNL d   1      58.305  -9.817  30.062  0.00  0.00     0.046 A 
ATOM      7  C   UNL d   1      59.710  -9.817  30.345  0.00  0.00     0.046 A 
ATOM      8  N   UNL d   1      59.226  -9.818  32.781  0.00  0.00    -0.185 NA
ATOM      9  O   UNL d   1      57.820  -9.818  32.492  0.00  0.00    -0.244 OA
ATOM     10  C   UNL d   1      57.371  -9.818  31.144  0.00  0.00     0.018 A 
ATOM     11  C   UNL d   1      60.153  -9.817  31.711  0.00  0.00     0.018 A 
ATOM     12  C   UNL d   1      60.481  -9.817  30.081  0.00  0.00     0.008 A 
ATOM     13  C   UNL d   1      57.685  -9.817  29.519  0.00  0.00     0.008 A 
ATOM     14  C   UNL d   1      56.741  -9.818  30.606  0.00  0.00     0.002 A 
ATOM     15  C   UNL d   1      60.950  -9.817  31.441  0.00  0.00     0.002 A 
ATOM     16  C   UNL d   1      61.109  -9.817  30.626  0.00  0.00     0.001 A 
ATOM     17  C   UNL d   1      56.899  -9.818  29.796  0.00  0.00     0.001 A 
ENDROOT
BRANCH   8  18
ATOM     18  C   UNL d   1      59.059  -9.818  33.613  0.00  0.00     0.172 C 
BRANCH  18  19
ATOM     19  C   UNL d   1      59.550  -9.408  34.117  0.00  0.00     0.320 C 
ATOM     20  O   UNL d   1      59.467  -8.592  34.191  0.00  0.00    -0.257 OA
BRANCH  19  21
ATOM     21  O   UNL d   1      60.119  -9.800  34.546  0.00  0.00    -0.270 OA
BRANCH  21  22
ATOM     22  C   UNL d   1      60.247  -9.604  35.348  0.00  0.00     0.126 C 
ATOM     23  C   UNL d   1      60.996  -9.672  35.673  0.00  0.00     0.029 C 
ENDBRANCH  21  22
ENDBRANCH  19  21
ENDBRANCH  18  19
ENDBRANCH   8  18
TORSDOF 4
ENDMDL
MODEL 4
REMARK VINA RESULT:      -1.9      0.923      2.366
REMARK  4 active torsions:
REMARK  status: ('A' for Active; 'I' for Inactive)
REMARK       I    between atoms: C_2  and  N_1 
REMARK       I    between atoms: N_8  and  C_2 
REMARK    1  A    between atoms: C_12  and  N_8 
REMARK    2  A    between atoms: C_9  and  C_12 
REMARK    3  A    between atoms: O_13  and  C_9 
REMARK    4  A    between atoms: C_18  and  O_13 
ROOT
ATOM      1  N   UNL d   1      59.128  -0.859  29.573  0.00  0.00    -0.258 N 
ATOM      2  C   UNL d   1      58.625  -0.462  30.091  0.00  0.00     0.354 C 
ATOM      3  S   UNL d   1      60.143  -1.660  28.529  0.00  0.00    -0.084 SA
ATOM      4  C   UNL d   1      59.798  -0.482  29.274  0.00  0.00     0.074 A 
ATOM      5  C   UNL d   1      58.960  -1.636  29.354  0.00  0.00     0.074 A 
ATOM      6  C   UNL d   1      60.308  -0.879  28.753  0.00  0.00     0.046 A 
ATOM      7  C   UNL d   1      59.470  -2.039  28.829  0.00  0.00     0.046 A 
ATOM      8  N   UNL d   1      57.950  -0.846  30.391  0.00  0.00    -0.185 NA
ATOM      9  O   UNL d   1      58.792   0.313  30.310  0.00  0.00    -0.244 OA
ATOM     10  C   UNL d   1      59.958   0.291  29.497  0.00  0.00     0.018 A 
ATOM     11  C   UNL d   1      58.294  -2.005  29.654  0.00  0.00     0.018 A 
ATOM     12  C   UNL d   1      59.309  -2.807  28.610  0.00  0.00     0.008 A 
ATOM     13  C   UNL d   1      60.976  -0.497  28.457  0.00  0.00     0.008 A 
ATOM     14  C   UNL d   1      60.627   0.682  29.205  0.00  0.00     0.002 A 
ATOM     15  C   UNL d   1      58.127  -2.798  29.428  0.00  0.00     0.002 A 
ATOM     16  C   UNL d   1      58.636  -3.194  28.906  0.00  0.00     0.001 A 
ATOM     17  C   UNL d   1      61.133   0.288  28.687  0.00  0.00     0.001 A 
ENDROOT
BRANCH   8  18
ATOM     18  C   UNL d   1      57.432  -0.437  30.924  0.00  0.00     0.172 C 
BRANCH  18  19
ATOM     19  C   UNL d   1      57.004  -0.865  31.469  0.00  0.00     0.320 C 
ATOM     20  O   UNL d   1      56.640  -1.567  31.240  0.00  0.00    -0.257 OA
BRANCH  19  21
ATOM     21  O   UNL d   1      56.937  -0.603  32.236  0.00  0.00    -0.270 OA
BRANCH  21  22
ATOM     22  C   UNL d   1      56.198  -0.639  32.626  0.00  0.00     0.126 C 
ATOM     23  C   UNL d   1      56.138  -0.409  33.410  0.00  0.00     0.029 C 
ENDBRANCH  21  22
ENDBRANCH  19  21
ENDBRANCH  18  19
ENDBRANCH   8  18
TORSDOF 4
ENDMDL
MODEL 5
REMARK VINA RESULT:      -1.0      7.633      9.564
REMARK  4 active torsions:
REMARK  status: ('A' for Active; 'I' for Inactive)
REMARK       I    between atoms: C_2  and  N_1 
REMARK       I    between atoms: N_8  and  C_2 
REMARK    1  A    between atoms: C_12  and  N_8 
REMARK    2  A    between atoms: C_9  and  C_12 
REMARK    3  A    between atoms: O_13  and  C_9 
REMARK    4  A    between atoms: C_18  and  O_13 
ROOT
ATOM      1  N   UNL d   1      59.635  -9.793  31.931  0.00  0.00    -0.258 N 
ATOM      2  C   UNL d   1      60.343  -9.789  31.509  0.00  0.00     0.354 C 
ATOM      3  S   UNL d   1      58.207  -9.800  32.781  0.00  0.00    -0.084 SA
ATOM      4  C   UNL d   1      59.643  -9.788  32.755  0.00  0.00     0.074 A 
ATOM      5  C   UNL d   1      58.917  -9.801  31.525  0.00  0.00     0.074 A 
ATOM      6  C   UNL d   1      58.932  -9.792  33.184  0.00  0.00     0.046 A 
ATOM      7  C   UNL d   1      58.199  -9.804  31.952  0.00  0.00     0.046 A 
ATOM      8  N   UNL d   1      60.330  -9.794  30.676  0.00  0.00    -0.185 NA
ATOM      9  O   UNL d   1      61.059  -9.781  31.912  0.00  0.00    -0.244 OA
ATOM     10  C   UNL d   1      60.362  -9.780  33.151  0.00  0.00     0.018 A 
ATOM     11  C   UNL d   1      58.915  -9.805  30.707  0.00  0.00     0.018 A 
ATOM     12  C   UNL d   1      57.487  -9.812  31.557  0.00  0.00     0.008 A 
ATOM     13  C   UNL d   1      58.946  -9.787  34.008  0.00  0.00     0.008 A 
ATOM     14  C   UNL d   1      60.385  -9.776  33.978  0.00  0.00     0.002 A 
ATOM     15  C   UNL d   1      58.180  -9.813  30.297  0.00  0.00     0.002 A 
ATOM     16  C   UNL d   1      57.469  -9.817  30.726  0.00  0.00     0.001 A 
ATOM     17  C   UNL d   1      59.679  -9.779  34.404  0.00  0.00     0.001 A 
ENDROOT
BRANCH   8  18
ATOM     18  C   UNL d   1      61.060  -9.790  30.242  0.00  0.00     0.172 C 
BRANCH  18  19
ATOM     19  C   UNL d   1      61.098  -9.389  29.534  0.00  0.00     0.320 C 
ATOM     20  O   UNL d   1      61.102  -9.811  28.827  0.00  0.00    -0.257 OA
BRANCH  19  21
ATOM     21  O   UNL d   1      61.133  -8.577  29.523  0.00  0.00    -0.270 OA
BRANCH  21  22
ATOM     22  C   UNL d   1      61.104  -8.167  28.795  0.00  0.00     0.126 C 
ATOM     23  C   UNL d   1      61.108  -7.348  28.786  0.00  0.00     0.029 C 
ENDBRANCH  21  22
ENDBRANCH  19  21
ENDBRANCH  18  19
ENDBRANCH   8  18
TORSDOF 4
ENDMDL
