MODEL 1
REMARK VINA RESULT:      -7.6      0.000      0.000
REMARK  5 active torsions:
REMARK  status: ('A' for Active; 'I' for Inactive)
REMARK    1  A    between atoms: C_2  and  S_1 
REMARK    2  A    between atoms: N_4  and  S_1 
REMARK    3  A    between atoms: C_11  and  N_4 
REMARK    4  A    between atoms: O_14  and  C_5 
REMARK    5  A    between atoms: O_15  and  C_7 
ROOT
ATOM      1  C   UNL d   1     -48.784  14.225  22.532  0.00  0.00     0.129 A 
ATOM      2  C   UNL d   1     -48.945  13.602  22.015  0.00  0.00     0.040 A 
ATOM      3  C   UNL d   1     -49.384  14.747  22.738  0.00  0.00     0.107 A 
ATOM      4  C   UNL d   1     -50.142  14.657  22.436  0.00  0.00     0.034 A 
ATOM      5  C   UNL d   1     -49.705  13.506  21.707  0.00  0.00     0.101 A 
ATOM      6  C   UNL d   1     -50.303  14.034  21.918  0.00  0.00     0.059 A 
ATOM      7 BR   UNL d   1     -51.064  13.932  21.606  0.00  0.00    -0.047 Br
ENDROOT
BRANCH   1   8
ATOM      8  S   UNL d   1     -48.026  14.315  22.835  0.00  0.00     0.287 S 
ATOM      9  O   UNL d   1     -48.221  13.866  23.489  0.00  0.00    -0.198 OA
ATOM     10  O   UNL d   1     -47.825  14.769  22.176  0.00  0.00    -0.198 OA
BRANCH   8  11
ATOM     11  N   UNL d   1     -47.262  14.409  23.132  0.00  0.00    -0.157 NA
BRANCH  11  12
ATOM     12  C   UNL d   1     -46.698  13.820  23.009  0.00  0.00     0.113 A 
ATOM     13  C   UNL d   1     -46.658  13.178  23.514  0.00  0.00     0.119 A 
ATOM     14  N   UNL d   1     -46.094  12.589  23.390  0.00  0.00    -0.241 NA
ATOM     15  C   UNL d   1     -45.565  12.644  22.751  0.00  0.00     0.099 A 
ATOM     16  C   UNL d   1     -45.611  13.296  22.244  0.00  0.00     0.022 A 
ATOM     17  C   UNL d   1     -46.175  13.885  22.368  0.00  0.00     0.023 A 
ENDBRANCH  11  12
ENDBRANCH   8  11
ENDBRANCH   1   8
BRANCH   3  18
ATOM     18  O   UNL d   1     -49.222  15.371  23.256  0.00  0.00    -0.327 OA
ATOM     19  C   UNL d   1     -49.834  15.856  23.523  0.00  0.00     0.181 C 
ENDBRANCH   3  18
BRANCH   5  20
ATOM     20  O   UNL d   1     -49.867  12.882  21.189  0.00  0.00    -0.328 OA
ATOM     21  C   UNL d   1     -49.606  12.120  21.366  0.00  0.00     0.181 C 
ENDBRANCH   5  20
TORSDOF 5
ENDMDL
MODEL 2
REMARK VINA RESULT:      -7.6      1.885      3.536
REMARK  5 active torsions:
REMARK  status: ('A' for Active; 'I' for Inactive)
REMARK    1  A    between atoms: C_2  and  S_1 
REMARK    2  A    between atoms: N_4  and  S_1 
REMARK    3  A    between atoms: C_11  and  N_4 
REMARK    4  A    between atoms: O_14  and  C_5 
REMARK    5  A    between atoms: O_15  and  C_7 
ROOT
ATOM      1  C   UNL d   1     -48.022  13.332  22.820  0.00  0.00     0.129 A 
ATOM      2  C   UNL d   1     -48.520  12.710  23.038  0.00  0.00     0.040 A 
ATOM      3  C   UNL d   1     -47.210  13.246  22.894  0.00  0.00     0.107 A 
ATOM      4  C   UNL d   1     -46.884  12.550  23.182  0.00  0.00     0.034 A 
ATOM      5  C   UNL d   1     -48.200  12.007  23.328  0.00  0.00     0.101 A 
ATOM      6  C   UNL d   1     -47.382  11.928  23.401  0.00  0.00     0.059 A 
ATOM      7 BR   UNL d   1     -47.067  11.218  23.694  0.00  0.00    -0.047 Br
ENDROOT
BRANCH   1   8
ATOM      8  S   UNL d   1     -48.347  14.029  22.531  0.00  0.00     0.287 S 
ATOM      9  O   UNL d   1     -48.513  13.669  21.816  0.00  0.00    -0.198 OA
ATOM     10  O   UNL d   1     -48.182  14.396  23.251  0.00  0.00    -0.198 OA
BRANCH   8  11
ATOM     11  N   UNL d   1     -48.673  14.733  22.248  0.00  0.00    -0.157 NA
BRANCH  11  12
ATOM     12  C   UNL d   1     -49.438  14.948  22.468  0.00  0.00     0.113 A 
ATOM     13  C   UNL d   1     -50.077  14.719  22.010  0.00  0.00     0.119 A 
ATOM     14  N   UNL d   1     -50.842  14.935  22.231  0.00  0.00    -0.241 NA
ATOM     15  C   UNL d   1     -50.967  15.386  22.918  0.00  0.00     0.099 A 
ATOM     16  C   UNL d   1     -50.317  15.613  23.376  0.00  0.00     0.022 A 
ATOM     17  C   UNL d   1     -49.552  15.398  23.155  0.00  0.00     0.023 A 
ENDBRANCH  11  12
ENDBRANCH   8  11
ENDBRANCH   1   8
BRANCH   3  18
ATOM     18  O   UNL d   1     -46.711  13.869  22.676  0.00  0.00    -0.327 OA
ATOM     19  C   UNL d   1     -45.893  13.777  22.716  0.00  0.00     0.181 C 
ENDBRANCH   3  18
BRANCH   5  20
ATOM     20  O   UNL d   1     -48.698  11.384  23.547  0.00  0.00    -0.328 OA
ATOM     21  C   UNL d   1     -49.497  11.527  23.698  0.00  0.00     0.181 C 
ENDBRANCH   5  20
TORSDOF 5
ENDMDL
MODEL 3
REMARK VINA RESULT:      -6.9      1.367      2.066
REMARK  5 active torsions:
REMARK  status: ('A' for Active; 'I' for Inactive)
REMARK    1  A    between atoms: C_2  and  S_1 
REMARK    2  A    between atoms: N_4  and  S_1 
REMARK    3  A    between atoms: C_11  and  N_4 
REMARK    4  A    between atoms: O_14  and  C_5 
REMARK    5  A    between atoms: O_15  and  C_7 
ROOT
ATOM      1  C   UNL d   1     -49.112  13.257  23.074  0.00  0.00     0.129 A 
ATOM      2  C   UNL d   1     -49.051  14.078  23.013  0.00  0.00     0.040 A 
ATOM      3  C   UNL d   1     -49.824  12.920  23.307  0.00  0.00     0.107 A 
ATOM      4  C   UNL d   1     -50.475  13.389  23.479  0.00  0.00     0.034 A 
ATOM      5  C   UNL d   1     -49.702  14.556  23.185  0.00  0.00     0.101 A 
ATOM      6  C   UNL d   1     -50.414  14.210  23.418  0.00  0.00     0.059 A 
ATOM      7 BR   UNL d   1     -51.064  14.695  23.590  0.00  0.00    -0.047 Br
ENDROOT
BRANCH   1   8
ATOM      8  S   UNL d   1     -48.461  12.788  22.902  0.00  0.00     0.287 S 
ATOM      9  O   UNL d   1     -48.304  12.693  23.698  0.00  0.00    -0.198 OA
ATOM     10  O   UNL d   1     -48.615  12.882  22.097  0.00  0.00    -0.198 OA
BRANCH   8  11
ATOM     11  N   UNL d   1     -47.807  12.318  22.721  0.00  0.00    -0.157 NA
BRANCH  11  12
ATOM     12  C   UNL d   1     -47.050  12.648  22.728  0.00  0.00     0.113 A 
ATOM     13  C   UNL d   1     -46.595  12.614  23.406  0.00  0.00     0.119 A 
ATOM     14  N   UNL d   1     -45.838  12.943  23.413  0.00  0.00    -0.241 NA
ATOM     15  C   UNL d   1     -45.537  13.311  22.730  0.00  0.00     0.099 A 
ATOM     16  C   UNL d   1     -46.003  13.341  22.048  0.00  0.00     0.022 A 
ATOM     17  C   UNL d   1     -46.759  13.012  22.042  0.00  0.00     0.023 A 
ENDBRANCH  11  12
ENDBRANCH   8  11
ENDBRANCH   1   8
BRANCH   3  18
ATOM     18  O   UNL d   1     -49.885  12.098  23.368  0.00  0.00    -0.327 OA
ATOM     19  C   UNL d   1     -50.590  11.754  23.622  0.00  0.00     0.181 C 
ENDBRANCH   3  18
BRANCH   5  20
ATOM     20  O   UNL d   1     -49.641  15.378  23.124  0.00  0.00    -0.328 OA
ATOM     21  C   UNL d   1     -49.079  15.714  22.622  0.00  0.00     0.181 C 
ENDBRANCH   5  20
TORSDOF 5
ENDMDL
MODEL 4
REMARK VINA RESULT:      -6.4      2.014      3.923
REMARK  5 active torsions:
REMARK  status: ('A' for Active; 'I' for Inactive)
REMARK    1  A    between atoms: C_2  and  S_1 
REMARK    2  A    between atoms: N_4  and  S_1 
REMARK    3  A    between atoms: C_11  and  N_4 
REMARK    4  A    between atoms: O_14  and  C_5 
REMARK    5  A    between atoms: O_15  and  C_7 
ROOT
ATOM      1  C   UNL d   1     -48.400  13.085  22.905  0.00  0.00     0.129 A 
ATOM      2  C   UNL d   1     -47.894  13.697  22.681  0.00  0.00     0.040 A 
ATOM      3  C   UNL d   1     -48.084  12.368  23.151  0.00  0.00     0.107 A 
ATOM      4  C   UNL d   1     -47.272  12.252  23.176  0.00  0.00     0.034 A 
ATOM      5  C   UNL d   1     -47.076  13.588  22.703  0.00  0.00     0.101 A 
ATOM      6  C   UNL d   1     -46.766  12.864  22.951  0.00  0.00     0.059 A 
ATOM      7 BR   UNL d   1     -45.943  12.761  22.971  0.00  0.00    -0.047 Br
ENDROOT
BRANCH   1   8
ATOM      8  S   UNL d   1     -49.212  13.200  22.881  0.00  0.00     0.287 S 
ATOM      9  O   UNL d   1     -49.218  13.067  22.074  0.00  0.00    -0.198 OA
ATOM     10  O   UNL d   1     -49.211  13.336  23.694  0.00  0.00    -0.198 OA
BRANCH   8  11
ATOM     11  N   UNL d   1     -50.029  13.318  22.863  0.00  0.00    -0.157 NA
BRANCH  11  12
ATOM     12  C   UNL d   1     -50.334  14.084  22.907  0.00  0.00     0.113 A 
ATOM     13  C   UNL d   1     -50.429  14.527  22.226  0.00  0.00     0.119 A 
ATOM     14  N   UNL d   1     -50.734  15.292  22.271  0.00  0.00    -0.241 NA
ATOM     15  C   UNL d   1     -50.945  15.616  23.007  0.00  0.00     0.099 A 
ATOM     16  C   UNL d   1     -50.845  15.162  23.691  0.00  0.00     0.022 A 
ATOM     17  C   UNL d   1     -50.541  14.397  23.647  0.00  0.00     0.023 A 
ENDBRANCH  11  12
ENDBRANCH   8  11
ENDBRANCH   1   8
BRANCH   3  18
ATOM     18  O   UNL d   1     -48.591  11.754  23.376  0.00  0.00    -0.327 OA
ATOM     19  C   UNL d   1     -48.282  11.059  23.695  0.00  0.00     0.181 C 
ENDBRANCH   3  18
BRANCH   5  20
ATOM     20  O   UNL d   1     -46.569  14.201  22.478  0.00  0.00    -0.328 OA
ATOM     21  C   UNL d   1     -46.743  14.980  22.689  0.00  0.00     0.181 C 
ENDBRANCH   5  20
TORSDOF 5
ENDMDL
MODEL 5
REMARK VINA RESULT:      -5.5      8.710      9.744
REMARK  5 active torsions:
REMARK  status: ('A' for Active; 'I' for Inactive)
REMARK    1  A    between atoms: C_2  and  S_1 
REMARK    2  A    between atoms: N_4  and  S_1 
REMARK    3  A    between atoms: C_11  and  N_4 
REMARK    4  A    between atoms: O_14  and  C_5 
REMARK    5  A    between atoms: O_15  and  C_7 
ROOT
ATOM      1  C   UNL d   1     -39.924  14.599  18.259  0.00  0.00     0.129 A 
ATOM      2  C   UNL d   1     -39.213  14.182  18.313  0.00  0.00     0.040 A 
ATOM      3  C   UNL d   1     -40.200  14.836  17.523  0.00  0.00     0.107 A 
ATOM      4  C   UNL d   1     -39.778  14.663  16.840  0.00  0.00     0.034 A 
ATOM      5  C   UNL d   1     -38.784  14.005  17.631  0.00  0.00     0.101 A 
ATOM      6  C   UNL d   1     -39.068  14.246  16.894  0.00  0.00     0.059 A 
ATOM      7 BR   UNL d   1     -38.631  14.065  16.212  0.00  0.00    -0.047 Br
ENDROOT
BRANCH   1   8
ATOM      8  S   UNL d   1     -40.346  14.771  18.942  0.00  0.00     0.287 S 
ATOM      9  O   UNL d   1     -39.989  15.505  18.991  0.00  0.00    -0.198 OA
ATOM     10  O   UNL d   1     -40.708  14.032  18.897  0.00  0.00    -0.198 OA
BRANCH   8  11
ATOM     11  N   UNL d   1     -40.773  14.938  19.629  0.00  0.00    -0.157 NA
BRANCH  11  12
ATOM     12  C   UNL d   1     -40.398  14.903  20.363  0.00  0.00     0.113 A 
ATOM     13  C   UNL d   1     -40.328  14.188  20.754  0.00  0.00     0.119 A 
ATOM     14  N   UNL d   1     -39.954  14.153  21.489  0.00  0.00    -0.241 NA
ATOM     15  C   UNL d   1     -39.646  14.845  21.834  0.00  0.00     0.099 A 
ATOM     16  C   UNL d   1     -39.721  15.564  21.432  0.00  0.00     0.022 A 
ATOM     17  C   UNL d   1     -40.095  15.598  20.698  0.00  0.00     0.023 A 
ENDBRANCH  11  12
ENDBRANCH   8  11
ENDBRANCH   1   8
BRANCH   3  18
ATOM     18  O   UNL d   1     -40.912  15.253  17.469  0.00  0.00    -0.327 OA
ATOM     19  C   UNL d   1     -41.169  15.538  16.739  0.00  0.00     0.181 C 
ENDBRANCH   3  18
BRANCH   5  20
ATOM     20  O   UNL d   1     -38.072  13.587  17.685  0.00  0.00    -0.328 OA
ATOM     21  C   UNL d   1     -38.010  12.942  18.195  0.00  0.00     0.181 C 
ENDBRANCH   5  20
TORSDOF 5
ENDMDL
MODEL 6
REMARK VINA RESULT:      -5.4      8.204      9.745
REMARK  5 active torsions:
REMARK  status: ('A' for Active; 'I' for Inactive)
REMARK    1  A    between atoms: C_2  and  S_1 
REMARK    2  A    between atoms: N_4  and  S_1 
REMARK    3  A    between atoms: C_11  and  N_4 
REMARK    4  A    between atoms: O_14  and  C_5 
REMARK    5  A    between atoms: O_15  and  C_7 
ROOT
ATOM      1  C   UNL d   1     -39.614  14.668  19.664  0.00  0.00     0.129 A 
ATOM      2  C   UNL d   1     -40.143  15.206  19.999  0.00  0.00     0.040 A 
ATOM      3  C   UNL d   1     -39.045  14.311  20.136  0.00  0.00     0.107 A 
ATOM      4  C   UNL d   1     -38.996  14.483  20.938  0.00  0.00     0.034 A 
ATOM      5  C   UNL d   1     -40.100  15.383  20.804  0.00  0.00     0.101 A 
ATOM      6  C   UNL d   1     -39.525  15.021  21.273  0.00  0.00     0.059 A 
ATOM      7 BR   UNL d   1     -39.487  15.203  22.081  0.00  0.00    -0.047 Br
ENDROOT
BRANCH   1   8
ATOM      8  S   UNL d   1     -39.663  14.497  18.863  0.00  0.00     0.287 S 
ATOM      9  O   UNL d   1     -40.242  13.938  19.006  0.00  0.00    -0.198 OA
ATOM     10  O   UNL d   1     -39.079  15.060  18.713  0.00  0.00    -0.198 OA
BRANCH   8  11
ATOM     11  N   UNL d   1     -39.707  14.330  18.055  0.00  0.00    -0.157 NA
BRANCH  11  12
ATOM     12  C   UNL d   1     -40.141  14.826  17.558  0.00  0.00     0.113 A 
ATOM     13  C   UNL d   1     -40.949  14.727  17.483  0.00  0.00     0.119 A 
ATOM     14  N   UNL d   1     -41.381  15.223  16.985  0.00  0.00    -0.241 NA
ATOM     15  C   UNL d   1     -40.997  15.824  16.557  0.00  0.00     0.099 A 
ATOM     16  C   UNL d   1     -40.180  15.918  16.638  0.00  0.00     0.022 A 
ATOM     17  C   UNL d   1     -39.747  15.422  17.136  0.00  0.00     0.023 A 
ENDBRANCH  11  12
ENDBRANCH   8  11
ENDBRANCH   1   8
BRANCH   3  18
ATOM     18  O   UNL d   1     -38.515  13.773  19.801  0.00  0.00    -0.327 OA
ATOM     19  C   UNL d   1     -37.976  13.371  20.279  0.00  0.00     0.181 C 
ENDBRANCH   3  18
BRANCH   5  20
ATOM     20  O   UNL d   1     -40.630  15.922  21.140  0.00  0.00    -0.328 OA
ATOM     21  C   UNL d   1     -41.421  15.922  20.907  0.00  0.00     0.181 C 
ENDBRANCH   5  20
TORSDOF 5
ENDMDL
MODEL 7
REMARK VINA RESULT:      -5.1      8.156      9.851
REMARK  5 active torsions:
REMARK  status: ('A' for Active; 'I' for Inactive)
REMARK    1  A    between atoms: C_2  and  S_1 
REMARK    2  A    between atoms: N_4  and  S_1 
REMARK    3  A    between atoms: C_11  and  N_4 
REMARK    4  A    between atoms: O_14  and  C_5 
REMARK    5  A    between atoms: O_15  and  C_7 
ROOT
ATOM      1  C   UNL d   1     -39.796  14.922  19.750  0.00  0.00     0.129 A 
ATOM      2  C   UNL d   1     -39.114  14.467  19.858  0.00  0.00     0.040 A 
ATOM      3  C   UNL d   1     -40.275  15.092  20.395  0.00  0.00     0.107 A 
ATOM      4  C   UNL d   1     -40.086  14.817  21.145  0.00  0.00     0.034 A 
ATOM      5  C   UNL d   1     -38.918  14.187  20.609  0.00  0.00     0.101 A 
ATOM      6  C   UNL d   1     -39.404  14.363  21.252  0.00  0.00     0.059 A 
ATOM      7 BR   UNL d   1     -39.201  14.078  22.004  0.00  0.00    -0.047 Br
ENDROOT
BRANCH   1   8
ATOM      8  S   UNL d   1     -39.985  15.197  19.000  0.00  0.00     0.287 S 
ATOM      9  O   UNL d   1     -40.422  14.523  18.851  0.00  0.00    -0.198 OA
ATOM     10  O   UNL d   1     -39.544  15.878  19.147  0.00  0.00    -0.198 OA
BRANCH   8  11
ATOM     11  N   UNL d   1     -40.171  15.480  18.248  0.00  0.00    -0.157 NA
BRANCH  11  12
ATOM     12  C   UNL d   1     -39.664  15.325  17.615  0.00  0.00     0.113 A 
ATOM     13  C   UNL d   1     -39.048  15.836  17.448  0.00  0.00     0.119 A 
ATOM     14  N   UNL d   1     -38.542  15.680  16.815  0.00  0.00    -0.241 NA
ATOM     15  C   UNL d   1     -38.657  15.004  16.345  0.00  0.00     0.099 A 
ATOM     16  C   UNL d   1     -39.283  14.492  16.519  0.00  0.00     0.022 A 
ATOM     17  C   UNL d   1     -39.788  14.647  17.152  0.00  0.00     0.023 A 
ENDBRANCH  11  12
ENDBRANCH   8  11
ENDBRANCH   1   8
BRANCH   3  18
ATOM     18  O   UNL d   1     -40.957  15.547  20.287  0.00  0.00    -0.327 OA
ATOM     19  C   UNL d   1     -41.400  15.789  20.940  0.00  0.00     0.181 C 
ENDBRANCH   3  18
BRANCH   5  20
ATOM     20  O   UNL d   1     -38.236  13.733  20.717  0.00  0.00    -0.328 OA
ATOM     21  C   UNL d   1     -37.940  13.278  20.095  0.00  0.00     0.181 C 
ENDBRANCH   5  20
TORSDOF 5
ENDMDL
