MODEL 1
REMARK VINA RESULT:      -7.1      0.000      0.000
REMARK  5 active torsions:
REMARK  status: ('A' for Active; 'I' for Inactive)
REMARK    1  A    between atoms: C_13  and  C_4 
REMARK    2  A    between atoms: C_7  and  S_11 
REMARK    3  A    between atoms: O_14  and  C_7 
REMARK    4  A    between atoms: S_11  and  C_13 
REMARK    5  A    between atoms: C_16  and  O_14 
ROOT
ATOM      1  C   UNL d   1      52.331  33.460  53.040  0.00  0.00     0.148 A 
ATOM      2  N   UNL d   1      53.040  33.444  53.476  0.00  0.00    -0.288 N 
ATOM      3  N   UNL d   1      52.201  32.675  52.778  0.00  0.00    -0.226 NA
ATOM      4  C   UNL d   1      52.806  32.194  53.043  0.00  0.00     0.107 A 
ATOM      5  C   UNL d   1      53.333  32.674  53.481  0.00  0.00     0.101 A 
ATOM      6  C   UNL d   1      51.914  34.164  52.943  0.00  0.00     0.035 A 
ATOM      7  C   UNL d   1      53.320  34.154  53.814  0.00  0.00     0.082 A 
ATOM      8  C   UNL d   1      52.897  34.854  53.713  0.00  0.00     0.019 A 
ATOM      9  C   UNL d   1      52.199  34.862  53.281  0.00  0.00     0.004 A 
ATOM     10  C   UNL d   1      51.203  34.179  52.505  0.00  0.00     0.003 C 
ENDROOT
BRANCH   4  11
ATOM     11  C   UNL d   1      52.893  31.385  52.910  0.00  0.00     0.059 C 
BRANCH  11  12
ATOM     12  S   UNL d   1      53.117  30.891  53.521  0.00  0.00    -0.049 SA
BRANCH  12  13
ATOM     13  C   UNL d   1      53.032  30.066  53.438  0.00  0.00     0.185 C 
ATOM     14  S   UNL d   1      52.913  29.746  52.698  0.00  0.00    -0.044 SA
BRANCH  13  15
ATOM     15  O   UNL d   1      53.070  29.584  54.103  0.00  0.00    -0.288 OA
BRANCH  15  16
ATOM     16  C   UNL d   1      53.099  29.105  54.770  0.00  0.00     0.124 C 
ATOM     17  C   UNL d   1      53.623  28.464  54.798  0.00  0.00     0.029 C 
ENDBRANCH  15  16
ENDBRANCH  13  15
ENDBRANCH  12  13
ENDBRANCH  11  12
ENDBRANCH   4  11
TORSDOF 5
ENDMDL
MODEL 2
REMARK VINA RESULT:      -6.7      2.591      4.267
REMARK  5 active torsions:
REMARK  status: ('A' for Active; 'I' for Inactive)
REMARK    1  A    between atoms: C_13  and  C_4 
REMARK    2  A    between atoms: C_7  and  S_11 
REMARK    3  A    between atoms: O_14  and  C_7 
REMARK    4  A    between atoms: S_11  and  C_13 
REMARK    5  A    between atoms: C_16  and  O_14 
ROOT
ATOM      1  C   UNL d   1      53.253  33.209  53.859  0.00  0.00     0.148 A 
ATOM      2  N   UNL d   1      53.226  33.960  54.216  0.00  0.00    -0.288 N 
ATOM      3  N   UNL d   1      52.651  33.206  53.275  0.00  0.00    -0.226 NA
ATOM      4  C   UNL d   1      52.269  33.928  53.274  0.00  0.00     0.107 A 
ATOM      5  C   UNL d   1      52.627  34.402  53.863  0.00  0.00     0.101 A 
ATOM      6  C   UNL d   1      53.804  32.647  54.104  0.00  0.00     0.035 A 
ATOM      7  C   UNL d   1      53.766  34.134  54.828  0.00  0.00     0.082 A 
ATOM      8  C   UNL d   1      54.314  33.567  55.068  0.00  0.00     0.019 A 
ATOM      9  C   UNL d   1      54.335  32.827  54.710  0.00  0.00     0.004 A 
ATOM     10  C   UNL d   1      53.830  31.894  53.744  0.00  0.00     0.003 C 
ENDROOT
BRANCH   4  11
ATOM     11  C   UNL d   1      51.644  34.159  52.788  0.00  0.00     0.059 C 
BRANCH  11  12
ATOM     12  S   UNL d   1      50.879  34.158  53.074  0.00  0.00    -0.049 SA
BRANCH  12  13
ATOM     13  C   UNL d   1      50.254  34.415  52.587  0.00  0.00     0.185 C 
ATOM     14  S   UNL d   1      50.251  34.215  51.797  0.00  0.00    -0.044 SA
BRANCH  13  15
ATOM     15  O   UNL d   1      49.648  34.869  52.908  0.00  0.00    -0.288 OA
BRANCH  15  16
ATOM     16  C   UNL d   1      49.042  35.317  53.235  0.00  0.00     0.124 C 
ATOM     17  C   UNL d   1      48.443  35.622  52.752  0.00  0.00     0.029 C 
ENDBRANCH  15  16
ENDBRANCH  13  15
ENDBRANCH  12  13
ENDBRANCH  11  12
ENDBRANCH   4  11
TORSDOF 5
ENDMDL
MODEL 3
REMARK VINA RESULT:      -6.6      2.199      4.345
REMARK  5 active torsions:
REMARK  status: ('A' for Active; 'I' for Inactive)
REMARK    1  A    between atoms: C_13  and  C_4 
REMARK    2  A    between atoms: C_7  and  S_11 
REMARK    3  A    between atoms: O_14  and  C_7 
REMARK    4  A    between atoms: S_11  and  C_13 
REMARK    5  A    between atoms: C_16  and  O_14 
ROOT
ATOM      1  C   UNL d   1      53.404  30.578  53.876  0.00  0.00     0.148 A 
ATOM      2  N   UNL d   1      53.156  31.009  53.208  0.00  0.00    -0.288 N 
ATOM      3  N   UNL d   1      53.831  31.117  54.356  0.00  0.00    -0.226 NA
ATOM      4  C   UNL d   1      53.844  31.850  53.997  0.00  0.00     0.107 A 
ATOM      5  C   UNL d   1      53.422  31.786  53.278  0.00  0.00     0.101 A 
ATOM      6  C   UNL d   1      53.215  29.780  53.954  0.00  0.00     0.035 A 
ATOM      7  C   UNL d   1      52.712  30.619  52.619  0.00  0.00     0.082 A 
ATOM      8  C   UNL d   1      52.526  29.820  52.705  0.00  0.00     0.019 A 
ATOM      9  C   UNL d   1      52.775  29.401  53.367  0.00  0.00     0.004 A 
ATOM     10  C   UNL d   1      53.464  29.349  54.624  0.00  0.00     0.003 C 
ENDROOT
BRANCH   4  11
ATOM     11  C   UNL d   1      54.204  32.536  54.281  0.00  0.00     0.059 C 
BRANCH  11  12
ATOM     12  S   UNL d   1      53.761  33.101  54.671  0.00  0.00    -0.049 SA
BRANCH  12  13
ATOM     13  C   UNL d   1      54.121  33.810  54.919  0.00  0.00     0.185 C 
ATOM     14  S   UNL d   1      54.903  33.807  55.147  0.00  0.00    -0.044 SA
BRANCH  13  15
ATOM     15  O   UNL d   1      53.683  34.506  54.932  0.00  0.00    -0.288 OA
BRANCH  15  16
ATOM     16  C   UNL d   1      53.249  35.203  54.952  0.00  0.00     0.124 C 
ATOM     17  C   UNL d   1      52.933  35.516  54.254  0.00  0.00     0.029 C 
ENDBRANCH  15  16
ENDBRANCH  13  15
ENDBRANCH  12  13
ENDBRANCH  11  12
ENDBRANCH   4  11
TORSDOF 5
ENDMDL
MODEL 4
REMARK VINA RESULT:      -5.9      1.966      4.223
REMARK  5 active torsions:
REMARK  status: ('A' for Active; 'I' for Inactive)
REMARK    1  A    between atoms: C_13  and  C_4 
REMARK    2  A    between atoms: C_7  and  S_11 
REMARK    3  A    between atoms: O_14  and  C_7 
REMARK    4  A    between atoms: S_11  and  C_13 
REMARK    5  A    between atoms: C_16  and  O_14 
ROOT
ATOM      1  C   UNL d   1      53.023  30.847  53.230  0.00  0.00     0.148 A 
ATOM      2  N   UNL d   1      53.341  31.132  53.944  0.00  0.00    -0.288 N 
ATOM      3  N   UNL d   1      52.780  31.522  52.797  0.00  0.00    -0.226 NA
ATOM      4  C   UNL d   1      52.944  32.196  53.228  0.00  0.00     0.107 A 
ATOM      5  C   UNL d   1      53.295  31.954  53.948  0.00  0.00     0.101 A 
ATOM      6  C   UNL d   1      52.997  30.038  53.076  0.00  0.00     0.035 A 
ATOM      7  C   UNL d   1      53.634  30.584  54.502  0.00  0.00     0.082 A 
ATOM      8  C   UNL d   1      53.605  29.776  54.340  0.00  0.00     0.019 A 
ATOM      9  C   UNL d   1      53.289  29.502  53.632  0.00  0.00     0.004 A 
ATOM     10  C   UNL d   1      52.677  29.753  52.359  0.00  0.00     0.003 C 
ENDROOT
BRANCH   4  11
ATOM     11  C   UNL d   1      52.794  32.977  53.007  0.00  0.00     0.059 C 
BRANCH  11  12
ATOM     12  S   UNL d   1      52.110  33.349  53.251  0.00  0.00    -0.049 SA
BRANCH  12  13
ATOM     13  C   UNL d   1      51.929  34.111  52.967  0.00  0.00     0.185 C 
ATOM     14  S   UNL d   1      52.492  34.699  53.003  0.00  0.00    -0.044 SA
BRANCH  13  15
ATOM     15  O   UNL d   1      51.185  34.261  52.652  0.00  0.00    -0.288 OA
BRANCH  15  16
ATOM     16  C   UNL d   1      50.444  34.414  52.329  0.00  0.00     0.124 C 
ATOM     17  C   UNL d   1      49.821  34.657  52.817  0.00  0.00     0.029 C 
ENDBRANCH  15  16
ENDBRANCH  13  15
ENDBRANCH  12  13
ENDBRANCH  11  12
ENDBRANCH   4  11
TORSDOF 5
ENDMDL
MODEL 5
REMARK VINA RESULT:      -5.2      1.401      2.164
REMARK  5 active torsions:
REMARK  status: ('A' for Active; 'I' for Inactive)
REMARK    1  A    between atoms: C_13  and  C_4 
REMARK    2  A    between atoms: C_7  and  S_11 
REMARK    3  A    between atoms: O_14  and  C_7 
REMARK    4  A    between atoms: S_11  and  C_13 
REMARK    5  A    between atoms: C_16  and  O_14 
ROOT
ATOM      1  C   UNL d   1      51.012  34.068  52.452  0.00  0.00     0.148 A 
ATOM      2  N   UNL d   1      50.915  34.185  53.270  0.00  0.00    -0.288 N 
ATOM      3  N   UNL d   1      51.745  33.671  52.359  0.00  0.00    -0.226 NA
ATOM      4  C   UNL d   1      52.085  33.550  53.091  0.00  0.00     0.107 A 
ATOM      5  C   UNL d   1      51.567  33.871  53.665  0.00  0.00     0.101 A 
ATOM      6  C   UNL d   1      50.440  34.329  51.920  0.00  0.00     0.035 A 
ATOM      7  C   UNL d   1      50.227  34.572  53.543  0.00  0.00     0.082 A 
ATOM      8  C   UNL d   1      49.660  34.830  53.004  0.00  0.00     0.019 A 
ATOM      9  C   UNL d   1      49.762  34.711  52.198  0.00  0.00     0.004 A 
ATOM     10  C   UNL d   1      50.539  34.210  51.099  0.00  0.00     0.003 C 
ENDROOT
BRANCH   4  11
ATOM     11  C   UNL d   1      52.805  33.180  53.250  0.00  0.00     0.059 C 
BRANCH  11  12
ATOM     12  S   UNL d   1      52.861  32.366  53.233  0.00  0.00    -0.049 SA
BRANCH  12  13
ATOM     13  C   UNL d   1      53.566  31.994  53.478  0.00  0.00     0.185 C 
ATOM     14  S   UNL d   1      54.237  32.441  53.595  0.00  0.00    -0.044 SA
BRANCH  13  15
ATOM     15  O   UNL d   1      53.576  31.181  53.598  0.00  0.00    -0.288 OA
BRANCH  15  16
ATOM     16  C   UNL d   1      53.587  30.369  53.727  0.00  0.00     0.124 C 
ATOM     17  C   UNL d   1      53.154  29.865  53.234  0.00  0.00     0.029 C 
ENDBRANCH  15  16
ENDBRANCH  13  15
ENDBRANCH  12  13
ENDBRANCH  11  12
ENDBRANCH   4  11
TORSDOF 5
ENDMDL
MODEL 6
REMARK VINA RESULT:      -4.8      9.873     10.660
REMARK  5 active torsions:
REMARK  status: ('A' for Active; 'I' for Inactive)
REMARK    1  A    between atoms: C_13  and  C_4 
REMARK    2  A    between atoms: C_7  and  S_11 
REMARK    3  A    between atoms: O_14  and  C_7 
REMARK    4  A    between atoms: S_11  and  C_13 
REMARK    5  A    between atoms: C_16  and  O_14 
ROOT
ATOM      1  C   UNL d   1      45.064  29.136  57.999  0.00  0.00     0.148 A 
ATOM      2  N   UNL d   1      44.822  29.884  57.727  0.00  0.00    -0.288 N 
ATOM      3  N   UNL d   1      45.168  29.212  58.828  0.00  0.00    -0.226 NA
ATOM      4  C   UNL d   1      44.997  29.978  59.055  0.00  0.00     0.107 A 
ATOM      5  C   UNL d   1      44.779  30.401  58.367  0.00  0.00     0.101 A 
ATOM      6  C   UNL d   1      45.154  28.506  57.475  0.00  0.00     0.035 A 
ATOM      7  C   UNL d   1      44.671  29.986  56.912  0.00  0.00     0.082 A 
ATOM      8  C   UNL d   1      44.763  29.352  56.394  0.00  0.00     0.019 A 
ATOM      9  C   UNL d   1      45.003  28.616  56.670  0.00  0.00     0.004 A 
ATOM     10  C   UNL d   1      45.397  27.757  57.750  0.00  0.00     0.003 C 
ENDROOT
BRANCH   4  11
ATOM     11  C   UNL d   1      45.029  30.289  59.819  0.00  0.00     0.059 C 
BRANCH  11  12
ATOM     12  S   UNL d   1      44.557  29.978  60.408  0.00  0.00    -0.049 SA
BRANCH  12  13
ATOM     13  C   UNL d   1      44.616  30.274  61.185  0.00  0.00     0.185 C 
ATOM     14  S   UNL d   1      44.673  31.078  61.306  0.00  0.00    -0.044 SA
BRANCH  13  15
ATOM     15  O   UNL d   1      44.617  29.753  61.820  0.00  0.00    -0.288 OA
BRANCH  15  16
ATOM     16  C   UNL d   1      44.621  29.225  62.451  0.00  0.00     0.124 C 
ATOM     17  C   UNL d   1      44.314  29.454  63.185  0.00  0.00     0.029 C 
ENDBRANCH  15  16
ENDBRANCH  13  15
ENDBRANCH  12  13
ENDBRANCH  11  12
ENDBRANCH   4  11
TORSDOF 5
ENDMDL
MODEL 7
REMARK VINA RESULT:      -4.7      9.794     10.754
REMARK  5 active torsions:
REMARK  status: ('A' for Active; 'I' for Inactive)
REMARK    1  A    between atoms: C_13  and  C_4 
REMARK    2  A    between atoms: C_7  and  S_11 
REMARK    3  A    between atoms: O_14  and  C_7 
REMARK    4  A    between atoms: S_11  and  C_13 
REMARK    5  A    between atoms: C_16  and  O_14 
ROOT
ATOM      1  C   UNL d   1      45.098  27.468  58.017  0.00  0.00     0.148 A 
ATOM      2  N   UNL d   1      45.083  27.833  57.269  0.00  0.00    -0.288 N 
ATOM      3  N   UNL d   1      45.148  28.089  58.578  0.00  0.00    -0.226 NA
ATOM      4  C   UNL d   1      45.163  28.808  58.191  0.00  0.00     0.107 A 
ATOM      5  C   UNL d   1      45.122  28.650  57.369  0.00  0.00     0.101 A 
ATOM      6  C   UNL d   1      45.065  26.648  58.084  0.00  0.00     0.035 A 
ATOM      7  C   UNL d   1      45.035  27.354  56.588  0.00  0.00     0.082 A 
ATOM      8  C   UNL d   1      45.002  26.534  56.663  0.00  0.00     0.019 A 
ATOM      9  C   UNL d   1      45.017  26.180  57.405  0.00  0.00     0.004 A 
ATOM     10  C   UNL d   1      45.080  26.283  58.835  0.00  0.00     0.003 C 
ENDROOT
BRANCH   4  11
ATOM     11  C   UNL d   1      45.209  29.557  58.533  0.00  0.00     0.059 C 
BRANCH  11  12
ATOM     12  S   UNL d   1      44.717  29.755  59.154  0.00  0.00    -0.049 SA
BRANCH  12  13
ATOM     13  C   UNL d   1      44.759  30.517  59.488  0.00  0.00     0.185 C 
ATOM     14  S   UNL d   1      44.756  31.171  59.001  0.00  0.00    -0.044 SA
BRANCH  13  15
ATOM     15  O   UNL d   1      44.804  30.602  60.304  0.00  0.00    -0.288 OA
BRANCH  15  16
ATOM     16  C   UNL d   1      44.848  30.695  61.120  0.00  0.00     0.124 C 
ATOM     17  C   UNL d   1      44.389  31.272  61.497  0.00  0.00     0.029 C 
ENDBRANCH  15  16
ENDBRANCH  13  15
ENDBRANCH  12  13
ENDBRANCH  11  12
ENDBRANCH   4  11
TORSDOF 5
ENDMDL
MODEL 8
REMARK VINA RESULT:      -4.4      9.346      9.739
REMARK  5 active torsions:
REMARK  status: ('A' for Active; 'I' for Inactive)
REMARK    1  A    between atoms: C_13  and  C_4 
REMARK    2  A    between atoms: C_7  and  S_11 
REMARK    3  A    between atoms: O_14  and  C_7 
REMARK    4  A    between atoms: S_11  and  C_13 
REMARK    5  A    between atoms: C_16  and  O_14 
ROOT
ATOM      1  C   UNL d   1      44.818  29.892  57.398  0.00  0.00     0.148 A 
ATOM      2  N   UNL d   1      45.101  29.662  58.145  0.00  0.00    -0.288 N 
ATOM      3  N   UNL d   1      44.768  29.191  56.941  0.00  0.00    -0.226 NA
ATOM      4  C   UNL d   1      45.011  28.554  57.390  0.00  0.00     0.107 A 
ATOM      5  C   UNL d   1      45.221  28.846  58.146  0.00  0.00     0.101 A 
ATOM      6  C   UNL d   1      44.649  30.683  57.238  0.00  0.00     0.035 A 
ATOM      7  C   UNL d   1      45.211  30.245  58.732  0.00  0.00     0.082 A 
ATOM      8  C   UNL d   1      45.040  31.034  58.565  0.00  0.00     0.019 A 
ATOM      9  C   UNL d   1      44.761  31.254  57.825  0.00  0.00     0.004 A 
ATOM     10  C   UNL d   1      44.365  30.913  56.488  0.00  0.00     0.003 C 
ENDROOT
BRANCH   4  11
ATOM     11  C   UNL d   1      45.048  27.764  57.155  0.00  0.00     0.059 C 
BRANCH  11  12
ATOM     12  S   UNL d   1      45.056  27.169  57.714  0.00  0.00    -0.049 SA
BRANCH  12  13
ATOM     13  C   UNL d   1      44.906  26.383  57.484  0.00  0.00     0.185 C 
ATOM     14  S   UNL d   1      45.054  26.153  56.716  0.00  0.00    -0.044 SA
BRANCH  13  15
ATOM     15  O   UNL d   1      44.609  25.848  58.033  0.00  0.00    -0.288 OA
BRANCH  15  16
ATOM     16  C   UNL d   1      44.315  25.306  58.576  0.00  0.00     0.124 C 
ATOM     17  C   UNL d   1      44.570  24.519  58.557  0.00  0.00     0.029 C 
ENDBRANCH  15  16
ENDBRANCH  13  15
ENDBRANCH  12  13
ENDBRANCH  11  12
ENDBRANCH   4  11
TORSDOF 5
ENDMDL
MODEL 9
REMARK VINA RESULT:      -4.2     10.350     11.266
REMARK  5 active torsions:
REMARK  status: ('A' for Active; 'I' for Inactive)
REMARK    1  A    between atoms: C_13  and  C_4 
REMARK    2  A    between atoms: C_7  and  S_11 
REMARK    3  A    between atoms: O_14  and  C_7 
REMARK    4  A    between atoms: S_11  and  C_13 
REMARK    5  A    between atoms: C_16  and  O_14 
ROOT
ATOM      1  C   UNL d   1      44.537  29.405  61.190  0.00  0.00     0.148 A 
ATOM      2  N   UNL d   1      44.479  28.576  61.219  0.00  0.00    -0.288 N 
ATOM      3  N   UNL d   1      44.502  29.612  60.378  0.00  0.00    -0.226 NA
ATOM      4  C   UNL d   1      44.426  28.936  59.926  0.00  0.00     0.107 A 
ATOM      5  C   UNL d   1      44.411  28.284  60.451  0.00  0.00     0.101 A 
ATOM      6  C   UNL d   1      44.611  29.846  61.882  0.00  0.00     0.035 A 
ATOM      7  C   UNL d   1      44.498  28.197  61.963  0.00  0.00     0.082 A 
ATOM      8  C   UNL d   1      44.572  28.645  62.651  0.00  0.00     0.019 A 
ATOM      9  C   UNL d   1      44.628  29.464  62.614  0.00  0.00     0.004 A 
ATOM     10  C   UNL d   1      44.669  30.678  61.850  0.00  0.00     0.003 C 
ENDROOT
BRANCH   4  11
ATOM     11  C   UNL d   1      44.372  28.890  59.104  0.00  0.00     0.059 C 
BRANCH  11  12
ATOM     12  S   UNL d   1      44.943  28.491  58.678  0.00  0.00    -0.049 SA
BRANCH  12  13
ATOM     13  C   UNL d   1      44.888  28.454  57.847  0.00  0.00     0.185 C 
ATOM     14  S   UNL d   1      44.502  29.047  57.442  0.00  0.00    -0.044 SA
BRANCH  13  15
ATOM     15  O   UNL d   1      45.223  27.820  57.445  0.00  0.00    -0.288 OA
BRANCH  15  16
ATOM     16  C   UNL d   1      45.563  27.185  57.050  0.00  0.00     0.124 C 
ATOM     17  C   UNL d   1      45.083  26.618  56.684  0.00  0.00     0.029 C 
ENDBRANCH  15  16
ENDBRANCH  13  15
ENDBRANCH  12  13
ENDBRANCH  11  12
ENDBRANCH   4  11
TORSDOF 5
ENDMDL
