MODEL 1
REMARK VINA RESULT:      -4.7      0.000      0.000
REMARK  4 active torsions:
REMARK  status: ('A' for Active; 'I' for Inactive)
REMARK    1  A    between atoms: C_7  and  C_1 
REMARK    2  A    between atoms: S_4  and  O_12 
REMARK    3  A    between atoms: O_12  and  C_10 
REMARK    4  A    between atoms: C_25  and  C_13 
ROOT
ATOM      1  C   UNL d   1      56.812  -0.528  32.137  0.00  0.00     0.064 A 
ATOM      2  C   UNL d   1      57.727  -0.365  31.058  0.00  0.00     0.062 A 
ATOM      3  C   UNL d   1      57.361  -0.069  31.731  0.00  0.00     0.199 A 
ATOM      4  C   UNL d   1      56.626  -1.294  31.868  0.00  0.00     0.126 A 
ATOM      5  C   UNL d   1      57.546  -1.123  30.788  0.00  0.00     0.105 A 
ATOM      6  O   UNL d   1      57.000  -1.593  31.184  0.00  0.00    -0.305 OA
ATOM      7  C   UNL d   1      58.276   0.090  30.650  0.00  0.00     0.007 A 
ATOM      8  C   UNL d   1      58.459  -0.965  29.710  0.00  0.00     0.115 A 
ATOM      9  C   UNL d   1      57.909  -1.423  30.117  0.00  0.00     0.050 A 
ATOM     10  C   UNL d   1      58.642  -0.206  29.977  0.00  0.00     0.024 A 
ATOM     11  O   UNL d   1      57.542   0.682  31.995  0.00  0.00    -0.286 OA
ENDROOT
BRANCH   1  12
ATOM     12  C   UNL d   1      56.446  -0.227  32.812  0.00  0.00     0.007 A 
ATOM     13  C   UNL d   1      55.620  -0.221  32.856  0.00  0.00     0.027 A 
ATOM     14  C   UNL d   1      55.254   0.079  33.529  0.00  0.00     0.123 A 
ATOM     15  O   UNL d   1      54.418   0.086  33.575  0.00  0.00    -0.301 OA
ATOM     16  C   UNL d   1      55.714   0.372  34.159  0.00  0.00     0.123 A 
ATOM     17  C   UNL d   1      54.056   0.392  34.260  0.00  0.00     0.149 A 
ATOM     18  C   UNL d   1      54.512   0.682  34.883  0.00  0.00     0.149 A 
ATOM     19  O   UNL d   1      55.342   0.674  34.837  0.00  0.00    -0.301 OA
ATOM     20  C   UNL d   1      56.525   0.362  34.106  0.00  0.00     0.027 A 
ATOM     21  C   UNL d   1      56.901   0.063  33.434  0.00  0.00     0.002 A 
ENDBRANCH   1  12
BRANCH  10  22
ATOM     22  C   UNL d   1      59.191   0.253  29.570  0.00  0.00     0.002 C 
ATOM     23  C   UNL d   1      59.857   0.549  29.957  0.00  0.00     0.000 C 
ENDBRANCH  10  22
BRANCH   8  24
ATOM     24  O   UNL d   1      58.824  -1.264  29.036  0.00  0.00    -0.230 OA
BRANCH  24  25
ATOM     25  S   UNL d   1      58.856  -2.079  28.912  0.00  0.00     0.285 S 
ATOM     26  O   UNL d   1      58.148  -2.048  28.491  0.00  0.00    -0.197 OA
ATOM     27  O   UNL d   1      59.566  -2.115  29.332  0.00  0.00    -0.197 OA
ATOM     28  C   UNL d   1      58.893  -2.894  28.789  0.00  0.00     0.172 C 
ENDBRANCH  24  25
ENDBRANCH   8  24
TORSDOF 4
ENDMDL
MODEL 2
REMARK VINA RESULT:      -1.8      1.604      5.199
REMARK  4 active torsions:
REMARK  status: ('A' for Active; 'I' for Inactive)
REMARK    1  A    between atoms: C_7  and  C_1 
REMARK    2  A    between atoms: S_4  and  O_12 
REMARK    3  A    between atoms: O_12  and  C_10 
REMARK    4  A    between atoms: C_25  and  C_13 
ROOT
ATOM      1  C   UNL d   1      57.638  -0.161  31.047  0.00  0.00     0.064 A 
ATOM      2  C   UNL d   1      57.245   0.094  32.392  0.00  0.00     0.062 A 
ATOM      3  C   UNL d   1      57.793   0.169  31.785  0.00  0.00     0.199 A 
ATOM      4  C   UNL d   1      56.925  -0.571  30.914  0.00  0.00     0.126 A 
ATOM      5  C   UNL d   1      56.537  -0.311  32.264  0.00  0.00     0.105 A 
ATOM      6  O   UNL d   1      56.370  -0.645  31.532  0.00  0.00    -0.305 OA
ATOM      7  C   UNL d   1      57.396   0.422  33.130  0.00  0.00     0.007 A 
ATOM      8  C   UNL d   1      56.142  -0.058  33.606  0.00  0.00     0.115 A 
ATOM      9  C   UNL d   1      55.988  -0.387  32.867  0.00  0.00     0.050 A 
ATOM     10  C   UNL d   1      56.848   0.348  33.737  0.00  0.00     0.024 A 
ATOM     11  O   UNL d   1      58.492   0.570  31.915  0.00  0.00    -0.286 OA
ENDROOT
BRANCH   1  12
ATOM     12  C   UNL d   1      58.190  -0.084  30.440  0.00  0.00     0.007 A 
ATOM     13  C   UNL d   1      58.706  -0.711  30.281  0.00  0.00     0.027 A 
ATOM     14  C   UNL d   1      59.258  -0.635  29.674  0.00  0.00     0.123 A 
ATOM     15  O   UNL d   1      59.781  -1.268  29.512  0.00  0.00    -0.301 OA
ATOM     16  C   UNL d   1      59.293   0.067  29.228  0.00  0.00     0.123 A 
ATOM     17  C   UNL d   1      60.336  -1.183  28.897  0.00  0.00     0.149 A 
ATOM     18  C   UNL d   1      60.371  -0.487  28.455  0.00  0.00     0.149 A 
ATOM     19  O   UNL d   1      59.852   0.140  28.617  0.00  0.00    -0.301 OA
ATOM     20  C   UNL d   1      58.782   0.677  29.392  0.00  0.00     0.027 A 
ATOM     21  C   UNL d   1      58.225   0.610  29.998  0.00  0.00     0.002 A 
ENDBRANCH   1  12
BRANCH  10  22
ATOM     22  C   UNL d   1      57.003   0.677  34.476  0.00  0.00     0.002 C 
ATOM     23  C   UNL d   1      57.770   0.681  34.779  0.00  0.00     0.000 C 
ENDBRANCH  10  22
BRANCH   8  24
ATOM     24  O   UNL d   1      55.591  -0.134  34.212  0.00  0.00    -0.230 OA
BRANCH  24  25
ATOM     25  S   UNL d   1      54.785  -0.068  34.048  0.00  0.00     0.285 S 
ATOM     26  O   UNL d   1      54.788  -0.818  33.703  0.00  0.00    -0.197 OA
ATOM     27  O   UNL d   1      54.776   0.682  34.392  0.00  0.00    -0.197 OA
ATOM     28  C   UNL d   1      53.979   0.002  33.887  0.00  0.00     0.172 C 
ENDBRANCH  24  25
ENDBRANCH   8  24
TORSDOF 4
ENDMDL
