MODEL 1
REMARK VINA RESULT:      71.7      0.000      0.000
REMARK  2 active torsions:
REMARK  status: ('A' for Active; 'I' for Inactive)
REMARK    1  A    between atoms: C_2  and  C_1 
REMARK       I    between atoms: N_3  and  C_1 
REMARK    2  A    between atoms: C_5  and  N_4 
ROOT
ATOM      1  C   UNL d   1      61.328  49.578  51.623  0.00  0.00     0.267 C 
ATOM      2  N   UNL d   1      60.573  49.569  51.289  0.00  0.00    -0.269 N 
ATOM      3  N   UNL d   1      59.063  49.552  50.621  0.00  0.00    -0.301 N 
ATOM      4  O   UNL d   1      61.988  49.705  51.149  0.00  0.00    -0.267 OA
ATOM      5  C   UNL d   1      60.476  49.687  50.480  0.00  0.00     0.102 A 
ATOM      6  C   UNL d   1      59.911  49.442  51.764  0.00  0.00     0.102 A 
ATOM      7  C   UNL d   1      59.156  49.433  51.430  0.00  0.00     0.100 A 
ATOM      8  C   UNL d   1      59.721  49.679  50.147  0.00  0.00     0.100 A 
ENDROOT
BRANCH   1   9
ATOM      9  C   UNL d   1      61.423  49.459  52.433  0.00  0.00     0.084 A 
ATOM     10  C   UNL d   1      62.162  49.246  52.737  0.00  0.00     0.145 A 
ATOM     11  F   UNL d   1      62.805  49.152  52.231  0.00  0.00    -0.204 F 
ATOM     12  C   UNL d   1      62.254  49.128  53.553  0.00  0.00     0.030 A 
ATOM     13  C   UNL d   1      61.612  49.222  54.056  0.00  0.00     0.002 A 
ATOM     14  C   UNL d   1      60.873  49.435  53.752  0.00  0.00     0.000 A 
ATOM     15  C   UNL d   1      60.777  49.553  52.945  0.00  0.00     0.007 A 
ENDBRANCH   1   9
BRANCH   3  16
ATOM     16  C   UNL d   1      58.305  49.543  50.286  0.00  0.00     0.064 A 
ATOM     17  C   UNL d   1      58.215  49.618  49.474  0.00  0.00     0.016 A 
ATOM     18  C   UNL d   1      57.459  49.609  49.139  0.00  0.00     0.001 A 
ATOM     19  C   UNL d   1      58.877  49.702  48.989  0.00  0.00     0.002 C 
ATOM     20  C   UNL d   1      56.796  49.526  49.619  0.00  0.00     0.000 A 
ATOM     21  C   UNL d   1      56.888  49.450  50.434  0.00  0.00     0.002 A 
ATOM     22  C   UNL d   1      56.042  49.517  49.285  0.00  0.00     0.000 C 
ATOM     23  C   UNL d   1      57.645  49.459  50.769  0.00  0.00     0.018 A 
ENDBRANCH   3  16
TORSDOF 2
ENDMDL
