MODEL 1
REMARK VINA RESULT:      28.3      0.000      0.000
REMARK  0 active torsions:
REMARK  status: ('A' for Active; 'I' for Inactive)
ROOT
ATOM      1  C   UNL d   1     -57.596 -98.804 -44.006  0.00  0.00     0.166 A 
ATOM      2  C   UNL d   1     -57.569 -98.786 -44.828  0.00  0.00     0.117 A 
ATOM      3  N   UNL d   1     -58.396 -98.816 -43.798  0.00  0.00    -0.288 N 
ATOM      4  C   UNL d   1     -58.323 -98.787 -45.118  0.00  0.00     0.038 A 
ATOM      5  N   UNL d   1     -56.901 -98.808 -43.553  0.00  0.00    -0.225 NA
ATOM      6  C   UNL d   1     -58.839 -98.806 -44.474  0.00  0.00     0.067 A 
ATOM      7  N   UNL d   1     -56.827 -98.772 -45.180  0.00  0.00    -0.241 NA
ATOM      8  C   UNL d   1     -56.178 -98.793 -43.927  0.00  0.00     0.101 A 
ATOM      9  C   UNL d   1     -56.154 -98.775 -44.744  0.00  0.00     0.099 A 
ATOM     10  C   UNL d   1     -59.654 -98.810 -44.600  0.00  0.00     0.018 A 
ATOM     11  C   UNL d   1     -58.622 -98.773 -45.886  0.00  0.00     0.015 A 
ATOM     12  C   UNL d   1     -59.437 -98.778 -46.011  0.00  0.00     0.058 A 
ATOM     13  C   UNL d   1     -58.682 -98.835 -43.040  0.00  0.00     0.101 C 
ATOM     14  C   UNL d   1     -59.953 -98.797 -45.368  0.00  0.00     0.013 A 
ATOM     15 CL   UNL d   1     -59.737 -98.764 -46.780  0.00  0.00    -0.082 Cl
ATOM     16  C   UNL d   1     -55.503 -98.796 -43.489  0.00  0.00     0.021 A 
ATOM     17  C   UNL d   1     -55.430 -98.760 -45.117  0.00  0.00     0.021 A 
ATOM     18  C   UNL d   1     -54.717 -98.763 -44.688  0.00  0.00     0.002 A 
ATOM     19  C   UNL d   1     -54.770 -98.781 -43.881  0.00  0.00     0.002 A 
ENDROOT
TORSDOF 0
ENDMDL
