MODEL 1
REMARK VINA RESULT:      10.0      0.000      0.000
REMARK  5 active torsions:
REMARK  status: ('A' for Active; 'I' for Inactive)
REMARK    1  A    between atoms: N_4  and  C_2 
REMARK    2  A    between atoms: C_11  and  C_3 
REMARK       I    between atoms: C_8  and  N_4 
REMARK    3  A    between atoms: C_14  and  C_5 
REMARK    4  A    between atoms: C_7  and  C_8 
REMARK    5  A    between atoms: C_17  and  C_14 
ROOT
ATOM      1  C   UNL d   1      46.339 -18.554  43.374  0.00  0.00     0.101 A 
ATOM      2  O   UNL d   1      46.258 -17.727  43.383  0.00  0.00    -0.302 OA
ATOM      3  C   UNL d   1      46.172 -17.491  44.164  0.00  0.00     0.158 A 
ATOM      4  C   UNL d   1      46.302 -18.819  44.150  0.00  0.00     0.027 A 
ATOM      5  C   UNL d   1      46.199 -18.167  44.644  0.00  0.00     0.032 A 
ENDROOT
BRANCH   3   6
ATOM      6  C   UNL d   1      46.074 -16.714  44.429  0.00  0.00     0.304 C 
ATOM      7  N   UNL d   1      45.435 -16.266  44.163  0.00  0.00    -0.180 NA
ATOM      8  O   UNL d   1      46.615 -16.392  44.955  0.00  0.00    -0.263 OA
BRANCH   7   9
ATOM      9  C   UNL d   1      45.336 -15.492  44.424  0.00  0.00     0.216 A 
ATOM     10  N   UNL d   1      45.895 -14.891  44.380  0.00  0.00    -0.200 NA
ATOM     11  C   UNL d   1      45.562 -14.212  44.706  0.00  0.00     0.175 A 
ATOM     12  N   UNL d   1      44.796 -14.393  44.952  0.00  0.00    -0.187 NA
ATOM     13  S   UNL d   1      44.657 -15.191  44.776  0.00  0.00     0.054 SA
BRANCH  11  14
ATOM     14  C   UNL d   1      45.928 -13.475  44.776  0.00  0.00     0.082 C 
BRANCH  14  15
ATOM     15  C   UNL d   1      45.725 -12.866  44.258  0.00  0.00     0.199 C 
ATOM     16  O   UNL d   1      45.702 -13.004  43.448  0.00  0.00    -0.286 OA
ATOM     17  C   UNL d   1      45.545 -12.115  44.551  0.00  0.00     0.045 C 
ENDBRANCH  14  15
ENDBRANCH  11  14
ENDBRANCH   7   9
ENDBRANCH   3   6
BRANCH   1  18
ATOM     18  C   UNL d   1      46.439 -19.024  42.702  0.00  0.00     0.033 A 
ATOM     19  C   UNL d   1      46.491 -19.844  42.777  0.00  0.00     0.060 A 
ATOM     20 CL   UNL d   1      46.443 -20.197  43.522  0.00  0.00    -0.082 Cl
ATOM     21  C   UNL d   1      46.591 -20.315  42.111  0.00  0.00     0.011 A 
ATOM     22  C   UNL d   1      46.639 -19.966  41.359  0.00  0.00     0.001 A 
ATOM     23  C   UNL d   1      46.588 -19.149  41.282  0.00  0.00     0.000 A 
ATOM     24  C   UNL d   1      46.488 -18.674  41.950  0.00  0.00     0.003 A 
ENDBRANCH   1  18
TORSDOF 5
ENDMDL
MODEL 2
REMARK VINA RESULT:      12.9      2.017      5.379
REMARK  5 active torsions:
REMARK  status: ('A' for Active; 'I' for Inactive)
REMARK    1  A    between atoms: N_4  and  C_2 
REMARK    2  A    between atoms: C_11  and  C_3 
REMARK       I    between atoms: C_8  and  N_4 
REMARK    3  A    between atoms: C_14  and  C_5 
REMARK    4  A    between atoms: C_7  and  C_8 
REMARK    5  A    between atoms: C_17  and  C_14 
ROOT
ATOM      1  C   UNL d   1      45.246 -14.348  44.140  0.00  0.00     0.101 A 
ATOM      2  O   UNL d   1      45.661 -15.044  43.961  0.00  0.00    -0.302 OA
ATOM      3  C   UNL d   1      45.300 -15.664  44.363  0.00  0.00     0.158 A 
ATOM      4  C   UNL d   1      44.633 -14.544  44.650  0.00  0.00     0.027 A 
ATOM      5  C   UNL d   1      44.661 -15.356  44.792  0.00  0.00     0.032 A 
ENDROOT
BRANCH   3   6
ATOM      6  C   UNL d   1      45.533 -16.456  44.343  0.00  0.00     0.304 C 
ATOM      7  N   UNL d   1      45.983 -16.737  43.712  0.00  0.00    -0.180 NA
ATOM      8  O   UNL d   1      45.315 -16.960  44.953  0.00  0.00    -0.263 OA
BRANCH   7   9
ATOM      9  C   UNL d   1      46.217 -17.526  43.691  0.00  0.00     0.216 A 
ATOM     10  N   UNL d   1      46.245 -18.004  43.023  0.00  0.00    -0.200 NA
ATOM     11  C   UNL d   1      46.509 -18.749  43.256  0.00  0.00     0.175 A 
ATOM     12  N   UNL d   1      46.643 -18.730  44.070  0.00  0.00    -0.187 NA
ATOM     13  S   UNL d   1      46.461 -17.969  44.339  0.00  0.00     0.054 SA
BRANCH  11  14
ATOM     14  C   UNL d   1      46.621 -19.403  42.765  0.00  0.00     0.082 C 
BRANCH  14  15
ATOM     15  C   UNL d   1      45.980 -19.886  42.573  0.00  0.00     0.199 C 
ATOM     16  O   UNL d   1      45.751 -19.975  41.789  0.00  0.00    -0.286 OA
ATOM     17  C   UNL d   1      45.567 -20.281  43.169  0.00  0.00     0.045 C 
ENDBRANCH  14  15
ENDBRANCH  11  14
ENDBRANCH   7   9
ENDBRANCH   3   6
BRANCH   1  18
ATOM     18  C   UNL d   1      45.420 -13.592  43.855  0.00  0.00     0.033 A 
ATOM     19  C   UNL d   1      45.971 -13.120  44.247  0.00  0.00     0.060 A 
ATOM     20 CL   UNL d   1      46.350 -13.400  44.926  0.00  0.00    -0.082 Cl
ATOM     21  C   UNL d   1      46.147 -12.368  43.966  0.00  0.00     0.011 A 
ATOM     22  C   UNL d   1      45.769 -12.081  43.284  0.00  0.00     0.001 A 
ATOM     23  C   UNL d   1      45.220 -12.550  42.892  0.00  0.00     0.000 A 
ATOM     24  C   UNL d   1      45.042 -13.306  43.172  0.00  0.00     0.003 A 
ENDBRANCH   1  18
TORSDOF 5
ENDMDL
