MODEL 1
REMARK VINA RESULT:      54.0      0.000      0.000
REMARK  6 active torsions:
REMARK  status: ('A' for Active; 'I' for Inactive)
REMARK    1  A    between atoms: C_4  and  S_1 
REMARK    2  A    between atoms: C_5  and  S_1 
REMARK    3  A    between atoms: C_2  and  N_7 
REMARK    4  A    between atoms: N_3  and  C_2 
REMARK    5  A    between atoms: C_17  and  N_6 
REMARK    6  A    between atoms: N_7  and  C_12 
ROOT
ATOM      1  C   UNL d   1     -55.489-102.438 -40.495  0.00  0.00     0.206 C 
ATOM      2  S   UNL d   1     -56.245-102.347 -40.807  0.00  0.00    -0.038 SA
ENDROOT
BRANCH   1   3
ATOM      3  N   UNL d   1     -54.856-102.628 -40.995  0.00  0.00    -0.218 NA
BRANCH   3   4
ATOM      4  C   UNL d   1     -54.834-102.334 -41.766  0.00  0.00     0.085 A 
ATOM      5  C   UNL d   1     -54.850-101.518 -41.890  0.00  0.00     0.031 A 
ATOM      6  C   UNL d   1     -54.828-101.227 -42.659  0.00  0.00     0.094 A 
ATOM      7  C   UNL d   1     -54.788-101.752 -43.302  0.00  0.00     0.012 A 
ATOM      8  C   UNL d   1     -54.772-102.566 -43.168  0.00  0.00     0.002 A 
ATOM      9  C   UNL d   1     -54.795-102.852 -42.394  0.00  0.00     0.019 A 
BRANCH   6  10
ATOM     10  S   UNL d   1     -54.844-100.416 -42.789  0.00  0.00     0.262 S 
ATOM     11  O   UNL d   1     -54.763-100.550 -43.602  0.00  0.00    -0.213 OA
ATOM     12  O   UNL d   1     -54.925-100.288 -41.981  0.00  0.00    -0.213 OA
BRANCH  10  13
ATOM     13  C   UNL d   1     -54.861 -99.606 -42.920  0.00  0.00     0.364 C 
ATOM     14  F   UNL d   1     -54.747 -99.084 -42.293  0.00  0.00    -0.159 F 
ATOM     15  F   UNL d   1     -54.991 -99.309 -43.682  0.00  0.00    -0.159 F 
ENDBRANCH  10  13
ENDBRANCH   6  10
ENDBRANCH   3   4
ENDBRANCH   1   3
BRANCH   1  16
ATOM     16  N   UNL d   1     -55.362-102.342 -39.689  0.00  0.00    -0.278 N 
ATOM     17  C   UNL d   1     -55.701-102.865 -39.152  0.00  0.00     0.101 A 
ATOM     18  C   UNL d   1     -55.574-102.768 -38.347  0.00  0.00     0.100 A 
ATOM     19  N   UNL d   1     -55.107-102.149 -38.078  0.00  0.00    -0.301 N 
ATOM     20  C   UNL d   1     -54.765-101.623 -38.611  0.00  0.00     0.100 A 
ATOM     21  C   UNL d   1     -54.895-101.722 -39.421  0.00  0.00     0.101 A 
BRANCH  19  22
ATOM     22  C   UNL d   1     -54.983-102.057 -37.267  0.00  0.00     0.064 A 
ATOM     23  C   UNL d   1     -54.861-101.302 -36.957  0.00  0.00     0.018 A 
ATOM     24  C   UNL d   1     -54.737-101.205 -36.151  0.00  0.00     0.002 A 
ATOM     25  C   UNL d   1     -54.735-101.862 -35.649  0.00  0.00     0.000 A 
ATOM     26  C   UNL d   1     -54.857-102.614 -35.956  0.00  0.00     0.002 A 
ATOM     27  C   UNL d   1     -54.982-102.715 -36.765  0.00  0.00     0.018 A 
ENDBRANCH  19  22
ENDBRANCH   1  16
TORSDOF 6
ENDMDL
