MODEL 1
REMARK VINA RESULT:      -6.7      0.000      0.000
REMARK  4 active torsions:
REMARK  status: ('A' for Active; 'I' for Inactive)
REMARK    1  A    between atoms: N_3  and  C_1 
REMARK       I    between atoms: C_7  and  N_3 
REMARK    2  A    between atoms: C_11  and  C_7 
REMARK    3  A    between atoms: C_12  and  C_11 
REMARK    4  A    between atoms: C_13  and  C_12 
ROOT
ATOM      1  C   UNL d   1     -49.850  14.501  23.134  0.00  0.00     0.124 A 
ATOM      2  C   UNL d   1     -50.575  14.226  23.424  0.00  0.00     0.093 A 
ATOM      3  C   UNL d   1     -50.783  13.440  23.558  0.00  0.00     0.103 C 
ATOM      4  S   UNL d   1     -49.890  15.321  23.091  0.00  0.00    -0.067 SA
ATOM      5  N   UNL d   1     -50.998  12.686  23.692  0.00  0.00    -0.191 NA
ATOM      6  C   UNL d   1     -51.064  14.888  23.560  0.00  0.00     0.019 A 
ATOM      7  C   UNL d   1     -50.635  15.563  23.352  0.00  0.00     0.038 A 
ENDROOT
BRANCH   1   8
ATOM      8  N   UNL d   1     -49.203  14.034  22.926  0.00  0.00    -0.201 NA
ATOM      9  C   UNL d   1     -48.462  14.384  22.824  0.00  0.00     0.280 C 
ATOM     10  O   UNL d   1     -48.368  15.195  22.929  0.00  0.00    -0.265 OA
BRANCH   9  11
ATOM     11  C   UNL d   1     -47.814  13.912  22.615  0.00  0.00     0.062 C 
BRANCH  11  12
ATOM     12  C   UNL d   1     -47.074  14.052  22.950  0.00  0.00     0.005 C 
BRANCH  12  13
ATOM     13  C   UNL d   1     -46.442  13.522  22.807  0.00  0.00     0.000 A 
ATOM     14  C   UNL d   1     -46.431  12.779  23.169  0.00  0.00     0.000 A 
ATOM     15  C   UNL d   1     -45.813  12.264  23.029  0.00  0.00     0.000 A 
ATOM     16  C   UNL d   1     -45.201  12.481  22.529  0.00  0.00     0.000 A 
ATOM     17  C   UNL d   1     -45.210  13.221  22.168  0.00  0.00     0.000 A 
ATOM     18  C   UNL d   1     -45.826  13.738  22.305  0.00  0.00     0.000 A 
ENDBRANCH  12  13
ENDBRANCH  11  12
ENDBRANCH   9  11
ENDBRANCH   1   8
TORSDOF 4
ENDMDL
MODEL 2
REMARK VINA RESULT:      -5.7      1.264      1.583
REMARK  4 active torsions:
REMARK  status: ('A' for Active; 'I' for Inactive)
REMARK    1  A    between atoms: N_3  and  C_1 
REMARK       I    between atoms: C_7  and  N_3 
REMARK    2  A    between atoms: C_11  and  C_7 
REMARK    3  A    between atoms: C_12  and  C_11 
REMARK    4  A    between atoms: C_13  and  C_12 
ROOT
ATOM      1  C   UNL d   1     -49.847  13.424  23.109  0.00  0.00     0.124 A 
ATOM      2  C   UNL d   1     -50.363  14.068  23.180  0.00  0.00     0.093 A 
ATOM      3  C   UNL d   1     -50.216  14.844  22.940  0.00  0.00     0.103 C 
ATOM      4  S   UNL d   1     -50.224  12.764  23.421  0.00  0.00    -0.067 SA
ATOM      5  N   UNL d   1     -50.088  15.595  22.714  0.00  0.00    -0.191 NA
ATOM      6  C   UNL d   1     -51.064  13.796  23.540  0.00  0.00     0.019 A 
ATOM      7  C   UNL d   1     -50.973  12.988  23.687  0.00  0.00     0.038 A 
ENDROOT
BRANCH   1   8
ATOM      8  N   UNL d   1     -49.090  13.445  22.784  0.00  0.00    -0.201 NA
ATOM      9  C   UNL d   1     -48.518  12.907  23.043  0.00  0.00     0.280 C 
ATOM     10  O   UNL d   1     -48.703  12.354  23.624  0.00  0.00    -0.265 OA
BRANCH   9  11
ATOM     11  C   UNL d   1     -47.759  12.929  22.715  0.00  0.00     0.062 C 
BRANCH  11  12
ATOM     12  C   UNL d   1     -47.095  12.909  23.203  0.00  0.00     0.005 C 
BRANCH  12  13
ATOM     13  C   UNL d   1     -46.328  12.911  22.869  0.00  0.00     0.000 A 
ATOM     14  C   UNL d   1     -45.857  12.233  22.901  0.00  0.00     0.000 A 
ATOM     15  C   UNL d   1     -45.108  12.237  22.575  0.00  0.00     0.000 A 
ATOM     16  C   UNL d   1     -44.821  12.914  22.214  0.00  0.00     0.000 A 
ATOM     17  C   UNL d   1     -45.288  13.591  22.180  0.00  0.00     0.000 A 
ATOM     18  C   UNL d   1     -46.036  13.590  22.505  0.00  0.00     0.000 A 
ENDBRANCH  12  13
ENDBRANCH  11  12
ENDBRANCH   9  11
ENDBRANCH   1   8
TORSDOF 4
ENDMDL
MODEL 3
REMARK VINA RESULT:      -5.3      9.056      9.604
REMARK  4 active torsions:
REMARK  status: ('A' for Active; 'I' for Inactive)
REMARK    1  A    between atoms: N_3  and  C_1 
REMARK       I    between atoms: C_7  and  N_3 
REMARK    2  A    between atoms: C_11  and  C_7 
REMARK    3  A    between atoms: C_12  and  C_11 
REMARK    4  A    between atoms: C_13  and  C_12 
ROOT
ATOM      1  C   UNL d   1     -40.163  15.255  18.254  0.00  0.00     0.124 A 
ATOM      2  C   UNL d   1     -40.189  14.740  17.606  0.00  0.00     0.093 A 
ATOM      3  C   UNL d   1     -39.801  14.015  17.539  0.00  0.00     0.103 C 
ATOM      4  S   UNL d   1     -40.630  15.907  18.076  0.00  0.00    -0.067 SA
ATOM      5  N   UNL d   1     -39.434  13.315  17.462  0.00  0.00    -0.191 NA
ATOM      6  C   UNL d   1     -40.678  15.084  17.024  0.00  0.00     0.019 A 
ATOM      7  C   UNL d   1     -40.949  15.807  17.321  0.00  0.00     0.038 A 
ENDROOT
BRANCH   1   8
ATOM      8  N   UNL d   1     -39.743  15.132  18.953  0.00  0.00    -0.201 NA
ATOM      9  C   UNL d   1     -40.040  15.427  19.666  0.00  0.00     0.280 C 
ATOM     10  O   UNL d   1     -40.751  15.842  19.679  0.00  0.00    -0.265 OA
BRANCH   9  11
ATOM     11  C   UNL d   1     -39.617  15.303  20.366  0.00  0.00     0.062 C 
BRANCH  11  12
ATOM     12  C   UNL d   1     -40.002  15.027  21.040  0.00  0.00     0.005 C 
BRANCH  12  13
ATOM     13  C   UNL d   1     -39.558  14.764  21.699  0.00  0.00     0.000 A 
ATOM     14  C   UNL d   1     -39.247  15.308  22.237  0.00  0.00     0.000 A 
ATOM     15  C   UNL d   1     -38.814  15.049  22.879  0.00  0.00     0.000 A 
ATOM     16  C   UNL d   1     -38.688  14.248  22.994  0.00  0.00     0.000 A 
ATOM     17  C   UNL d   1     -38.997  13.703  22.459  0.00  0.00     0.000 A 
ATOM     18  C   UNL d   1     -39.429  13.959  21.817  0.00  0.00     0.000 A 
ENDBRANCH  12  13
ENDBRANCH  11  12
ENDBRANCH   9  11
ENDBRANCH   1   8
TORSDOF 4
ENDMDL
MODEL 4
REMARK VINA RESULT:      -5.1      8.961     10.905
REMARK  4 active torsions:
REMARK  status: ('A' for Active; 'I' for Inactive)
REMARK    1  A    between atoms: N_3  and  C_1 
REMARK       I    between atoms: C_7  and  N_3 
REMARK    2  A    between atoms: C_11  and  C_7 
REMARK    3  A    between atoms: C_12  and  C_11 
REMARK    4  A    between atoms: C_13  and  C_12 
ROOT
ATOM      1  C   UNL d   1     -38.582  14.123  17.050  0.00  0.00     0.124 A 
ATOM      2  C   UNL d   1     -38.277  14.392  16.328  0.00  0.00     0.093 A 
ATOM      3  C   UNL d   1     -38.294  15.168  16.047  0.00  0.00     0.103 C 
ATOM      4  S   UNL d   1     -38.442  13.315  17.095  0.00  0.00    -0.067 SA
ATOM      5  N   UNL d   1     -38.302  15.911  15.765  0.00  0.00    -0.191 NA
ATOM      6  C   UNL d   1     -37.947  13.739  15.929  0.00  0.00     0.019 A 
ATOM      7  C   UNL d   1     -38.052  13.074  16.408  0.00  0.00     0.038 A 
ENDROOT
BRANCH   1   8
ATOM      8  N   UNL d   1     -38.958  14.586  17.619  0.00  0.00    -0.201 NA
ATOM      9  C   UNL d   1     -39.576  14.265  18.063  0.00  0.00     0.280 C 
ATOM     10  O   UNL d   1     -39.816  13.487  17.939  0.00  0.00    -0.265 OA
BRANCH   9  11
ATOM     11  C   UNL d   1     -39.952  14.731  18.635  0.00  0.00     0.062 C 
BRANCH  11  12
ATOM     12  C   UNL d   1     -40.111  14.424  19.382  0.00  0.00     0.005 C 
BRANCH  12  13
ATOM     13  C   UNL d   1     -40.361  14.930  20.000  0.00  0.00     0.000 A 
ATOM     14  C   UNL d   1     -39.964  14.932  20.725  0.00  0.00     0.000 A 
ATOM     15  C   UNL d   1     -40.211  15.426  21.326  0.00  0.00     0.000 A 
ATOM     16  C   UNL d   1     -40.853  15.922  21.214  0.00  0.00     0.000 A 
ATOM     17  C   UNL d   1     -41.251  15.921  20.493  0.00  0.00     0.000 A 
ATOM     18  C   UNL d   1     -41.007  15.429  19.890  0.00  0.00     0.000 A 
ENDBRANCH  12  13
ENDBRANCH  11  12
ENDBRANCH   9  11
ENDBRANCH   1   8
TORSDOF 4
ENDMDL
MODEL 5
REMARK VINA RESULT:      -4.7      8.356     10.299
REMARK  4 active torsions:
REMARK  status: ('A' for Active; 'I' for Inactive)
REMARK    1  A    between atoms: N_3  and  C_1 
REMARK       I    between atoms: C_7  and  N_3 
REMARK    2  A    between atoms: C_11  and  C_7 
REMARK    3  A    between atoms: C_12  and  C_11 
REMARK    4  A    between atoms: C_13  and  C_12 
ROOT
ATOM      1  C   UNL d   1     -39.970  14.482  20.118  0.00  0.00     0.124 A 
ATOM      2  C   UNL d   1     -39.737  14.403  20.909  0.00  0.00     0.093 A 
ATOM      3  C   UNL d   1     -38.997  14.159  21.180  0.00  0.00     0.103 C 
ATOM      4  S   UNL d   1     -40.751  14.739  20.111  0.00  0.00    -0.067 SA
ATOM      5  N   UNL d   1     -38.290  13.925  21.456  0.00  0.00    -0.191 NA
ATOM      6  C   UNL d   1     -40.385  14.615  21.390  0.00  0.00     0.019 A 
ATOM      7  C   UNL d   1     -41.010  14.822  20.890  0.00  0.00     0.038 A 
ENDROOT
BRANCH   1   8
ATOM      8  N   UNL d   1     -39.501  14.329  19.458  0.00  0.00    -0.201 NA
ATOM      9  C   UNL d   1     -39.857  14.113  18.744  0.00  0.00     0.280 C 
ATOM     10  O   UNL d   1     -40.676  14.049  18.692  0.00  0.00    -0.265 OA
BRANCH   9  11
ATOM     11  C   UNL d   1     -39.384  13.960  18.082  0.00  0.00     0.062 C 
BRANCH  11  12
ATOM     12  C   UNL d   1     -39.546  14.326  17.363  0.00  0.00     0.005 C 
BRANCH  12  13
ATOM     13  C   UNL d   1     -39.004  14.265  16.728  0.00  0.00     0.000 A 
ATOM     14  C   UNL d   1     -38.820  14.928  16.271  0.00  0.00     0.000 A 
ATOM     15  C   UNL d   1     -38.291  14.866  15.652  0.00  0.00     0.000 A 
ATOM     16  C   UNL d   1     -37.940  14.146  15.481  0.00  0.00     0.000 A 
ATOM     17  C   UNL d   1     -38.122  13.484  15.936  0.00  0.00     0.000 A 
ATOM     18  C   UNL d   1     -38.650  13.542  16.554  0.00  0.00     0.000 A 
ENDBRANCH  12  13
ENDBRANCH  11  12
ENDBRANCH   9  11
ENDBRANCH   1   8
TORSDOF 4
ENDMDL
