MODEL 1
REMARK VINA RESULT:      86.3      0.000      0.000
REMARK  5 active torsions:
REMARK  status: ('A' for Active; 'I' for Inactive)
REMARK    1  A    between atoms: C_8  and  N_1 
REMARK       I    between atoms: N_2  and  C_6 
REMARK    2  A    between atoms: S_11  and  C_3 
REMARK    3  A    between atoms: C_6  and  C_8 
REMARK    4  A    between atoms: C_9  and  C_15 
REMARK       I    between atoms: N_10  and  C_9 
REMARK    5  A    between atoms: C_15  and  S_11 
ROOT
ATOM      1  N   UNL d   1     -50.317  26.864  34.050  0.00  0.00    -0.300 N 
ATOM      2  C   UNL d   1     -50.074  27.130  35.332  0.00  0.00     0.049 A 
ATOM      3  C   UNL d   1     -50.515  26.653  34.822  0.00  0.00     0.087 A 
ATOM      4  C   UNL d   1     -49.607  27.631  34.876  0.00  0.00     0.024 A 
ATOM      5  C   UNL d   1     -49.759  27.465  34.082  0.00  0.00     0.065 A 
ATOM      6  C   UNL d   1     -49.067  28.215  35.080  0.00  0.00     0.002 A 
ATOM      7  C   UNL d   1     -49.367  27.886  33.489  0.00  0.00     0.018 A 
ATOM      8  C   UNL d   1     -48.671  28.639  34.489  0.00  0.00     0.000 A 
ATOM      9  C   UNL d   1     -48.826  28.468  33.694  0.00  0.00     0.002 A 
ENDROOT
BRANCH   1  10
ATOM     10  C   UNL d   1     -50.626  26.528  33.365  0.00  0.00     0.142 C 
BRANCH  10  11
ATOM     11  C   UNL d   1     -51.397  26.247  33.355  0.00  0.00     0.283 C 
ATOM     12  N   UNL d   1     -51.541  25.437  33.340  0.00  0.00    -0.267 N 
ATOM     13  C   UNL d   1     -52.314  25.153  33.331  0.00  0.00     0.108 A 
ATOM     14  C   UNL d   1     -50.914  24.904  33.335  0.00  0.00     0.108 A 
ATOM     15  C   UNL d   1     -52.458  24.342  33.316  0.00  0.00     0.118 A 
ATOM     16  C   UNL d   1     -53.243  24.055  33.307  0.00  0.00     0.028 C 
ATOM     17  O   UNL d   1     -51.831  23.804  33.310  0.00  0.00    -0.304 OA
ATOM     18  C   UNL d   1     -51.060  24.085  33.320  0.00  0.00     0.118 A 
ATOM     19  C   UNL d   1     -50.433  23.552  33.314  0.00  0.00     0.028 C 
ATOM     20  O   UNL d   1     -52.025  26.777  33.361  0.00  0.00    -0.265 OA
ENDBRANCH  10  11
ENDBRANCH   1  10
BRANCH   2  21
ATOM     21  S   UNL d   1     -50.100  27.106  36.156  0.00  0.00    -0.080 SA
BRANCH  21  22
ATOM     22  C   UNL d   1     -50.669  26.656  36.543  0.00  0.00     0.097 C 
BRANCH  22  23
ATOM     23  C   UNL d   1     -50.853  26.823  37.337  0.00  0.00     0.272 C 
ATOM     24  N   UNL d   1     -51.457  26.416  37.712  0.00  0.00    -0.267 N 
ATOM     25  C   UNL d   1     -51.631  26.589  38.498  0.00  0.00     0.110 A 
ATOM     26  C   UNL d   1     -51.883  25.841  37.304  0.00  0.00     0.110 A 
ATOM     27  C   UNL d   1     -52.241  26.179  38.880  0.00  0.00     0.142 A 
ATOM     28  O   UNL d   1     -52.673  25.596  38.468  0.00  0.00    -0.300 OA
ATOM     29  C   UNL d   1     -52.492  25.431  37.687  0.00  0.00     0.142 A 
ATOM     30  O   UNL d   1     -50.430  27.400  37.753  0.00  0.00    -0.266 OA
ENDBRANCH  22  23
ENDBRANCH  21  22
ENDBRANCH   2  21
TORSDOF 5
ENDMDL
