MODEL 1
REMARK VINA RESULT:      -2.6      0.000      0.000
REMARK  2 active torsions:
REMARK  status: ('A' for Active; 'I' for Inactive)
REMARK       I    between atoms: N_3  and  C_1 
REMARK    1  A    between atoms: C_4  and  C_1 
REMARK    2  A    between atoms: C_10  and  N_3 
ROOT
ATOM      1  C   UNL d   1      32.598  21.179 -21.356  0.00  0.00     0.279 C 
ATOM      2  N   UNL d   1      33.181  21.750 -21.220  0.00  0.00    -0.208 NA
ATOM      3  O   UNL d   1      31.861  21.244 -20.986  0.00  0.00    -0.265 OA
ENDROOT
BRANCH   1   4
ATOM      4  C   UNL d   1      32.761  20.549 -21.861  0.00  0.00     0.059 A 
ATOM      5  C   UNL d   1      32.812  20.681 -22.671  0.00  0.00     0.013 A 
ATOM      6  C   UNL d   1      32.972  20.063 -23.184  0.00  0.00     0.049 A 
ATOM      7  S   UNL d   1      33.055  20.031 -24.010  0.00  0.00    -0.064 SA
ATOM      8  C   UNL d   1      33.086  19.288 -22.881  0.00  0.00     0.088 A 
ATOM      9  C   UNL d   1      33.218  19.240 -24.205  0.00  0.00     0.135 A 
ATOM     10  N   UNL d   1      33.239  18.780 -23.526  0.00  0.00    -0.236 NA
ATOM     11  C   UNL d   1      33.038  19.142 -22.065  0.00  0.00     0.020 A 
ATOM     12  C   UNL d   1      32.875  19.774 -21.559  0.00  0.00     0.006 A 
ENDBRANCH   1   4
BRANCH   2  13
ATOM     13  C   UNL d   1      33.006  22.401 -20.695  0.00  0.00     0.087 A 
ATOM     14  C   UNL d   1      33.192  22.354 -19.894  0.00  0.00     0.049 A 
ATOM     15  C   UNL d   1      33.022  22.979 -19.398  0.00  0.00     0.142 A 
ATOM     16  F   UNL d   1      33.207  22.940 -18.588  0.00  0.00    -0.204 F 
ATOM     17  C   UNL d   1      32.666  23.652 -19.697  0.00  0.00     0.030 A 
ATOM     18  C   UNL d   1      32.478  23.702 -20.496  0.00  0.00     0.004 A 
ATOM     19  C   UNL d   1      32.649  23.070 -21.003  0.00  0.00     0.019 A 
ENDBRANCH   2  13
TORSDOF 2
ENDMDL
MODEL 2
REMARK VINA RESULT:      -2.4      2.939      5.312
REMARK  2 active torsions:
REMARK  status: ('A' for Active; 'I' for Inactive)
REMARK       I    between atoms: N_3  and  C_1 
REMARK    1  A    between atoms: C_4  and  C_1 
REMARK    2  A    between atoms: C_10  and  N_3 
ROOT
ATOM      1  C   UNL d   1      32.711  18.445 -23.195  0.00  0.00     0.279 C 
ATOM      2  N   UNL d   1      32.302  18.284 -23.895  0.00  0.00    -0.208 NA
ATOM      3  O   UNL d   1      32.979  17.824 -22.719  0.00  0.00    -0.265 OA
ENDROOT
BRANCH   1   4
ATOM      4  C   UNL d   1      32.848  19.229 -22.979  0.00  0.00     0.059 A 
ATOM      5  C   UNL d   1      32.734  19.461 -22.199  0.00  0.00     0.013 A 
ATOM      6  C   UNL d   1      32.866  20.236 -21.972  0.00  0.00     0.049 A 
ATOM      7  S   UNL d   1      32.798  20.623 -21.239  0.00  0.00    -0.064 SA
ATOM      8  C   UNL d   1      33.122  20.800 -22.540  0.00  0.00     0.088 A 
ATOM      9  C   UNL d   1      33.012  21.416 -21.365  0.00  0.00     0.135 A 
ATOM     10  N   UNL d   1      33.210  21.535 -22.153  0.00  0.00    -0.236 NA
ATOM     11  C   UNL d   1      33.241  20.578 -23.331  0.00  0.00     0.020 A 
ATOM     12  C   UNL d   1      33.104  19.793 -23.547  0.00  0.00     0.006 A 
ENDBRANCH   1   4
BRANCH   2  13
ATOM     13  C   UNL d   1      32.163  17.469 -24.112  0.00  0.00     0.087 A 
ATOM     14  C   UNL d   1      31.459  17.095 -23.906  0.00  0.00     0.049 A 
ATOM     15  C   UNL d   1      31.334  16.317 -24.116  0.00  0.00     0.142 A 
ATOM     16  F   UNL d   1      30.625  15.932 -23.912  0.00  0.00    -0.204 F 
ATOM     17  C   UNL d   1      31.908  15.909 -24.533  0.00  0.00     0.030 A 
ATOM     18  C   UNL d   1      32.612  16.279 -24.741  0.00  0.00     0.004 A 
ATOM     19  C   UNL d   1      32.743  17.069 -24.528  0.00  0.00     0.019 A 
ENDBRANCH   2  13
TORSDOF 2
ENDMDL
MODEL 3
REMARK VINA RESULT:      -2.4      4.286      5.883
REMARK  2 active torsions:
REMARK  status: ('A' for Active; 'I' for Inactive)
REMARK       I    between atoms: N_3  and  C_1 
REMARK    1  A    between atoms: C_4  and  C_1 
REMARK    2  A    between atoms: C_10  and  N_3 
ROOT
ATOM      1  C   UNL d   1      30.622  17.434 -24.521  0.00  0.00     0.279 C 
ATOM      2  N   UNL d   1      31.300  17.256 -24.083  0.00  0.00    -0.208 NA
ATOM      3  O   UNL d   1      30.592  18.122 -24.979  0.00  0.00    -0.265 OA
ENDROOT
BRANCH   1   4
ATOM      4  C   UNL d   1      29.979  16.918 -24.497  0.00  0.00     0.059 A 
ATOM      5  C   UNL d   1      29.441  16.969 -23.878  0.00  0.00     0.013 A 
ATOM      6  C   UNL d   1      28.799  16.463 -23.842  0.00  0.00     0.049 A 
ATOM      7  S   UNL d   1      28.178  16.387 -23.294  0.00  0.00    -0.064 SA
ATOM      8  C   UNL d   1      28.688  15.886 -24.442  0.00  0.00     0.088 A 
ATOM      9  C   UNL d   1      27.695  15.767 -23.563  0.00  0.00     0.135 A 
ATOM     10  N   UNL d   1      27.996  15.455 -24.261  0.00  0.00    -0.236 NA
ATOM     11  C   UNL d   1      29.225  15.824 -25.073  0.00  0.00     0.020 A 
ATOM     12  C   UNL d   1      29.868  16.341 -25.097  0.00  0.00     0.006 A 
ENDBRANCH   1   4
BRANCH   2  13
ATOM     13  C   UNL d   1      31.962  17.795 -24.113  0.00  0.00     0.087 A 
ATOM     14  C   UNL d   1      32.204  18.199 -23.437  0.00  0.00     0.049 A 
ATOM     15  C   UNL d   1      32.838  18.712 -23.473  0.00  0.00     0.142 A 
ATOM     16  F   UNL d   1      33.088  19.124 -22.796  0.00  0.00    -0.204 F 
ATOM     17  C   UNL d   1      33.231  18.826 -24.181  0.00  0.00     0.030 A 
ATOM     18  C   UNL d   1      32.992  18.425 -24.858  0.00  0.00     0.004 A 
ATOM     19  C   UNL d   1      32.350  17.903 -24.825  0.00  0.00     0.019 A 
ENDBRANCH   2  13
TORSDOF 2
ENDMDL
MODEL 4
REMARK VINA RESULT:      -2.3      4.783      6.401
REMARK  2 active torsions:
REMARK  status: ('A' for Active; 'I' for Inactive)
REMARK       I    between atoms: N_3  and  C_1 
REMARK    1  A    between atoms: C_4  and  C_1 
REMARK    2  A    between atoms: C_10  and  N_3 
ROOT
ATOM      1  C   UNL d   1      30.353  16.716 -23.944  0.00  0.00     0.279 C 
ATOM      2  N   UNL d   1      29.676  16.813 -24.409  0.00  0.00    -0.208 NA
ATOM      3  O   UNL d   1      30.301  16.338 -23.210  0.00  0.00    -0.265 OA
ENDROOT
BRANCH   1   4
ATOM      4  C   UNL d   1      31.076  16.999 -24.220  0.00  0.00     0.059 A 
ATOM      5  C   UNL d   1      31.388  17.691 -23.905  0.00  0.00     0.013 A 
ATOM      6  C   UNL d   1      32.105  17.983 -24.171  0.00  0.00     0.049 A 
ATOM      7  S   UNL d   1      32.547  18.655 -23.960  0.00  0.00    -0.064 SA
ATOM      8  C   UNL d   1      32.527  17.571 -24.770  0.00  0.00     0.088 A 
ATOM      9  C   UNL d   1      33.232  18.649 -24.430  0.00  0.00     0.135 A 
ATOM     10  N   UNL d   1      33.230  17.994 -24.926  0.00  0.00    -0.236 NA
ATOM     11  C   UNL d   1      32.223  16.871 -25.095  0.00  0.00     0.020 A 
ATOM     12  C   UNL d   1      31.499  16.588 -24.819  0.00  0.00     0.006 A 
ENDBRANCH   1   4
BRANCH   2  13
ATOM     13  C   UNL d   1      28.930  16.517 -24.116  0.00  0.00     0.087 A 
ATOM     14  C   UNL d   1      28.467  16.975 -23.612  0.00  0.00     0.049 A 
ATOM     15  C   UNL d   1      27.756  16.686 -23.336  0.00  0.00     0.142 A 
ATOM     16  F   UNL d   1      27.283  17.142 -22.826  0.00  0.00    -0.204 F 
ATOM     17  C   UNL d   1      27.503  15.941 -23.561  0.00  0.00     0.030 A 
ATOM     18  C   UNL d   1      27.962  15.481 -24.065  0.00  0.00     0.004 A 
ATOM     19  C   UNL d   1      28.685  15.771 -24.347  0.00  0.00     0.019 A 
ENDBRANCH   2  13
TORSDOF 2
ENDMDL
MODEL 5
REMARK VINA RESULT:      -2.1      2.143      3.229
REMARK  2 active torsions:
REMARK  status: ('A' for Active; 'I' for Inactive)
REMARK       I    between atoms: N_3  and  C_1 
REMARK    1  A    between atoms: C_4  and  C_1 
REMARK    2  A    between atoms: C_10  and  N_3 
ROOT
ATOM      1  C   UNL d   1      32.524  18.830 -23.158  0.00  0.00     0.279 C 
ATOM      2  N   UNL d   1      33.241  19.205 -22.987  0.00  0.00    -0.208 NA
ATOM      3  O   UNL d   1      31.818  19.115 -22.834  0.00  0.00    -0.265 OA
ENDROOT
BRANCH   1   4
ATOM      4  C   UNL d   1      32.522  18.171 -23.653  0.00  0.00     0.059 A 
ATOM      5  C   UNL d   1      32.500  17.417 -23.326  0.00  0.00     0.013 A 
ATOM      6  C   UNL d   1      32.498  16.754 -23.807  0.00  0.00     0.049 A 
ATOM      7  S   UNL d   1      32.479  15.941 -23.636  0.00  0.00    -0.064 SA
ATOM      8  C   UNL d   1      32.517  16.845 -24.642  0.00  0.00     0.088 A 
ATOM      9  C   UNL d   1      32.486  15.542 -24.365  0.00  0.00     0.135 A 
ATOM     10  N   UNL d   1      32.509  16.082 -24.983  0.00  0.00    -0.236 NA
ATOM     11  C   UNL d   1      32.538  17.600 -24.984  0.00  0.00     0.020 A 
ATOM     12  C   UNL d   1      32.541  18.260 -24.488  0.00  0.00     0.006 A 
ENDBRANCH   1   4
BRANCH   2  13
ATOM     13  C   UNL d   1      33.235  19.887 -22.473  0.00  0.00     0.087 A 
ATOM     14  C   UNL d   1      33.235  19.795 -21.655  0.00  0.00     0.049 A 
ATOM     15  C   UNL d   1      33.229  20.451 -21.169  0.00  0.00     0.142 A 
ATOM     16  F   UNL d   1      33.229  20.366 -20.342  0.00  0.00    -0.204 F 
ATOM     17  C   UNL d   1      33.225  21.200 -21.497  0.00  0.00     0.030 A 
ATOM     18  C   UNL d   1      33.225  21.297 -22.314  0.00  0.00     0.004 A 
ATOM     19  C   UNL d   1      33.230  20.633 -22.809  0.00  0.00     0.019 A 
ENDBRANCH   2  13
TORSDOF 2
ENDMDL
MODEL 6
REMARK VINA RESULT:      -1.8      1.511      2.092
REMARK  2 active torsions:
REMARK  status: ('A' for Active; 'I' for Inactive)
REMARK       I    between atoms: N_3  and  C_1 
REMARK    1  A    between atoms: C_4  and  C_1 
REMARK    2  A    between atoms: C_10  and  N_3 
ROOT
ATOM      1  C   UNL d   1      33.039  19.826 -22.131  0.00  0.00     0.279 C 
ATOM      2  N   UNL d   1      32.792  20.586 -22.347  0.00  0.00    -0.208 NA
ATOM      3  O   UNL d   1      33.241  19.664 -21.346  0.00  0.00    -0.265 OA
ENDROOT
BRANCH   1   4
ATOM      4  C   UNL d   1      33.082  19.237 -22.707  0.00  0.00     0.059 A 
ATOM      5  C   UNL d   1      33.121  18.449 -22.478  0.00  0.00     0.013 A 
ATOM      6  C   UNL d   1      33.164  17.854 -23.039  0.00  0.00     0.049 A 
ATOM      7  S   UNL d   1      33.208  17.027 -22.974  0.00  0.00    -0.064 SA
ATOM      8  C   UNL d   1      33.168  18.051 -23.856  0.00  0.00     0.088 A 
ATOM      9  C   UNL d   1      33.239  16.726 -23.747  0.00  0.00     0.135 A 
ATOM     10  N   UNL d   1      33.215  17.340 -24.292  0.00  0.00    -0.236 NA
ATOM     11  C   UNL d   1      33.129  18.844 -24.100  0.00  0.00     0.020 A 
ATOM     12  C   UNL d   1      33.086  19.433 -23.523  0.00  0.00     0.006 A 
ENDBRANCH   1   4
BRANCH   2  13
ATOM     13  C   UNL d   1      32.751  21.191 -21.745  0.00  0.00     0.087 A 
ATOM     14  C   UNL d   1      33.015  21.955 -21.902  0.00  0.00     0.049 A 
ATOM     15  C   UNL d   1      32.972  22.528 -21.322  0.00  0.00     0.142 A 
ATOM     16  F   UNL d   1      33.237  23.302 -21.472  0.00  0.00    -0.204 F 
ATOM     17  C   UNL d   1      32.666  22.343 -20.587  0.00  0.00     0.030 A 
ATOM     18  C   UNL d   1      32.401  21.581 -20.427  0.00  0.00     0.004 A 
ATOM     19  C   UNL d   1      32.443  20.997 -21.013  0.00  0.00     0.019 A 
ENDBRANCH   2  13
TORSDOF 2
ENDMDL
