MODEL 1
REMARK VINA RESULT:      -5.4      0.000      0.000
REMARK  3 active torsions:
REMARK  status: ('A' for Active; 'I' for Inactive)
REMARK    1  A    between atoms: S_2  and  C_1 
REMARK    2  A    between atoms: C_8  and  S_2 
REMARK    3  A    between atoms: C_20  and  C_13 
ROOT
ATOM      1  C   UNL d   1      57.746  -0.585  30.601  0.00  0.00     0.151 A 
ATOM      2  C   UNL d   1      57.759  -0.041  29.969  0.00  0.00     0.311 A 
ATOM      3  C   UNL d   1      58.151  -1.298  30.528  0.00  0.00     0.019 A 
ATOM      4  O   UNL d   1      58.176  -0.221  29.278  0.00  0.00    -0.273 OA
ATOM      5  C   UNL d   1      58.565  -1.481  29.845  0.00  0.00     0.024 A 
ATOM      6  C   UNL d   1      58.578  -0.937  29.213  0.00  0.00     0.103 A 
ATOM      7  O   UNL d   1      57.353   0.682  30.035  0.00  0.00    -0.258 OA
ATOM      8  C   UNL d   1      58.966  -2.191  29.774  0.00  0.00     0.009 A 
ATOM      9  C   UNL d   1      58.991  -1.114  28.524  0.00  0.00     0.025 A 
ATOM     10  C   UNL d   1      59.385  -2.379  29.086  0.00  0.00     0.035 A 
ATOM     11  C   UNL d   1      59.398  -1.834  28.455  0.00  0.00     0.009 A 
ATOM     12 BR   UNL d   1      59.794  -3.106  29.019  0.00  0.00    -0.049 Br
ENDROOT
BRANCH   1  13
ATOM     13  S   UNL d   1      57.328  -0.398  31.288  0.00  0.00     0.215 S 
ATOM     14  O   UNL d   1      57.795   0.276  31.400  0.00  0.00    -0.217 OA
ATOM     15  O   UNL d   1      56.855  -1.076  31.179  0.00  0.00    -0.217 OA
BRANCH  13  16
ATOM     16  C   UNL d   1      56.904  -0.218  31.975  0.00  0.00     0.088 A 
ATOM     17  C   UNL d   1      57.091   0.460  32.417  0.00  0.00     0.011 A 
ATOM     18  C   UNL d   1      56.667   0.637  33.101  0.00  0.00     0.001 A 
ATOM     19  C   UNL d   1      56.055   0.145  33.352  0.00  0.00     0.000 A 
ATOM     20  C   UNL d   1      55.867  -0.530  32.912  0.00  0.00     0.001 A 
ATOM     21  C   UNL d   1      56.290  -0.708  32.229  0.00  0.00     0.011 A 
BRANCH  19  22
ATOM     22  C   UNL d   1      55.630   0.328  34.042  0.00  0.00     0.000 C 
ATOM     23  C   UNL d   1      56.029   0.552  34.717  0.00  0.00     0.000 C 
ATOM     24  C   UNL d   1      54.807   0.282  34.040  0.00  0.00     0.000 C 
ENDBRANCH  19  22
ENDBRANCH  13  16
ENDBRANCH   1  13
TORSDOF 3
ENDMDL
MODEL 2
REMARK VINA RESULT:      -4.6      1.185      1.677
REMARK  3 active torsions:
REMARK  status: ('A' for Active; 'I' for Inactive)
REMARK    1  A    between atoms: S_2  and  C_1 
REMARK    2  A    between atoms: C_8  and  S_2 
REMARK    3  A    between atoms: C_20  and  C_13 
ROOT
ATOM      1  C   UNL d   1      57.399  -0.580  31.182  0.00  0.00     0.151 A 
ATOM      2  C   UNL d   1      57.480  -1.389  30.994  0.00  0.00     0.311 A 
ATOM      3  C   UNL d   1      57.774  -0.017  30.713  0.00  0.00     0.019 A 
ATOM      4  O   UNL d   1      57.934  -1.617  30.342  0.00  0.00    -0.273 OA
ATOM      5  C   UNL d   1      58.225  -0.238  30.066  0.00  0.00     0.024 A 
ATOM      6  C   UNL d   1      58.306  -1.047  29.878  0.00  0.00     0.103 A 
ATOM      7  O   UNL d   1      57.105  -1.964  31.463  0.00  0.00    -0.258 OA
ATOM      8  C   UNL d   1      58.597   0.323  29.601  0.00  0.00     0.009 A 
ATOM      9  C   UNL d   1      58.758  -1.276  29.230  0.00  0.00     0.025 A 
ATOM     10  C   UNL d   1      59.053   0.104  28.947  0.00  0.00     0.035 A 
ATOM     11  C   UNL d   1      59.134  -0.704  28.760  0.00  0.00     0.009 A 
ATOM     12 BR   UNL d   1      59.431   0.682  28.475  0.00  0.00    -0.049 Br
ENDROOT
BRANCH   1  13
ATOM     13  S   UNL d   1      56.943  -0.361  31.835  0.00  0.00     0.215 S 
ATOM     14  O   UNL d   1      56.258  -0.634  31.460  0.00  0.00    -0.217 OA
ATOM     15  O   UNL d   1      57.632  -0.084  32.216  0.00  0.00    -0.217 OA
BRANCH  13  16
ATOM     16  C   UNL d   1      56.495  -0.138  32.493  0.00  0.00     0.088 A 
ATOM     17  C   UNL d   1      55.705  -0.384  32.564  0.00  0.00     0.011 A 
ATOM     18  C   UNL d   1      55.259  -0.161  33.221  0.00  0.00     0.001 A 
ATOM     19  C   UNL d   1      55.594   0.308  33.811  0.00  0.00     0.000 A 
ATOM     20  C   UNL d   1      56.380   0.554  33.742  0.00  0.00     0.001 A 
ATOM     21  C   UNL d   1      56.826   0.331  33.086  0.00  0.00     0.011 A 
BRANCH  19  22
ATOM     22  C   UNL d   1      55.141   0.531  34.471  0.00  0.00     0.000 C 
ATOM     23  C   UNL d   1      55.497   0.605  35.202  0.00  0.00     0.000 C 
ATOM     24  C   UNL d   1      54.334   0.675  34.384  0.00  0.00     0.000 C 
ENDBRANCH  19  22
ENDBRANCH  13  16
ENDBRANCH   1  13
TORSDOF 3
ENDMDL
MODEL 3
REMARK VINA RESULT:      -2.5      1.283      1.573
REMARK  3 active torsions:
REMARK  status: ('A' for Active; 'I' for Inactive)
REMARK    1  A    between atoms: S_2  and  C_1 
REMARK    2  A    between atoms: C_8  and  S_2 
REMARK    3  A    between atoms: C_20  and  C_13 
ROOT
ATOM      1  C   UNL d   1      58.242  -0.606  30.478  0.00  0.00     0.151 A 
ATOM      2  C   UNL d   1      58.241  -1.378  30.162  0.00  0.00     0.311 A 
ATOM      3  C   UNL d   1      58.792  -0.059  30.205  0.00  0.00     0.019 A 
ATOM      4  O   UNL d   1      58.790  -1.586  29.580  0.00  0.00    -0.273 OA
ATOM      5  C   UNL d   1      59.338  -0.260  29.628  0.00  0.00     0.024 A 
ATOM      6  C   UNL d   1      59.337  -1.031  29.312  0.00  0.00     0.103 A 
ATOM      7  O   UNL d   1      57.688  -1.937  30.433  0.00  0.00    -0.258 OA
ATOM      8  C   UNL d   1      59.885   0.287  29.358  0.00  0.00     0.009 A 
ATOM      9  C   UNL d   1      59.883  -1.240  28.733  0.00  0.00     0.025 A 
ATOM     10  C   UNL d   1      60.437   0.088  28.776  0.00  0.00     0.035 A 
ATOM     11  C   UNL d   1      60.436  -0.684  28.460  0.00  0.00     0.009 A 
ATOM     12 BR   UNL d   1      60.993   0.649  28.503  0.00  0.00    -0.049 Br
ENDROOT
BRANCH   1  13
ATOM     13  S   UNL d   1      57.690  -0.407  31.059  0.00  0.00     0.215 S 
ATOM     14  O   UNL d   1      57.546   0.318  30.686  0.00  0.00    -0.217 OA
ATOM     15  O   UNL d   1      57.833  -1.136  31.438  0.00  0.00    -0.217 OA
BRANCH  13  16
ATOM     16  C   UNL d   1      57.139  -0.215  31.646  0.00  0.00     0.088 A 
ATOM     17  C   UNL d   1      57.180  -0.576  32.393  0.00  0.00     0.011 A 
ATOM     18  C   UNL d   1      56.631  -0.384  32.976  0.00  0.00     0.001 A 
ATOM     19  C   UNL d   1      56.036   0.167  32.823  0.00  0.00     0.000 A 
ATOM     20  C   UNL d   1      55.994   0.527  32.080  0.00  0.00     0.001 A 
ATOM     21  C   UNL d   1      56.543   0.335  31.496  0.00  0.00     0.011 A 
BRANCH  19  22
ATOM     22  C   UNL d   1      55.484   0.358  33.413  0.00  0.00     0.000 C 
ATOM     23  C   UNL d   1      55.741   0.633  34.137  0.00  0.00     0.000 C 
ATOM     24  C   UNL d   1      54.678   0.268  33.264  0.00  0.00     0.000 C 
ENDBRANCH  19  22
ENDBRANCH  13  16
ENDBRANCH   1  13
TORSDOF 3
ENDMDL
MODEL 4
REMARK VINA RESULT:      -2.4      1.902      4.807
REMARK  3 active torsions:
REMARK  status: ('A' for Active; 'I' for Inactive)
REMARK    1  A    between atoms: S_2  and  C_1 
REMARK    2  A    between atoms: C_8  and  S_2 
REMARK    3  A    between atoms: C_20  and  C_13 
ROOT
ATOM      1  C   UNL d   1      57.047  -0.708  31.633  0.00  0.00     0.151 A 
ATOM      2  C   UNL d   1      56.607  -1.416  31.611  0.00  0.00     0.311 A 
ATOM      3  C   UNL d   1      56.898  -0.158  32.227  0.00  0.00     0.019 A 
ATOM      4  O   UNL d   1      56.027  -1.559  32.182  0.00  0.00    -0.273 OA
ATOM      5  C   UNL d   1      56.324  -0.295  32.795  0.00  0.00     0.024 A 
ATOM      6  C   UNL d   1      55.884  -1.003  32.773  0.00  0.00     0.103 A 
ATOM      7  O   UNL d   1      56.751  -1.977  31.014  0.00  0.00    -0.258 OA
ATOM      8  C   UNL d   1      56.177   0.253  33.385  0.00  0.00     0.009 A 
ATOM      9  C   UNL d   1      55.306  -1.147  33.341  0.00  0.00     0.025 A 
ATOM     10  C   UNL d   1      55.599   0.119  33.960  0.00  0.00     0.035 A 
ATOM     11  C   UNL d   1      55.159  -0.590  33.938  0.00  0.00     0.009 A 
ATOM     12 BR   UNL d   1      55.453   0.682  34.561  0.00  0.00    -0.049 Br
ENDROOT
BRANCH   1  13
ATOM     13  S   UNL d   1      57.624  -0.573  31.058  0.00  0.00     0.215 S 
ATOM     14  O   UNL d   1      57.211   0.090  30.786  0.00  0.00    -0.217 OA
ATOM     15  O   UNL d   1      58.044  -1.241  31.329  0.00  0.00    -0.217 OA
BRANCH  13  16
ATOM     16  C   UNL d   1      58.208  -0.445  30.486  0.00  0.00     0.088 A 
ATOM     17  C   UNL d   1      58.375  -1.031  29.921  0.00  0.00     0.011 A 
ATOM     18  C   UNL d   1      58.957  -0.902  29.351  0.00  0.00     0.001 A 
ATOM     19  C   UNL d   1      59.376  -0.191  29.337  0.00  0.00     0.000 A 
ATOM     20  C   UNL d   1      59.210   0.392  29.899  0.00  0.00     0.001 A 
ATOM     21  C   UNL d   1      58.629   0.264  30.468  0.00  0.00     0.011 A 
BRANCH  19  22
ATOM     22  C   UNL d   1      59.961  -0.065  28.761  0.00  0.00     0.000 C 
ATOM     23  C   UNL d   1      60.077   0.682  28.455  0.00  0.00     0.000 C 
ATOM     24  C   UNL d   1      60.422  -0.698  28.501  0.00  0.00     0.000 C 
ENDBRANCH  19  22
ENDBRANCH  13  16
ENDBRANCH   1  13
TORSDOF 3
ENDMDL
