MODEL 1
REMARK VINA RESULT:      60.4      0.000      0.000
REMARK  7 active torsions:
REMARK  status: ('A' for Active; 'I' for Inactive)
REMARK    1  A    between atoms: N_9  and  C_1 
REMARK    2  A    between atoms: C_10  and  C_2 
REMARK    3  A    between atoms: C_5  and  S_14 
REMARK       I    between atoms: C_13  and  N_9 
REMARK    4  A    between atoms: O_18  and  C_10 
REMARK    5  A    between atoms: C_17  and  C_13 
REMARK    6  A    between atoms: S_14  and  C_17 
REMARK    7  A    between atoms: C_23  and  O_18 
ROOT
ATOM      1  N   UNL d   1     -55.801-101.545 -42.491  0.00  0.00    -0.201 NA
ATOM      2  C   UNL d   1     -55.340-102.083 -42.057  0.00  0.00     0.286 C 
ATOM      3  O   UNL d   1     -54.711-102.481 -42.436  0.00  0.00    -0.265 OA
ENDROOT
BRANCH   1   4
ATOM      4  C   UNL d   1     -55.640-101.404 -43.288  0.00  0.00     0.119 A 
ATOM      5  C   UNL d   1     -55.870-100.736 -43.712  0.00  0.00     0.088 A 
ATOM      6  C   UNL d   1     -55.592-100.828 -44.484  0.00  0.00     0.013 A 
ATOM      7  C   UNL d   1     -55.697-100.288 -45.100  0.00  0.00     0.001 C 
ATOM      8  C   UNL d   1     -55.193-101.548 -44.535  0.00  0.00     0.031 A 
ATOM      9  S   UNL d   1     -55.225-101.905 -43.788  0.00  0.00    -0.068 SA
ATOM     10  C   UNL d   1     -54.833-101.854 -45.201  0.00  0.00     0.007 C 
BRANCH   5  11
ATOM     11  C   UNL d   1     -56.300-100.091 -43.422  0.00  0.00     0.302 C 
ATOM     12  O   UNL d   1     -55.931 -99.537 -42.948  0.00  0.00    -0.259 OA
BRANCH  11  13
ATOM     13  O   UNL d   1     -57.097-100.018 -43.618  0.00  0.00    -0.271 OA
BRANCH  13  14
ATOM     14  C   UNL d   1     -57.351 -99.420 -44.123  0.00  0.00     0.126 C 
ATOM     15  C   UNL d   1     -57.754 -98.759 -43.823  0.00  0.00     0.029 C 
ENDBRANCH  13  14
ENDBRANCH  11  13
ENDBRANCH   5  11
ENDBRANCH   1   4
BRANCH   2  16
ATOM     16  C   UNL d   1     -55.501-102.224 -41.260  0.00  0.00     0.100 C 
BRANCH  16  17
ATOM     17  S   UNL d   1     -54.894-102.455 -40.747  0.00  0.00    -0.056 SA
BRANCH  17  18
ATOM     18  C   UNL d   1     -54.975-102.344 -39.925  0.00  0.00     0.141 A 
ATOM     19  N   UNL d   1     -55.335-102.878 -39.403  0.00  0.00    -0.232 NA
ATOM     20  C   UNL d   1     -55.295-102.547 -38.637  0.00  0.00     0.088 A 
ATOM     21  C   UNL d   1     -55.555-102.817 -37.904  0.00  0.00     0.020 A 
ATOM     22  C   UNL d   1     -54.909-101.811 -38.697  0.00  0.00     0.049 A 
ATOM     23  C   UNL d   1     -55.434-102.358 -37.231  0.00  0.00     0.002 A 
ATOM     24  C   UNL d   1     -55.048-101.622 -37.292  0.00  0.00     0.001 A 
ATOM     25  C   UNL d   1     -54.787-101.352 -38.025  0.00  0.00     0.008 A 
ATOM     26  S   UNL d   1     -54.713-101.692 -39.501  0.00  0.00    -0.060 SA
ENDBRANCH  17  18
ENDBRANCH  16  17
ENDBRANCH   2  16
TORSDOF 7
ENDMDL
MODEL 2
REMARK VINA RESULT:      62.5      1.327      1.932
REMARK  7 active torsions:
REMARK  status: ('A' for Active; 'I' for Inactive)
REMARK    1  A    between atoms: N_9  and  C_1 
REMARK    2  A    between atoms: C_10  and  C_2 
REMARK    3  A    between atoms: C_5  and  S_14 
REMARK       I    between atoms: C_13  and  N_9 
REMARK    4  A    between atoms: O_18  and  C_10 
REMARK    5  A    between atoms: C_17  and  C_13 
REMARK    6  A    between atoms: S_14  and  C_17 
REMARK    7  A    between atoms: C_23  and  O_18 
ROOT
ATOM      1  N   UNL d   1     -55.444-100.898 -43.414  0.00  0.00    -0.201 NA
ATOM      2  C   UNL d   1     -55.437-101.681 -43.691  0.00  0.00     0.286 C 
ATOM      3  O   UNL d   1     -55.484-101.824 -44.512  0.00  0.00    -0.265 OA
ENDROOT
BRANCH   1   4
ATOM      4  C   UNL d   1     -55.497-100.268 -43.943  0.00  0.00     0.119 A 
ATOM      5  C   UNL d   1     -56.190 -99.873 -44.151  0.00  0.00     0.088 A 
ATOM      6  C   UNL d   1     -55.985 -99.285 -44.692  0.00  0.00     0.013 A 
ATOM      7  C   UNL d   1     -56.509 -98.755 -45.047  0.00  0.00     0.001 C 
ATOM      8  C   UNL d   1     -55.170 -99.317 -44.818  0.00  0.00     0.031 A 
ATOM      9  S   UNL d   1     -54.869 -99.930 -44.350  0.00  0.00    -0.068 SA
ATOM     10  C   UNL d   1     -54.739 -98.832 -45.314  0.00  0.00     0.007 C 
BRANCH   5  11
ATOM     11  C   UNL d   1     -56.952-100.033 -43.871  0.00  0.00     0.302 C 
ATOM     12  O   UNL d   1     -57.176-100.805 -43.722  0.00  0.00    -0.259 OA
BRANCH  11  13
ATOM     13  O   UNL d   1     -57.475 -99.408 -43.746  0.00  0.00    -0.271 OA
BRANCH  13  14
ATOM     14  C   UNL d   1     -58.272 -99.551 -43.601  0.00  0.00     0.126 C 
ATOM     15  C   UNL d   1     -58.749 -98.963 -43.263  0.00  0.00     0.029 C 
ENDBRANCH  13  14
ENDBRANCH  11  13
ENDBRANCH   5  11
ENDBRANCH   1   4
BRANCH   2  16
ATOM     16  C   UNL d   1     -55.385-102.312 -43.162  0.00  0.00     0.100 C 
BRANCH  16  17
ATOM     17  S   UNL d   1     -54.711-102.403 -42.688  0.00  0.00    -0.056 SA
BRANCH  17  18
ATOM     18  C   UNL d   1     -54.759-102.283 -41.865  0.00  0.00     0.141 A 
ATOM     19  N   UNL d   1     -54.811-101.545 -41.490  0.00  0.00    -0.232 NA
ATOM     20  C   UNL d   1     -54.847-101.683 -40.666  0.00  0.00     0.088 A 
ATOM     21  C   UNL d   1     -54.903-101.172 -40.023  0.00  0.00     0.020 A 
ATOM     22  C   UNL d   1     -54.816-102.506 -40.545  0.00  0.00     0.049 A 
ATOM     23  C   UNL d   1     -54.928-101.478 -39.259  0.00  0.00     0.002 A 
ATOM     24  C   UNL d   1     -54.898-102.301 -39.137  0.00  0.00     0.001 A 
ATOM     25  C   UNL d   1     -54.842-102.812 -39.781  0.00  0.00     0.008 A 
ATOM     26  S   UNL d   1     -54.762-102.872 -41.294  0.00  0.00    -0.060 SA
ENDBRANCH  17  18
ENDBRANCH  16  17
ENDBRANCH   2  16
TORSDOF 7
ENDMDL
