MODEL 1
REMARK VINA RESULT:      27.1      0.000      0.000
REMARK  5 active torsions:
REMARK  status: ('A' for Active; 'I' for Inactive)
REMARK    1  A    between atoms: C_7  and  C_1 
REMARK    2  A    between atoms: C_13  and  C_2 
REMARK    3  A    between atoms: C_12  and  N_3 
REMARK    4  A    between atoms: C_4  and  C_7 
REMARK    5  A    between atoms: O_17  and  C_13 
ROOT
ATOM      1  N   UNL d   1      45.549 -15.434  44.005  0.00  0.00    -0.305 N 
ATOM      2  C   UNL d   1      45.977 -16.648  43.653  0.00  0.00     0.018 A 
ATOM      3  C   UNL d   1      45.107 -15.986  44.418  0.00  0.00     0.064 A 
ATOM      4  C   UNL d   1      46.091 -15.836  43.529  0.00  0.00     0.064 A 
ATOM      5  C   UNL d   1      45.374 -16.746  44.198  0.00  0.00     0.019 A 
ATOM      6  C   UNL d   1      44.505 -15.826  44.954  0.00  0.00     0.019 C 
ATOM      7  C   UNL d   1      46.646 -15.495  43.021  0.00  0.00     0.019 C 
ENDROOT
BRANCH   2   8
ATOM      8  C   UNL d   1      46.400 -17.260  43.290  0.00  0.00     0.006 C 
BRANCH   8   9
ATOM      9  C   UNL d   1      46.265 -18.039  43.506  0.00  0.00     0.065 A 
ATOM     10  C   UNL d   1      46.079 -18.657  42.991  0.00  0.00     0.086 A 
ATOM     11  C   UNL d   1      45.990 -19.348  43.442  0.00  0.00     0.090 A 
ATOM     12  C   UNL d   1      45.805 -20.089  43.147  0.00  0.00     0.021 C 
ATOM     13  N   UNL d   1      46.121 -19.158  44.233  0.00  0.00    -0.208 NA
ATOM     14  C   UNL d   1      46.292 -18.346  44.276  0.00  0.00     0.279 A 
ATOM     15  O   UNL d   1      46.458 -17.919  44.955  0.00  0.00    -0.265 OA
BRANCH  10  16
ATOM     16  C   UNL d   1      45.996 -18.601  42.173  0.00  0.00     0.297 C 
ATOM     17  O   UNL d   1      45.258 -18.425  41.836  0.00  0.00    -0.259 OA
BRANCH  16  18
ATOM     18  O   UNL d   1      46.646 -18.719  41.673  0.00  0.00    -0.296 OA
ATOM     19  C   UNL d   1      46.546 -18.764  40.856  0.00  0.00     0.185 C 
ENDBRANCH  16  18
ENDBRANCH  10  16
ENDBRANCH   8   9
ENDBRANCH   2   8
BRANCH   1  20
ATOM     20  C   UNL d   1      45.461 -14.615  44.062  0.00  0.00     0.092 A 
ATOM     21  C   UNL d   1      45.961 -14.183  44.531  0.00  0.00     0.156 A 
ATOM     22  F   UNL d   1      46.559 -14.559  44.955  0.00  0.00    -0.203 F 
ATOM     23  C   UNL d   1      45.875 -13.356  44.591  0.00  0.00     0.031 A 
ATOM     24  C   UNL d   1      45.268 -12.985  44.159  0.00  0.00     0.002 A 
ATOM     25  C   UNL d   1      44.763 -13.432  43.683  0.00  0.00     0.002 A 
ATOM     26  C   UNL d   1      44.860 -14.247  43.634  0.00  0.00     0.020 A 
ENDBRANCH   1  20
TORSDOF 5
ENDMDL
