MODEL 1
REMARK VINA RESULT:       6.3      0.000      0.000
REMARK  6 active torsions:
REMARK  status: ('A' for Active; 'I' for Inactive)
REMARK    1  A    between atoms: C_17  and  N_1 
REMARK    2  A    between atoms: N_9  and  C_8 
REMARK    3  A    between atoms: C_11  and  O_21 
REMARK    4  A    between atoms: C_15  and  C_11 
REMARK    5  A    between atoms: C_30  and  C_17 
REMARK    6  A    between atoms: O_21  and  C_30 
ROOT
ATOM      1  N   UNL d   1     -41.386-122.272 -51.929  0.00  0.00    -0.238 N 
ATOM      2  C   UNL d   1     -41.556-123.000 -51.585  0.00  0.00     0.267 A 
ATOM      3  C   UNL d   1     -41.302-121.593 -51.472  0.00  0.00     0.267 A 
ATOM      4  C   UNL d   1     -41.647-123.051 -50.747  0.00  0.00     0.057 A 
ATOM      5  C   UNL d   1     -41.564-122.372 -50.285  0.00  0.00     0.011 A 
ATOM      6  C   UNL d   1     -41.391-121.643 -50.655  0.00  0.00     0.057 A 
ATOM      7  C   UNL d   1     -41.652-122.421 -49.479  0.00  0.00     0.016 A 
ATOM      8  C   UNL d   1     -41.823-123.149 -49.125  0.00  0.00     0.064 A 
ATOM      9  C   UNL d   1     -41.816-123.768 -50.397  0.00  0.00     0.006 A 
ATOM     10  C   UNL d   1     -41.904-123.817 -49.591  0.00  0.00     0.018 A 
ATOM     11  O   UNL d   1     -41.123-120.819 -51.812  0.00  0.00    -0.267 OA
ATOM     12  O   UNL d   1     -41.635-123.666 -52.067  0.00  0.00    -0.267 OA
ATOM     13  C   UNL d   1     -41.305-120.949 -50.197  0.00  0.00     0.005 A 
ATOM     14  C   UNL d   1     -41.569-121.742 -49.012  0.00  0.00     0.002 A 
ATOM     15  C   UNL d   1     -41.395-120.999 -49.365  0.00  0.00     0.000 A 
ENDROOT
BRANCH   1  16
ATOM     16  C   UNL d   1     -41.295-122.221 -52.767  0.00  0.00     0.113 C 
BRANCH  16  17
ATOM     17  C   UNL d   1     -41.231-122.912 -53.214  0.00  0.00     0.145 C 
BRANCH  17  18
ATOM     18  O   UNL d   1     -41.125-122.863 -54.017  0.00  0.00    -0.269 OA
BRANCH  18  19
ATOM     19  C   UNL d   1     -41.729-123.077 -54.518  0.00  0.00     0.300 C 
ATOM     20  O   UNL d   1     -42.162-123.763 -54.387  0.00  0.00    -0.259 OA
BRANCH  19  21
ATOM     21  C   UNL d   1     -41.911-122.602 -55.164  0.00  0.00     0.064 A 
ATOM     22  C   UNL d   1     -41.369-122.038 -55.416  0.00  0.00     0.006 A 
ATOM     23  C   UNL d   1     -41.556-121.550 -56.080  0.00  0.00     0.012 A 
ATOM     24  C   UNL d   1     -42.278-121.646 -56.466  0.00  0.00     0.058 A 
ATOM     25  C   UNL d   1     -42.810-122.208 -56.210  0.00  0.00     0.012 A 
ATOM     26 CL   UNL d   1     -42.457-121.177 -57.104  0.00  0.00    -0.082 Cl
ATOM     27  C   UNL d   1     -42.629-122.680 -55.567  0.00  0.00     0.006 A 
ENDBRANCH  19  21
ENDBRANCH  18  19
ENDBRANCH  17  18
ENDBRANCH  16  17
ENDBRANCH   1  16
BRANCH   8  28
ATOM     28  N   UNL d   1     -41.913-123.199 -48.298  0.00  0.00    -0.300 N 
ATOM     29  C   UNL d   1     -41.295-123.461 -47.835  0.00  0.00     0.107 A 
ATOM     30  C   UNL d   1     -41.383-123.511 -47.024  0.00  0.00     0.142 A 
ATOM     31  O   UNL d   1     -42.089-123.298 -46.676  0.00  0.00    -0.300 OA
ATOM     32  C   UNL d   1     -42.718-123.032 -47.140  0.00  0.00     0.142 A 
ATOM     33  C   UNL d   1     -42.630-122.983 -47.951  0.00  0.00     0.107 A 
ENDBRANCH   8  28
TORSDOF 6
ENDMDL
MODEL 2
REMARK VINA RESULT:       6.4      1.009      1.446
REMARK  6 active torsions:
REMARK  status: ('A' for Active; 'I' for Inactive)
REMARK    1  A    between atoms: C_17  and  N_1 
REMARK    2  A    between atoms: N_9  and  C_8 
REMARK    3  A    between atoms: C_11  and  O_21 
REMARK    4  A    between atoms: C_15  and  C_11 
REMARK    5  A    between atoms: C_30  and  C_17 
REMARK    6  A    between atoms: O_21  and  C_30 
ROOT
ATOM      1  N   UNL d   1     -42.314-122.084 -51.813  0.00  0.00    -0.238 N 
ATOM      2  C   UNL d   1     -42.886-121.839 -51.274  0.00  0.00     0.267 A 
ATOM      3  C   UNL d   1     -41.733-122.628 -51.601  0.00  0.00     0.267 A 
ATOM      4  C   UNL d   1     -42.876-122.150 -50.490  0.00  0.00     0.057 A 
ATOM      5  C   UNL d   1     -42.296-122.695 -50.273  0.00  0.00     0.011 A 
ATOM      6  C   UNL d   1     -41.725-122.931 -50.836  0.00  0.00     0.057 A 
ATOM      7  C   UNL d   1     -42.287-122.995 -49.518  0.00  0.00     0.016 A 
ATOM      8  C   UNL d   1     -42.859-122.753 -48.970  0.00  0.00     0.064 A 
ATOM      9  C   UNL d   1     -43.439-121.913 -49.949  0.00  0.00     0.006 A 
ATOM     10  C   UNL d   1     -43.431-122.212 -49.194  0.00  0.00     0.018 A 
ATOM     11  O   UNL d   1     -41.124-122.899 -52.150  0.00  0.00    -0.267 OA
ATOM     12  O   UNL d   1     -43.457-121.292 -51.513  0.00  0.00    -0.267 OA
ATOM     13  C   UNL d   1     -41.132-123.483 -50.628  0.00  0.00     0.005 A 
ATOM     14  C   UNL d   1     -41.707-123.542 -49.297  0.00  0.00     0.002 A 
ATOM     15  C   UNL d   1     -41.123-123.792 -49.848  0.00  0.00     0.000 A 
ENDROOT
BRANCH   1  16
ATOM     16  C   UNL d   1     -42.323-121.773 -52.597  0.00  0.00     0.113 C 
BRANCH  16  17
ATOM     17  C   UNL d   1     -42.146-122.266 -53.235  0.00  0.00     0.145 C 
BRANCH  17  18
ATOM     18  O   UNL d   1     -41.930-121.941 -53.947  0.00  0.00    -0.269 OA
BRANCH  18  19
ATOM     19  C   UNL d   1     -41.918-122.405 -54.615  0.00  0.00     0.300 C 
ATOM     20  O   UNL d   1     -41.871-123.223 -54.560  0.00  0.00    -0.259 OA
BRANCH  19  21
ATOM     21  C   UNL d   1     -41.955-122.052 -55.358  0.00  0.00     0.064 A 
ATOM     22  C   UNL d   1     -41.264-121.957 -55.793  0.00  0.00     0.006 A 
ATOM     23  C   UNL d   1     -41.301-121.594 -56.555  0.00  0.00     0.012 A 
ATOM     24  C   UNL d   1     -42.028-121.342 -56.852  0.00  0.00     0.058 A 
ATOM     25  C   UNL d   1     -42.708-121.440 -56.413  0.00  0.00     0.012 A 
ATOM     26 CL   UNL d   1     -42.063-120.993 -57.584  0.00  0.00    -0.082 Cl
ATOM     27  C   UNL d   1     -42.672-121.790 -55.675  0.00  0.00     0.006 A 
ENDBRANCH  19  21
ENDBRANCH  18  19
ENDBRANCH  17  18
ENDBRANCH  16  17
ENDBRANCH   1  16
BRANCH   8  28
ATOM     28  N   UNL d   1     -42.850-123.060 -48.196  0.00  0.00    -0.300 N 
ATOM     29  C   UNL d   1     -42.216-122.911 -47.704  0.00  0.00     0.107 A 
ATOM     30  C   UNL d   1     -42.207-123.213 -46.945  0.00  0.00     0.142 A 
ATOM     31  O   UNL d   1     -42.832-123.664 -46.676  0.00  0.00    -0.300 OA
ATOM     32  C   UNL d   1     -43.476-123.817 -47.170  0.00  0.00     0.142 A 
ATOM     33  C   UNL d   1     -43.485-123.516 -47.929  0.00  0.00     0.107 A 
ENDBRANCH   8  28
TORSDOF 6
ENDMDL
