MODEL 1
REMARK VINA RESULT:      41.9      0.000      0.000
REMARK  3 active torsions:
REMARK  status: ('A' for Active; 'I' for Inactive)
REMARK    1  A    between atoms: C_6  and  C_1 
REMARK    2  A    between atoms: O_18  and  C_11 
REMARK    3  A    between atoms: O_19  and  C_13 
ROOT
ATOM      1  C   UNL d   1      59.424  49.610  50.536  0.00  0.00     0.064 A 
ATOM      2  C   UNL d   1      58.661  49.496  50.845  0.00  0.00     0.199 A 
ATOM      3  C   UNL d   1      58.010  49.478  50.342  0.00  0.00     0.062 A 
ATOM      4  C   UNL d   1      59.527  49.706  49.723  0.00  0.00     0.126 A 
ATOM      5  C   UNL d   1      58.113  49.574  49.529  0.00  0.00     0.106 A 
ATOM      6  O   UNL d   1      58.867  49.688  49.219  0.00  0.00    -0.305 OA
ATOM      7  C   UNL d   1      57.256  49.365  50.651  0.00  0.00     0.009 A 
ATOM      8  C   UNL d   1      57.461  49.557  49.025  0.00  0.00     0.067 A 
ATOM      9  O   UNL d   1      58.559  49.400  51.657  0.00  0.00    -0.286 OA
ATOM     10  C   UNL d   1      56.708  49.443  49.336  0.00  0.00     0.198 A 
ATOM     11  C   UNL d   1      56.605  49.348  50.149  0.00  0.00     0.042 A 
ATOM     12  O   UNL d   1      56.044  49.425  48.830  0.00  0.00    -0.286 OA
ENDROOT
BRANCH   1  13
ATOM     13  C   UNL d   1      60.075  49.628  51.039  0.00  0.00     0.007 A 
ATOM     14  C   UNL d   1      59.966  49.620  51.859  0.00  0.00     0.026 A 
ATOM     15  C   UNL d   1      60.617  49.637  52.362  0.00  0.00     0.116 A 
ATOM     16  C   UNL d   1      61.380  49.663  52.049  0.00  0.00     0.116 A 
ATOM     17  C   UNL d   1      61.490  49.671  51.229  0.00  0.00     0.026 A 
ATOM     18  C   UNL d   1      60.838  49.653  50.726  0.00  0.00     0.002 A 
BRANCH  15  19
ATOM     19  O   UNL d   1      60.506  49.629  53.177  0.00  0.00    -0.326 OA
ATOM     20  C   UNL d   1      59.744  49.668  53.491  0.00  0.00     0.181 C 
ENDBRANCH  15  19
BRANCH  16  21
ATOM     21  O   UNL d   1      62.040  49.681  52.548  0.00  0.00    -0.326 OA
ATOM     22  C   UNL d   1      62.803  49.658  52.222  0.00  0.00     0.181 C 
ENDBRANCH  16  21
ENDBRANCH   1  13
TORSDOF 3
ENDMDL
