MODEL 1
REMARK VINA RESULT:       0.1      0.000      0.000
REMARK  4 active torsions:
REMARK  status: ('A' for Active; 'I' for Inactive)
REMARK    1  A    between atoms: N_10  and  C_3 
REMARK    2  A    between atoms: C_12  and  C_5 
REMARK    3  A    between atoms: C_15  and  C_9 
REMARK    4  A    between atoms: C_19  and  N_11 
ROOT
ATOM      1  N   UNL d   1      58.034   0.287  31.196  0.00  0.00    -0.196 N 
ATOM      2  C   UNL d   1      58.709   0.232  30.718  0.00  0.00     0.167 A 
ATOM      3  C   UNL d   1      58.122   0.451  31.990  0.00  0.00     0.152 A 
ATOM      4  N   UNL d   1      57.214   0.012  30.070  0.00  0.00    -0.163 NA
ATOM      5  C   UNL d   1      58.632   0.071  29.932  0.00  0.00     0.055 A 
ATOM      6  N   UNL d   1      59.447   0.344  31.051  0.00  0.00    -0.227 NA
ATOM      7  C   UNL d   1      58.888   0.564  32.324  0.00  0.00     0.057 A 
ATOM      8  C   UNL d   1      57.889  -0.043  29.592  0.00  0.00     0.104 A 
ATOM      9  C   UNL d   1      59.527   0.506  31.841  0.00  0.00     0.086 A 
ATOM     10  C   UNL d   1      57.813  -0.203  28.809  0.00  0.00     0.023 C 
ENDROOT
BRANCH   3  11
ATOM     11  N   UNL d   1      57.433   0.507  32.484  0.00  0.00    -0.286 N 
ATOM     12  C   UNL d   1      56.639   0.563  32.185  0.00  0.00     0.101 A 
ATOM     13  C   UNL d   1      55.988   0.617  32.719  0.00  0.00     0.100 A 
ATOM     14  N   UNL d   1      56.121   0.617  33.560  0.00  0.00    -0.300 N 
ATOM     15  C   UNL d   1      56.921   0.561  33.859  0.00  0.00     0.100 A 
ATOM     16  C   UNL d   1      57.572   0.507  33.326  0.00  0.00     0.101 A 
BRANCH  14  17
ATOM     17  C   UNL d   1      55.467   0.671  34.096  0.00  0.00     0.080 C 
ATOM     18  C   UNL d   1      54.680   0.619  33.809  0.00  0.00     0.021 C 
ENDBRANCH  14  17
ENDBRANCH   3  11
BRANCH   9  19
ATOM     19  C   UNL d   1      60.306   0.623  32.186  0.00  0.00     0.018 C 
ATOM     20  C   UNL d   1      60.383   0.679  33.043  0.00  0.00     0.002 C 
ATOM     21  C   UNL d   1      60.997   0.682  31.683  0.00  0.00     0.002 C 
ENDBRANCH   9  19
BRANCH   5  22
ATOM     22  C   UNL d   1      59.313   0.016  29.449  0.00  0.00     0.004 A 
ATOM     23  C   UNL d   1      59.601   0.682  29.076  0.00  0.00     0.000 A 
ATOM     24  C   UNL d   1      60.272   0.628  28.600  0.00  0.00     0.000 A 
ATOM     25  C   UNL d   1      60.641  -0.092  28.507  0.00  0.00     0.000 A 
ATOM     26  C   UNL d   1      60.347  -0.761  28.886  0.00  0.00     0.000 A 
ATOM     27  C   UNL d   1      59.686  -0.699  29.353  0.00  0.00     0.000 A 
ENDBRANCH   5  22
TORSDOF 4
ENDMDL
MODEL 2
REMARK VINA RESULT:       1.5      1.142      2.420
REMARK  4 active torsions:
REMARK  status: ('A' for Active; 'I' for Inactive)
REMARK    1  A    between atoms: N_10  and  C_3 
REMARK    2  A    between atoms: C_12  and  C_5 
REMARK    3  A    between atoms: C_15  and  C_9 
REMARK    4  A    between atoms: C_19  and  N_11 
ROOT
ATOM      1  N   UNL d   1      58.402  -0.310  31.056  0.00  0.00    -0.196 N 
ATOM      2  C   UNL d   1      58.903  -0.458  30.412  0.00  0.00     0.167 A 
ATOM      3  C   UNL d   1      57.659  -0.647  31.067  0.00  0.00     0.152 A 
ATOM      4  N   UNL d   1      59.404   0.503  31.648  0.00  0.00    -0.163 NA
ATOM      5  C   UNL d   1      59.638  -0.129  30.392  0.00  0.00     0.055 A 
ATOM      6  N   UNL d   1      58.643  -0.938  29.803  0.00  0.00    -0.227 NA
ATOM      7  C   UNL d   1      57.401  -1.140  30.434  0.00  0.00     0.057 A 
ATOM      8  C   UNL d   1      59.905   0.355  31.005  0.00  0.00     0.104 A 
ATOM      9  C   UNL d   1      57.904  -1.269  29.821  0.00  0.00     0.086 A 
ATOM     10  C   UNL d   1      60.637   0.682  30.983  0.00  0.00     0.023 C 
ENDROOT
BRANCH   3  11
ATOM     11  N   UNL d   1      57.143  -0.497  31.725  0.00  0.00    -0.286 N 
ATOM     12  C   UNL d   1      56.930  -1.083  32.304  0.00  0.00     0.101 A 
ATOM     13  C   UNL d   1      56.413  -0.881  32.939  0.00  0.00     0.100 A 
ATOM     14  N   UNL d   1      56.100  -0.093  33.005  0.00  0.00    -0.300 N 
ATOM     15  C   UNL d   1      56.315   0.496  32.422  0.00  0.00     0.100 A 
ATOM     16  C   UNL d   1      56.832   0.295  31.787  0.00  0.00     0.101 A 
BRANCH  14  17
ATOM     17  C   UNL d   1      55.580   0.109  33.644  0.00  0.00     0.080 C 
ATOM     18  C   UNL d   1      55.869   0.544  34.302  0.00  0.00     0.021 C 
ENDBRANCH  14  17
ENDBRANCH   3  11
BRANCH   9  19
ATOM     19  C   UNL d   1      57.636  -1.773  29.178  0.00  0.00     0.018 C 
ATOM     20  C   UNL d   1      57.268  -1.413  28.485  0.00  0.00     0.002 C 
ATOM     21  C   UNL d   1      57.732  -2.623  29.225  0.00  0.00     0.002 C 
ENDBRANCH   9  19
BRANCH   5  22
ATOM     22  C   UNL d   1      60.144  -0.279  29.742  0.00  0.00     0.004 A 
ATOM     23  C   UNL d   1      60.164   0.242  29.115  0.00  0.00     0.000 A 
ATOM     24  C   UNL d   1      60.663   0.095  28.474  0.00  0.00     0.000 A 
ATOM     25  C   UNL d   1      61.131  -0.571  28.475  0.00  0.00     0.000 A 
ATOM     26  C   UNL d   1      61.107  -1.094  29.111  0.00  0.00     0.000 A 
ATOM     27  C   UNL d   1      60.614  -0.941  29.738  0.00  0.00     0.000 A 
ENDBRANCH   5  22
TORSDOF 4
ENDMDL
