MODEL 1
REMARK VINA RESULT:       1.9      0.000      0.000
REMARK  7 active torsions:
REMARK  status: ('A' for Active; 'I' for Inactive)
REMARK    1  A    between atoms: C_11  and  C_1 
REMARK    2  A    between atoms: C_12  and  C_3 
REMARK    3  A    between atoms: C_10  and  C_5 
REMARK    4  A    between atoms: O_21  and  C_11 
REMARK    5  A    between atoms: O_22  and  C_12 
REMARK    6  A    between atoms: O_23  and  C_14 
REMARK    7  A    between atoms: O_24  and  C_17 
ROOT
ATOM      1  C   UNL d   1      30.447  17.362 -24.054  0.00  0.00     0.075 A 
ATOM      2  C   UNL d   1      31.236  16.046 -23.465  0.00  0.00     0.121 A 
ATOM      3  C   UNL d   1      30.031  16.669 -23.872  0.00  0.00     0.099 A 
ATOM      4  C   UNL d   1      31.659  16.734 -23.644  0.00  0.00     0.058 A 
ATOM      5  C   UNL d   1      31.256  17.394 -23.940  0.00  0.00     0.014 A 
ATOM      6  S   UNL d   1      30.427  16.014 -23.578  0.00  0.00    -0.062 SA
ATOM      7  N   UNL d   1      31.777  15.491 -23.185  0.00  0.00    -0.195 NA
ATOM      8  C   UNL d   1      32.524  15.827 -23.189  0.00  0.00     0.311 A 
ATOM      9  S   UNL d   1      32.454  16.599 -23.473  0.00  0.00    -0.024 SA
ATOM     10  O   UNL d   1      33.228  15.466 -22.952  0.00  0.00    -0.258 OA
ENDROOT
BRANCH   5  11
ATOM     11  C   UNL d   1      31.678  18.079 -24.118  0.00  0.00     0.003 A 
ATOM     12  C   UNL d   1      31.911  18.583 -23.520  0.00  0.00     0.026 A 
ATOM     13  C   UNL d   1      32.333  19.268 -23.703  0.00  0.00     0.116 A 
ATOM     14  C   UNL d   1      32.518  19.440 -24.489  0.00  0.00     0.116 A 
ATOM     15  C   UNL d   1      32.280  18.927 -25.090  0.00  0.00     0.026 A 
ATOM     16  C   UNL d   1      31.862  18.249 -24.907  0.00  0.00     0.002 A 
BRANCH  13  17
ATOM     17  O   UNL d   1      32.570  19.779 -23.100  0.00  0.00    -0.326 OA
ATOM     18  C   UNL d   1      32.880  19.471 -22.397  0.00  0.00     0.181 C 
ENDBRANCH  13  17
BRANCH  14  19
ATOM     19  O   UNL d   1      32.942  20.127 -24.673  0.00  0.00    -0.326 OA
ATOM     20  C   UNL d   1      32.561  20.759 -25.038  0.00  0.00     0.181 C 
ENDBRANCH  14  19
ENDBRANCH   5  11
BRANCH   1  21
ATOM     21  C   UNL d   1      30.047  18.018 -24.348  0.00  0.00     0.296 C 
ATOM     22  O   UNL d   1      30.235  18.318 -25.094  0.00  0.00    -0.259 OA
BRANCH  21  23
ATOM     23  O   UNL d   1      29.456  18.377 -23.898  0.00  0.00    -0.296 OA
ATOM     24  C   UNL d   1      29.043  19.018 -24.206  0.00  0.00     0.185 C 
ENDBRANCH  21  23
ENDBRANCH   1  21
BRANCH   3  25
ATOM     25  C   UNL d   1      29.221  16.637 -23.985  0.00  0.00     0.302 C 
ATOM     26  O   UNL d   1      28.705  16.902 -23.400  0.00  0.00    -0.259 OA
BRANCH  25  27
ATOM     27  O   UNL d   1      28.916  16.337 -24.691  0.00  0.00    -0.295 OA
ATOM     28  C   UNL d   1      28.156  16.014 -24.704  0.00  0.00     0.185 C 
ENDBRANCH  25  27
ENDBRANCH   3  25
TORSDOF 7
ENDMDL
MODEL 2
REMARK VINA RESULT:       3.9      2.975      5.423
REMARK  7 active torsions:
REMARK  status: ('A' for Active; 'I' for Inactive)
REMARK    1  A    between atoms: C_11  and  C_1 
REMARK    2  A    between atoms: C_12  and  C_3 
REMARK    3  A    between atoms: C_10  and  C_5 
REMARK    4  A    between atoms: O_21  and  C_11 
REMARK    5  A    between atoms: O_22  and  C_12 
REMARK    6  A    between atoms: O_23  and  C_14 
REMARK    7  A    between atoms: O_24  and  C_17 
ROOT
ATOM      1  C   UNL d   1      32.630  21.281 -21.742  0.00  0.00     0.075 A 
ATOM      2  C   UNL d   1      32.897  22.331 -22.980  0.00  0.00     0.121 A 
ATOM      3  C   UNL d   1      32.681  22.096 -21.599  0.00  0.00     0.099 A 
ATOM      4  C   UNL d   1      32.848  21.519 -23.131  0.00  0.00     0.058 A 
ATOM      5  C   UNL d   1      32.714  20.995 -22.504  0.00  0.00     0.014 A 
ATOM      6  S   UNL d   1      32.814  22.617 -22.218  0.00  0.00    -0.062 SA
ATOM      7  N   UNL d   1      33.032  22.707 -23.700  0.00  0.00    -0.195 NA
ATOM      8  C   UNL d   1      33.066  22.140 -24.290  0.00  0.00     0.311 A 
ATOM      9  S   UNL d   1      32.953  21.401 -23.940  0.00  0.00    -0.024 SA
ATOM     10  O   UNL d   1      33.192  22.274 -25.095  0.00  0.00    -0.258 OA
ENDROOT
BRANCH   5  11
ATOM     11  C   UNL d   1      32.666  20.187 -22.656  0.00  0.00     0.003 A 
ATOM     12  C   UNL d   1      32.055  19.892 -23.110  0.00  0.00     0.026 A 
ATOM     13  C   UNL d   1      32.011  19.081 -23.260  0.00  0.00     0.116 A 
ATOM     14  C   UNL d   1      32.583  18.573 -22.949  0.00  0.00     0.116 A 
ATOM     15  C   UNL d   1      33.198  18.877 -22.490  0.00  0.00     0.026 A 
ATOM     16  C   UNL d   1      33.241  19.680 -22.343  0.00  0.00     0.002 A 
BRANCH  13  17
ATOM     17  O   UNL d   1      31.395  18.781 -23.719  0.00  0.00    -0.326 OA
ATOM     18  C   UNL d   1      30.903  19.298 -24.136  0.00  0.00     0.181 C 
ENDBRANCH  13  17
BRANCH  14  19
ATOM     19  O   UNL d   1      32.539  17.761 -23.099  0.00  0.00    -0.326 OA
ATOM     20  C   UNL d   1      32.971  17.233 -22.637  0.00  0.00     0.181 C 
ENDBRANCH  14  19
ENDBRANCH   5  11
BRANCH   1  21
ATOM     21  C   UNL d   1      32.497  20.761 -21.119  0.00  0.00     0.296 C 
ATOM     22  O   UNL d   1      31.725  20.589 -20.882  0.00  0.00    -0.259 OA
BRANCH  21  23
ATOM     23  O   UNL d   1      33.135  20.410 -20.731  0.00  0.00    -0.296 OA
ATOM     24  C   UNL d   1      33.043  20.139 -19.961  0.00  0.00     0.185 C 
ENDBRANCH  21  23
ENDBRANCH   1  21
BRANCH   3  25
ATOM     25  C   UNL d   1      32.597  22.383 -20.838  0.00  0.00     0.302 C 
ATOM     26  O   UNL d   1      33.158  22.207 -20.260  0.00  0.00    -0.259 OA
BRANCH  25  27
ATOM     27  O   UNL d   1      31.947  22.852 -20.644  0.00  0.00    -0.295 OA
ATOM     28  C   UNL d   1      32.061  23.642 -20.429  0.00  0.00     0.185 C 
ENDBRANCH  25  27
ENDBRANCH   3  25
TORSDOF 7
ENDMDL
