MODEL 1
REMARK VINA RESULT:      84.4      0.000      0.000
REMARK  7 active torsions:
REMARK  status: ('A' for Active; 'I' for Inactive)
REMARK    1  A    between atoms: C_12  and  N_3 
REMARK    2  A    between atoms: C_10  and  C_4 
REMARK    3  A    between atoms: C_15  and  C_12 
REMARK    4  A    between atoms: N_14  and  C_21 
REMARK    5  A    between atoms: C_22  and  N_14 
REMARK    6  A    between atoms: C_21  and  C_15 
REMARK    7  A    between atoms: C_20  and  C_22 
ROOT
ATOM      1  C   UNL d   1     -57.881 -98.786 -44.706  0.00  0.00     0.137 A 
ATOM      2  N   UNL d   1     -58.166 -98.776 -45.493  0.00  0.00    -0.259 N 
ATOM      3  N   UNL d   1     -57.063 -98.796 -44.564  0.00  0.00    -0.287 N 
ATOM      4  C   UNL d   1     -58.413 -98.785 -44.074  0.00  0.00     0.054 A 
ATOM      5  C   UNL d   1     -58.985 -98.766 -45.648  0.00  0.00     0.266 A 
ATOM      6  C   UNL d   1     -56.805 -98.788 -45.979  0.00  0.00     0.084 A 
ATOM      7  C   UNL d   1     -56.530 -98.797 -45.197  0.00  0.00     0.082 A 
ATOM      8  C   UNL d   1     -59.237 -98.774 -44.218  0.00  0.00     0.009 A 
ATOM      9  C   UNL d   1     -59.523 -98.764 -45.005  0.00  0.00     0.061 A 
ATOM     10  O   UNL d   1     -59.267 -98.756 -46.423  0.00  0.00    -0.267 OA
ATOM     11  C   UNL d   1     -56.276 -98.789 -46.610  0.00  0.00     0.019 A 
ATOM     12  C   UNL d   1     -59.766 -98.773 -43.588  0.00  0.00     0.000 C 
ATOM     13  C   UNL d   1     -55.711 -98.808 -45.055  0.00  0.00     0.019 A 
ATOM     14  C   UNL d   1     -55.466 -98.800 -46.466  0.00  0.00     0.002 A 
ATOM     15  C   UNL d   1     -55.183 -98.809 -45.687  0.00  0.00     0.002 A 
ENDROOT
BRANCH   3  16
ATOM     16  C   UNL d   1     -56.789 -98.805 -43.787  0.00  0.00     0.126 C 
BRANCH  16  17
ATOM     17  C   UNL d   1     -56.208 -99.347 -43.568  0.00  0.00     0.232 C 
ATOM     18  O   UNL d   1     -55.604 -99.128 -43.049  0.00  0.00    -0.283 OA
BRANCH  17  19
ATOM     19  C   UNL d   1     -56.225-100.116 -43.866  0.00  0.00     0.142 C 
BRANCH  19  20
ATOM     20  N   UNL d   1     -56.569-100.722 -43.422  0.00  0.00    -0.239 NA
BRANCH  20  21
ATOM     21  C   UNL d   1     -56.748-101.442 -43.778  0.00  0.00     0.099 C 
BRANCH  21  22
ATOM     22  C   UNL d   1     -56.142-101.921 -44.063  0.00  0.00     0.019 A 
ATOM     23  C   UNL d   1     -56.255-102.384 -44.737  0.00  0.00     0.002 A 
ATOM     24  C   UNL d   1     -55.649-102.861 -45.019  0.00  0.00     0.000 A 
ATOM     25  C   UNL d   1     -54.919-102.877 -44.625  0.00  0.00     0.000 A 
ATOM     26  C   UNL d   1     -54.809-102.413 -43.952  0.00  0.00     0.000 A 
ATOM     27  C   UNL d   1     -55.416-101.938 -43.673  0.00  0.00     0.002 A 
ENDBRANCH  21  22
ENDBRANCH  20  21
ENDBRANCH  19  20
ENDBRANCH  17  19
ENDBRANCH  16  17
ENDBRANCH   3  16
BRANCH   4  28
ATOM     28  C   UNL d   1     -58.132 -98.794 -43.299  0.00  0.00     0.125 C 
ATOM     29  N   UNL d   1     -58.298 -99.443 -42.807  0.00  0.00    -0.146 N 
ENDBRANCH   4  28
TORSDOF 7
ENDMDL
