MODEL 1
REMARK VINA RESULT:      -7.8      0.000      0.000
REMARK  3 active torsions:
REMARK  status: ('A' for Active; 'I' for Inactive)
REMARK    1  A    between atoms: C_15  and  N_4 
REMARK    2  A    between atoms: C_11  and  N_10 
REMARK    3  A    between atoms: C_19  and  C_15 
ROOT
ATOM      1  C   UNL d   1     -48.781  12.763  23.293  0.00  0.00     0.191 A 
ATOM      2  C   UNL d   1     -48.575  13.554  23.147  0.00  0.00     0.173 A 
ATOM      3  C   UNL d   1     -47.441  12.824  23.188  0.00  0.00     0.722 A 
ATOM      4  N   UNL d   1     -49.954  13.944  23.179  0.00  0.00    -0.224 N 
ATOM      5  N   UNL d   1     -48.092  12.305  23.321  0.00  0.00    -0.042 NA
ATOM      6  N   UNL d   1     -47.736  13.585  23.082  0.00  0.00    -0.131 N 
ATOM      7  N   UNL d   1     -49.594  12.550  23.386  0.00  0.00    -0.240 N 
ATOM      8  C   UNL d   1     -50.189  13.161  23.326  0.00  0.00     0.343 A 
ATOM      9  C   UNL d   1     -49.128  14.132  23.089  0.00  0.00     0.288 A 
ATOM     10  N   UNL d   1     -46.624  12.857  23.125  0.00  0.00    -0.139 N 
ATOM     11  C   UNL d   1     -47.097  14.090  22.953  0.00  0.00     0.118 A 
ATOM     12  C   UNL d   1     -46.412  13.633  22.981  0.00  0.00     0.117 A 
ATOM     13  O   UNL d   1     -51.012  12.985  23.413  0.00  0.00    -0.245 OA
ATOM     14  O   UNL d   1     -48.916  14.937  22.940  0.00  0.00    -0.265 OA
ATOM     15  C   UNL d   1     -49.815  11.756  23.534  0.00  0.00     0.105 C 
ENDROOT
BRANCH  10  16
ATOM     16  C   UNL d   1     -46.106  12.216  23.196  0.00  0.00     0.082 A 
ATOM     17  C   UNL d   1     -45.372  12.253  22.834  0.00  0.00     0.027 A 
ATOM     18  C   UNL d   1     -44.860  11.622  22.902  0.00  0.00     0.059 A 
ATOM     19  C   UNL d   1     -45.147  12.923  22.400  0.00  0.00     0.002 C 
ATOM     20 CL   UNL d   1     -44.140  11.729  22.512  0.00  0.00    -0.082 Cl
ATOM     21  C   UNL d   1     -45.079  10.949  23.334  0.00  0.00     0.011 A 
ATOM     22  C   UNL d   1     -45.819  10.915  23.698  0.00  0.00     0.002 A 
ATOM     23  C   UNL d   1     -46.333  11.555  23.626  0.00  0.00     0.018 A 
ENDBRANCH  10  16
BRANCH   4  24
ATOM     24  C   UNL d   1     -50.748  14.168  23.197  0.00  0.00     0.087 C 
BRANCH  24  25
ATOM     25  C   UNL d   1     -50.955  14.938  23.006  0.00  0.00     0.018 C 
ATOM     26  C   UNL d   1     -51.064  15.146  22.215  0.00  0.00     0.002 C 
ATOM     27  C   UNL d   1     -51.055  15.505  23.586  0.00  0.00     0.002 C 
ENDBRANCH  24  25
ENDBRANCH   4  24
TORSDOF 3
ENDMDL
MODEL 2
REMARK VINA RESULT:      -7.7      2.053      4.982
REMARK  3 active torsions:
REMARK  status: ('A' for Active; 'I' for Inactive)
REMARK    1  A    between atoms: C_15  and  N_4 
REMARK    2  A    between atoms: C_11  and  N_10 
REMARK    3  A    between atoms: C_19  and  C_15 
ROOT
ATOM      1  C   UNL d   1     -46.910  12.975  22.850  0.00  0.00     0.191 A 
ATOM      2  C   UNL d   1     -47.156  12.262  23.197  0.00  0.00     0.173 A 
ATOM      3  C   UNL d   1     -48.233  13.067  23.080  0.00  0.00     0.722 A 
ATOM      4  N   UNL d   1     -45.819  11.747  23.141  0.00  0.00    -0.224 N 
ATOM      5  N   UNL d   1     -47.563  13.478  22.772  0.00  0.00    -0.042 NA
ATOM      6  N   UNL d   1     -47.984  12.327  23.338  0.00  0.00    -0.131 N 
ATOM      7  N   UNL d   1     -46.098  13.083  22.640  0.00  0.00    -0.240 N 
ATOM      8  C   UNL d   1     -45.546  12.449  22.793  0.00  0.00     0.343 A 
ATOM      9  C   UNL d   1     -46.643  11.664  23.343  0.00  0.00     0.288 A 
ATOM     10  N   UNL d   1     -49.039  13.127  23.218  0.00  0.00    -0.139 N 
ATOM     11  C   UNL d   1     -48.640  11.927  23.638  0.00  0.00     0.118 A 
ATOM     12  C   UNL d   1     -49.290  12.429  23.561  0.00  0.00     0.117 A 
ATOM     13  O   UNL d   1     -44.726  12.522  22.596  0.00  0.00    -0.245 OA
ATOM     14  O   UNL d   1     -46.895  10.938  23.697  0.00  0.00    -0.265 OA
ATOM     15  C   UNL d   1     -45.837  13.798  22.288  0.00  0.00     0.105 C 
ENDROOT
BRANCH  10  16
ATOM     16  C   UNL d   1     -49.514  13.780  23.042  0.00  0.00     0.082 A 
ATOM     17  C   UNL d   1     -50.047  13.731  22.421  0.00  0.00     0.027 A 
ATOM     18  C   UNL d   1     -50.516  14.376  22.247  0.00  0.00     0.059 A 
ATOM     19  C   UNL d   1     -50.112  13.038  21.972  0.00  0.00     0.002 C 
ATOM     20 CL   UNL d   1     -51.028  14.255  21.610  0.00  0.00    -0.082 Cl
ATOM     21  C   UNL d   1     -50.456  15.072  22.691  0.00  0.00     0.011 A 
ATOM     22  C   UNL d   1     -49.918  15.118  23.316  0.00  0.00     0.002 A 
ATOM     23  C   UNL d   1     -49.446  14.465  23.489  0.00  0.00     0.018 A 
ENDBRANCH  10  16
BRANCH   4  24
ATOM     24  C   UNL d   1     -45.050  11.450  23.109  0.00  0.00     0.087 C 
BRANCH  24  25
ATOM     25  C   UNL d   1     -44.883  10.724  23.450  0.00  0.00     0.018 C 
ATOM     26  C   UNL d   1     -44.097  10.491  23.545  0.00  0.00     0.002 C 
ATOM     27  C   UNL d   1     -45.481  10.226  23.698  0.00  0.00     0.002 C 
ENDBRANCH  24  25
ENDBRANCH   4  24
TORSDOF 3
ENDMDL
MODEL 3
REMARK VINA RESULT:      -6.8      2.040      4.648
REMARK  3 active torsions:
REMARK  status: ('A' for Active; 'I' for Inactive)
REMARK    1  A    between atoms: C_15  and  N_4 
REMARK    2  A    between atoms: C_11  and  N_10 
REMARK    3  A    between atoms: C_19  and  C_15 
ROOT
ATOM      1  C   UNL d   1     -47.929  12.354  23.311  0.00  0.00     0.191 A 
ATOM      2  C   UNL d   1     -47.274  12.829  23.123  0.00  0.00     0.173 A 
ATOM      3  C   UNL d   1     -48.383  13.592  23.042  0.00  0.00     0.722 A 
ATOM      4  N   UNL d   1     -46.386  11.719  23.315  0.00  0.00    -0.224 N 
ATOM      5  N   UNL d   1     -48.617  12.813  23.264  0.00  0.00    -0.042 NA
ATOM      6  N   UNL d   1     -47.565  13.601  22.956  0.00  0.00    -0.131 N 
ATOM      7  N   UNL d   1     -47.817  11.540  23.507  0.00  0.00    -0.240 N 
ATOM      8  C   UNL d   1     -47.023  11.222  23.507  0.00  0.00     0.343 A 
ATOM      9  C   UNL d   1     -46.527  12.537  23.121  0.00  0.00     0.288 A 
ATOM     10  N   UNL d   1     -48.664  14.345  22.879  0.00  0.00    -0.139 N 
ATOM     11  C   UNL d   1     -47.340  14.364  22.739  0.00  0.00     0.118 A 
ATOM     12  C   UNL d   1     -48.025  14.819  22.693  0.00  0.00     0.117 A 
ATOM     13  O   UNL d   1     -46.873  10.411  23.698  0.00  0.00    -0.245 OA
ATOM     14  O   UNL d   1     -45.860  13.022  22.930  0.00  0.00    -0.265 OA
ATOM     15  C   UNL d   1     -48.470  11.050  23.698  0.00  0.00     0.105 C 
ENDROOT
BRANCH  10  16
ATOM     16  C   UNL d   1     -49.456  14.582  22.899  0.00  0.00     0.082 A 
ATOM     17  C   UNL d   1     -49.897  14.565  22.210  0.00  0.00     0.027 A 
ATOM     18  C   UNL d   1     -50.678  14.799  22.229  0.00  0.00     0.059 A 
ATOM     19  C   UNL d   1     -49.558  14.313  21.496  0.00  0.00     0.002 C 
ATOM     20 CL   UNL d   1     -51.060  14.756  21.497  0.00  0.00    -0.082 Cl
ATOM     21  C   UNL d   1     -51.024  15.052  22.938  0.00  0.00     0.011 A 
ATOM     22  C   UNL d   1     -50.577  15.068  23.632  0.00  0.00     0.002 A 
ATOM     23  C   UNL d   1     -49.788  14.831  23.609  0.00  0.00     0.018 A 
ENDBRANCH  10  16
BRANCH   4  24
ATOM     24  C   UNL d   1     -45.875  11.081  23.426  0.00  0.00     0.087 C 
BRANCH  24  25
ATOM     25  C   UNL d   1     -45.074  11.176  23.286  0.00  0.00     0.018 C 
ATOM     26  C   UNL d   1     -44.537  10.641  23.613  0.00  0.00     0.002 C 
ATOM     27  C   UNL d   1     -44.795  11.792  22.827  0.00  0.00     0.002 C 
ENDBRANCH  24  25
ENDBRANCH   4  24
TORSDOF 3
ENDMDL
MODEL 4
REMARK VINA RESULT:      -6.6      1.057      2.120
REMARK  3 active torsions:
REMARK  status: ('A' for Active; 'I' for Inactive)
REMARK    1  A    between atoms: C_15  and  N_4 
REMARK    2  A    between atoms: C_11  and  N_10 
REMARK    3  A    between atoms: C_19  and  C_15 
ROOT
ATOM      1  C   UNL d   1     -47.138  13.690  22.859  0.00  0.00     0.191 A 
ATOM      2  C   UNL d   1     -47.738  13.147  23.042  0.00  0.00     0.173 A 
ATOM      3  C   UNL d   1     -46.566  12.482  23.011  0.00  0.00     0.722 A 
ATOM      4  N   UNL d   1     -48.727  14.184  22.978  0.00  0.00    -0.224 N 
ATOM      5  N   UNL d   1     -46.412  13.293  22.837  0.00  0.00    -0.042 NA
ATOM      6  N   UNL d   1     -47.374  12.394  23.136  0.00  0.00    -0.131 N 
ATOM      7  N   UNL d   1     -47.330  14.503  22.730  0.00  0.00    -0.240 N 
ATOM      8  C   UNL d   1     -48.147  14.748  22.793  0.00  0.00     0.343 A 
ATOM      9  C   UNL d   1     -48.506  13.370  23.103  0.00  0.00     0.288 A 
ATOM     10  N   UNL d   1     -46.212  11.747  23.104  0.00  0.00    -0.139 N 
ATOM     11  C   UNL d   1     -47.521  11.601  23.307  0.00  0.00     0.118 A 
ATOM     12  C   UNL d   1     -46.797  11.206  23.285  0.00  0.00     0.117 A 
ATOM     13  O   UNL d   1     -48.376  15.554  22.671  0.00  0.00    -0.245 OA
ATOM     14  O   UNL d   1     -49.117  12.816  23.290  0.00  0.00    -0.265 OA
ATOM     15  C   UNL d   1     -46.733  15.061  22.545  0.00  0.00     0.105 C 
ENDROOT
BRANCH  10  16
ATOM     16  C   UNL d   1     -45.406  11.583  23.027  0.00  0.00     0.082 A 
ATOM     17  C   UNL d   1     -45.110  10.880  23.324  0.00  0.00     0.027 A 
ATOM     18  C   UNL d   1     -44.314  10.718  23.248  0.00  0.00     0.059 A 
ATOM     19  C   UNL d   1     -45.610  10.335  23.698  0.00  0.00     0.002 C 
ATOM     20 CL   UNL d   1     -44.087   9.991  23.570  0.00  0.00    -0.082 Cl
ATOM     21  C   UNL d   1     -43.808  11.258  22.875  0.00  0.00     0.011 A 
ATOM     22  C   UNL d   1     -44.110  11.966  22.577  0.00  0.00     0.002 A 
ATOM     23  C   UNL d   1     -44.914  12.127  22.655  0.00  0.00     0.018 A 
ENDBRANCH  10  16
BRANCH   4  24
ATOM     24  C   UNL d   1     -49.296  14.781  22.941  0.00  0.00     0.087 C 
BRANCH  24  25
ATOM     25  C   UNL d   1     -50.090  14.584  22.980  0.00  0.00     0.018 C 
ATOM     26  C   UNL d   1     -50.492  14.657  23.697  0.00  0.00     0.002 C 
ATOM     27  C   UNL d   1     -50.492  14.317  22.322  0.00  0.00     0.002 C 
ENDBRANCH  24  25
ENDBRANCH   4  24
TORSDOF 3
ENDMDL
MODEL 5
REMARK VINA RESULT:      -6.4      1.144      1.564
REMARK  3 active torsions:
REMARK  status: ('A' for Active; 'I' for Inactive)
REMARK    1  A    between atoms: C_15  and  N_4 
REMARK    2  A    between atoms: C_11  and  N_10 
REMARK    3  A    between atoms: C_19  and  C_15 
ROOT
ATOM      1  C   UNL d   1     -48.067  12.940  21.883  0.00  0.00     0.191 A 
ATOM      2  C   UNL d   1     -48.144  13.506  22.486  0.00  0.00     0.173 A 
ATOM      3  C   UNL d   1     -46.841  13.172  22.386  0.00  0.00     0.722 A 
ATOM      4  N   UNL d   1     -49.560  13.574  22.273  0.00  0.00    -0.224 N 
ATOM      5  N   UNL d   1     -47.270  12.727  21.812  0.00  0.00    -0.042 NA
ATOM      6  N   UNL d   1     -47.374  13.646  22.796  0.00  0.00    -0.131 N 
ATOM      7  N   UNL d   1     -48.751  12.680  21.460  0.00  0.00    -0.240 N 
ATOM      8  C   UNL d   1     -49.512  13.010  21.666  0.00  0.00     0.343 A 
ATOM      9  C   UNL d   1     -48.855  13.819  22.684  0.00  0.00     0.288 A 
ATOM     10  N   UNL d   1     -46.091  13.310  22.690  0.00  0.00    -0.139 N 
ATOM     11  C   UNL d   1     -46.951  14.080  23.356  0.00  0.00     0.118 A 
ATOM     12  C   UNL d   1     -46.158  13.867  23.285  0.00  0.00     0.117 A 
ATOM     13  O   UNL d   1     -50.218  12.773  21.263  0.00  0.00    -0.245 OA
ATOM     14  O   UNL d   1     -48.932  14.395  23.298  0.00  0.00    -0.265 OA
ATOM     15  C   UNL d   1     -48.686  12.110  20.849  0.00  0.00     0.105 C 
ENDROOT
BRANCH  10  16
ATOM     16  C   UNL d   1     -45.391  12.950  22.438  0.00  0.00     0.082 A 
ATOM     17  C   UNL d   1     -45.142  12.261  22.804  0.00  0.00     0.027 A 
ATOM     18  C   UNL d   1     -44.451  11.904  22.556  0.00  0.00     0.059 A 
ATOM     19  C   UNL d   1     -45.582  11.926  23.421  0.00  0.00     0.002 C 
ATOM     20 CL   UNL d   1     -44.261  11.215  22.970  0.00  0.00    -0.082 Cl
ATOM     21  C   UNL d   1     -44.005  12.234  21.940  0.00  0.00     0.011 A 
ATOM     22  C   UNL d   1     -44.260  12.928  21.573  0.00  0.00     0.002 A 
ATOM     23  C   UNL d   1     -44.958  13.286  21.826  0.00  0.00     0.018 A 
ENDBRANCH  10  16
BRANCH   4  24
ATOM     24  C   UNL d   1     -50.375  13.614  22.150  0.00  0.00     0.087 C 
BRANCH  24  25
ATOM     25  C   UNL d   1     -50.832  14.100  22.625  0.00  0.00     0.018 C 
ATOM     26  C   UNL d   1     -51.064  14.841  22.345  0.00  0.00     0.002 C 
ATOM     27  C   UNL d   1     -51.062  13.865  23.373  0.00  0.00     0.002 C 
ENDBRANCH  24  25
ENDBRANCH   4  24
TORSDOF 3
ENDMDL
MODEL 6
REMARK VINA RESULT:      -5.7      8.371     10.341
REMARK  3 active torsions:
REMARK  status: ('A' for Active; 'I' for Inactive)
REMARK    1  A    between atoms: C_15  and  N_4 
REMARK    2  A    between atoms: C_11  and  N_10 
REMARK    3  A    between atoms: C_19  and  C_15 
ROOT
ATOM      1  C   UNL d   1     -39.634  14.834  20.215  0.00  0.00     0.191 A 
ATOM      2  C   UNL d   1     -38.932  15.246  20.375  0.00  0.00     0.173 A 
ATOM      3  C   UNL d   1     -39.132  15.258  19.041  0.00  0.00     0.722 A 
ATOM      4  N   UNL d   1     -39.087  15.011  21.781  0.00  0.00    -0.224 N 
ATOM      5  N   UNL d   1     -39.768  14.835  19.398  0.00  0.00    -0.042 NA
ATOM      6  N   UNL d   1     -38.623  15.508  19.637  0.00  0.00    -0.131 N 
ATOM      7  N   UNL d   1     -40.080  14.499  20.850  0.00  0.00    -0.240 N 
ATOM      8  C   UNL d   1     -39.793  14.595  21.650  0.00  0.00     0.343 A 
ATOM      9  C   UNL d   1     -38.657  15.339  21.123  0.00  0.00     0.288 A 
ATOM     10  N   UNL d   1     -38.828  15.515  18.323  0.00  0.00    -0.139 N 
ATOM     11  C   UNL d   1     -38.002  15.922  19.285  0.00  0.00     0.118 A 
ATOM     12  C   UNL d   1     -38.136  15.922  18.472  0.00  0.00     0.117 A 
ATOM     13  O   UNL d   1     -40.213  14.273  22.310  0.00  0.00    -0.245 OA
ATOM     14  O   UNL d   1     -37.941  15.760  21.284  0.00  0.00    -0.265 OA
ATOM     15  C   UNL d   1     -40.791  14.081  20.702  0.00  0.00     0.105 C 
ENDROOT
BRANCH  10  16
ATOM     16  C   UNL d   1     -39.165  15.383  17.580  0.00  0.00     0.082 A 
ATOM     17  C   UNL d   1     -38.781  14.895  17.047  0.00  0.00     0.027 A 
ATOM     18  C   UNL d   1     -39.113  14.765  16.313  0.00  0.00     0.059 A 
ATOM     19  C   UNL d   1     -38.062  14.533  17.246  0.00  0.00     0.002 C 
ATOM     20 CL   UNL d   1     -38.671  14.262  15.828  0.00  0.00    -0.082 Cl
ATOM     21  C   UNL d   1     -39.831  15.123  16.107  0.00  0.00     0.011 A 
ATOM     22  C   UNL d   1     -40.216  15.615  16.647  0.00  0.00     0.002 A 
ATOM     23  C   UNL d   1     -39.878  15.744  17.387  0.00  0.00     0.018 A 
ENDBRANCH  10  16
BRANCH   4  24
ATOM     24  C   UNL d   1     -39.177  14.876  22.590  0.00  0.00     0.087 C 
BRANCH  24  25
ATOM     25  C   UNL d   1     -38.618  15.169  23.113  0.00  0.00     0.018 C 
ATOM     26  C   UNL d   1     -37.967  14.704  23.315  0.00  0.00     0.002 C 
ATOM     27  C   UNL d   1     -38.693  15.914  23.438  0.00  0.00     0.002 C 
ENDBRANCH  24  25
ENDBRANCH   4  24
TORSDOF 3
ENDMDL
MODEL 7
REMARK VINA RESULT:      -5.4      8.525     10.696
REMARK  3 active torsions:
REMARK  status: ('A' for Active; 'I' for Inactive)
REMARK    1  A    between atoms: C_15  and  N_4 
REMARK    2  A    between atoms: C_11  and  N_10 
REMARK    3  A    between atoms: C_19  and  C_15 
ROOT
ATOM      1  C   UNL d   1     -39.978  14.991  17.920  0.00  0.00     0.191 A 
ATOM      2  C   UNL d   1     -39.542  14.483  18.411  0.00  0.00     0.173 A 
ATOM      3  C   UNL d   1     -38.981  14.467  17.185  0.00  0.00     0.722 A 
ATOM      4  N   UNL d   1     -40.406  14.775  19.518  0.00  0.00    -0.224 N 
ATOM      5  N   UNL d   1     -39.642  14.990  17.163  0.00  0.00    -0.042 NA
ATOM      6  N   UNL d   1     -38.921  14.159  17.945  0.00  0.00    -0.131 N 
ATOM      7  N   UNL d   1     -40.647  15.406  18.230  0.00  0.00    -0.240 N 
ATOM      8  C   UNL d   1     -40.859  15.289  19.050  0.00  0.00     0.343 A 
ATOM      9  C   UNL d   1     -39.736  14.370  19.180  0.00  0.00     0.288 A 
ATOM     10  N   UNL d   1     -38.374  14.150  16.732  0.00  0.00    -0.139 N 
ATOM     11  C   UNL d   1     -38.273  13.648  17.963  0.00  0.00     0.118 A 
ATOM     12  C   UNL d   1     -37.940  13.648  17.209  0.00  0.00     0.117 A 
ATOM     13  O   UNL d   1     -41.522  15.687  19.394  0.00  0.00    -0.245 OA
ATOM     14  O   UNL d   1     -39.292  13.851  19.680  0.00  0.00    -0.265 OA
ATOM     15  C   UNL d   1     -41.095  15.922  17.745  0.00  0.00     0.105 C 
ENDROOT
BRANCH  10  16
ATOM     16  C   UNL d   1     -38.228  14.310  15.935  0.00  0.00     0.082 A 
ATOM     17  C   UNL d   1     -38.206  13.691  15.399  0.00  0.00     0.027 A 
ATOM     18  C   UNL d   1     -38.062  13.849  14.612  0.00  0.00     0.059 A 
ATOM     19  C   UNL d   1     -38.328  12.910  15.649  0.00  0.00     0.002 C 
ATOM     20 CL   UNL d   1     -38.054  13.178  14.131  0.00  0.00    -0.082 Cl
ATOM     21  C   UNL d   1     -37.940  14.627  14.354  0.00  0.00     0.011 A 
ATOM     22  C   UNL d   1     -37.963  15.249  14.897  0.00  0.00     0.002 A 
ATOM     23  C   UNL d   1     -38.108  15.086  15.691  0.00  0.00     0.018 A 
ENDBRANCH  10  16
BRANCH   4  24
ATOM     24  C   UNL d   1     -40.902  14.943  20.155  0.00  0.00     0.087 C 
BRANCH  24  25
ATOM     25  C   UNL d   1     -40.631  14.828  20.920  0.00  0.00     0.018 C 
ATOM     26  C   UNL d   1     -40.014  15.294  21.207  0.00  0.00     0.002 C 
ATOM     27  C   UNL d   1     -40.962  14.260  21.404  0.00  0.00     0.002 C 
ENDBRANCH  24  25
ENDBRANCH   4  24
TORSDOF 3
ENDMDL
