MODEL 1
REMARK VINA RESULT:      86.9      0.000      0.000
REMARK  7 active torsions:
REMARK  status: ('A' for Active; 'I' for Inactive)
REMARK    1  A    between atoms: N_3  and  S_1 
REMARK    2  A    between atoms: C_8  and  S_1 
REMARK    3  A    between atoms: S_2  and  C_7 
REMARK    4  A    between atoms: N_9  and  S_2 
REMARK    5  A    between atoms: C_4  and  N_3 
REMARK       I    between atoms: C_5  and  N_10 
REMARK    6  A    between atoms: C_16  and  C_5 
REMARK    7  A    between atoms: N_10  and  C_24 
ROOT
ATOM      1  C   UNL d   1      43.470 -16.028  37.504  0.00  0.00     0.106 A 
ATOM      2  C   UNL d   1      43.771 -16.757  37.298  0.00  0.00     0.015 A 
ATOM      3  C   UNL d   1      43.531 -15.747  38.278  0.00  0.00     0.015 A 
ATOM      4  C   UNL d   1      44.205 -16.947  38.644  0.00  0.00     0.085 A 
ATOM      5  C   UNL d   1      43.901 -16.211  38.849  0.00  0.00     0.020 A 
ATOM      6  C   UNL d   1      44.141 -17.221  37.868  0.00  0.00     0.020 A 
ENDROOT
BRANCH   4   7
ATOM      7  N   UNL d   1      44.580 -17.415  39.226  0.00  0.00    -0.208 NA
ATOM      8  C   UNL d   1      44.450 -17.266  40.027  0.00  0.00     0.279 C 
ATOM      9  O   UNL d   1      43.946 -16.649  40.246  0.00  0.00    -0.265 OA
BRANCH   8  10
ATOM     10  C   UNL d   1      44.820 -17.729  40.597  0.00  0.00     0.058 A 
ATOM     11  C   UNL d   1      45.628 -17.643  40.744  0.00  0.00     0.005 A 
ATOM     12  C   UNL d   1      45.999 -18.103  41.312  0.00  0.00     0.013 A 
ATOM     13  C   UNL d   1      45.566 -18.664  41.749  0.00  0.00     0.104 A 
ATOM     14  C   UNL d   1      44.747 -18.748  41.597  0.00  0.00     0.013 A 
ATOM     15  C   UNL d   1      44.376 -18.291  41.032  0.00  0.00     0.005 A 
BRANCH  13  16
ATOM     16  S   UNL d   1      45.944 -19.129  42.324  0.00  0.00     0.271 S 
ATOM     17  O   UNL d   1      45.299 -19.026  42.835  0.00  0.00    -0.200 OA
ATOM     18  O   UNL d   1      46.587 -19.229  41.809  0.00  0.00    -0.200 OA
BRANCH  16  19
ATOM     19  N   UNL d   1      46.320 -19.591  42.895  0.00  0.00    -0.226 N 
ATOM     20  C   UNL d   1      46.645 -20.330  42.687  0.00  0.00     0.111 C 
ATOM     21  C   UNL d   1      46.376 -19.328  43.671  0.00  0.00     0.111 C 
ENDBRANCH  16  19
ENDBRANCH  13  16
ENDBRANCH   8  10
ENDBRANCH   4   7
BRANCH   1  22
ATOM     22  S   UNL d   1      43.100 -15.564  36.933  0.00  0.00     0.300 S 
ATOM     23  O   UNL d   1      42.888 -16.241  36.508  0.00  0.00    -0.198 OA
ATOM     24  O   UNL d   1      43.303 -14.880  37.344  0.00  0.00    -0.198 OA
BRANCH  22  25
ATOM     25  N   UNL d   1      42.726 -15.098  36.356  0.00  0.00     0.034 NA
BRANCH  25  26
ATOM     26  C   UNL d   1      41.966 -14.810  36.487  0.00  0.00     0.760 A 
ATOM     27  N   UNL d   1      41.304 -15.311  36.389  0.00  0.00    -0.059 NA
ATOM     28  C   UNL d   1      40.544 -15.022  36.520  0.00  0.00     0.102 A 
ATOM     29  C   UNL d   1      39.890 -15.516  36.423  0.00  0.00     0.021 C 
ATOM     30  C   UNL d   1      40.438 -14.238  36.748  0.00  0.00     0.041 A 
ATOM     31  C   UNL d   1      41.101 -13.737  36.847  0.00  0.00     0.120 A 
ATOM     32  N   UNL d   1      41.853 -14.031  36.714  0.00  0.00    -0.057 NA
ENDBRANCH  25  26
ENDBRANCH  22  25
ENDBRANCH   1  22
TORSDOF 7
ENDMDL
MODEL 2
REMARK VINA RESULT:      88.4      0.854      7.037
REMARK  7 active torsions:
REMARK  status: ('A' for Active; 'I' for Inactive)
REMARK    1  A    between atoms: N_3  and  S_1 
REMARK    2  A    between atoms: C_8  and  S_1 
REMARK    3  A    between atoms: S_2  and  C_7 
REMARK    4  A    between atoms: N_9  and  S_2 
REMARK    5  A    between atoms: C_4  and  N_3 
REMARK       I    between atoms: C_5  and  N_10 
REMARK    6  A    between atoms: C_16  and  C_5 
REMARK    7  A    between atoms: N_10  and  C_24 
ROOT
ATOM      1  C   UNL d   1      45.479 -18.889  41.269  0.00  0.00     0.106 A 
ATOM      2  C   UNL d   1      45.080 -18.210  41.479  0.00  0.00     0.015 A 
ATOM      3  C   UNL d   1      45.510 -19.137  40.483  0.00  0.00     0.015 A 
ATOM      4  C   UNL d   1      44.727 -18.006  40.112  0.00  0.00     0.085 A 
ATOM      5  C   UNL d   1      45.131 -18.692  39.902  0.00  0.00     0.020 A 
ATOM      6  C   UNL d   1      44.701 -17.765  40.900  0.00  0.00     0.020 A 
ENDROOT
BRANCH   4   7
ATOM      7  N   UNL d   1      44.345 -17.556  39.521  0.00  0.00    -0.208 NA
ATOM      8  C   UNL d   1      44.294 -16.736  39.591  0.00  0.00     0.279 C 
ATOM      9  O   UNL d   1      44.627 -16.365  40.250  0.00  0.00    -0.265 OA
BRANCH   8  10
ATOM     10  C   UNL d   1      43.916 -16.295  39.008  0.00  0.00     0.058 A 
ATOM     11  C   UNL d   1      43.859 -16.585  38.237  0.00  0.00     0.005 A 
ATOM     12  C   UNL d   1      43.483 -16.148  37.654  0.00  0.00     0.013 A 
ATOM     13  C   UNL d   1      43.153 -15.405  37.832  0.00  0.00     0.104 A 
ATOM     14  C   UNL d   1      43.213 -15.113  38.615  0.00  0.00     0.013 A 
ATOM     15  C   UNL d   1      43.587 -15.548  39.197  0.00  0.00     0.005 A 
BRANCH  13  16
ATOM     16  S   UNL d   1      42.773 -14.963  37.240  0.00  0.00     0.271 S 
ATOM     17  O   UNL d   1      43.419 -15.081  36.733  0.00  0.00    -0.200 OA
ATOM     18  O   UNL d   1      42.129 -14.849  37.751  0.00  0.00    -0.200 OA
BRANCH  16  19
ATOM     19  N   UNL d   1      42.395 -14.525  36.652  0.00  0.00    -0.226 N 
ATOM     20  C   UNL d   1      41.671 -14.791  36.333  0.00  0.00     0.111 C 
ATOM     21  C   UNL d   1      42.726 -13.826  36.378  0.00  0.00     0.111 C 
ENDBRANCH  16  19
ENDBRANCH  13  16
ENDBRANCH   8  10
ENDBRANCH   4   7
BRANCH   1  22
ATOM     22  S   UNL d   1      45.858 -19.335  41.848  0.00  0.00     0.300 S 
ATOM     23  O   UNL d   1      46.573 -19.280  41.436  0.00  0.00    -0.198 OA
ATOM     24  O   UNL d   1      45.155 -19.400  42.271  0.00  0.00    -0.198 OA
BRANCH  22  25
ATOM     25  N   UNL d   1      46.243 -19.785  42.431  0.00  0.00     0.034 NA
BRANCH  25  26
ATOM     26  C   UNL d   1      46.236 -19.536  43.216  0.00  0.00     0.760 A 
ATOM     27  N   UNL d   1      46.334 -18.726  43.400  0.00  0.00    -0.059 NA
ATOM     28  C   UNL d   1      46.327 -18.477  44.186  0.00  0.00     0.102 A 
ATOM     29  C   UNL d   1      46.423 -17.678  44.367  0.00  0.00     0.021 C 
ATOM     30  C   UNL d   1      46.223 -19.027  44.788  0.00  0.00     0.041 A 
ATOM     31  C   UNL d   1      46.126 -19.838  44.604  0.00  0.00     0.120 A 
ATOM     32  N   UNL d   1      46.133 -20.078  43.822  0.00  0.00    -0.057 NA
ENDBRANCH  25  26
ENDBRANCH  22  25
ENDBRANCH   1  22
TORSDOF 7
ENDMDL
