MODEL 1
REMARK VINA RESULT:      30.0      0.000      0.000
REMARK  1 active torsions:
REMARK  status: ('A' for Active; 'I' for Inactive)
REMARK    1  A    between atoms: C_14  and  C_6 
ROOT
ATOM      1  C   UNL d   1     -56.334-102.861 -39.010  0.00  0.00     0.174 A 
ATOM      2  N   UNL d   1     -55.924-102.864 -39.726  0.00  0.00    -0.250 N 
ATOM      3  C   UNL d   1     -55.934-102.851 -38.284  0.00  0.00     0.061 A 
ATOM      4  C   UNL d   1     -55.109-102.845 -38.278  0.00  0.00     0.115 A 
ATOM      5  N   UNL d   1     -54.715-102.848 -39.000  0.00  0.00    -0.221 NA
ATOM      6  C   UNL d   1     -55.099-102.858 -39.721  0.00  0.00     0.151 A 
ATOM      7  N   UNL d   1     -57.188-102.869 -39.203  0.00  0.00    -0.128 NA
ATOM      8  C   UNL d   1     -56.495-102.874 -40.395  0.00  0.00     0.228 A 
ATOM      9  S   UNL d   1     -54.724-102.836 -37.563  0.00  0.00    -0.068 SA
ATOM     10  C   UNL d   1     -55.943-102.839 -36.869  0.00  0.00     0.011 A 
ATOM     11  C   UNL d   1     -55.118-102.833 -36.863  0.00  0.00     0.031 A 
ATOM     12  N   UNL d   1     -57.269-102.877 -40.033  0.00  0.00    -0.117 NA
ATOM     13  S   UNL d   1     -56.256-102.878 -41.097  0.00  0.00    -0.036 SA
ATOM     14  C   UNL d   1     -56.353-102.835 -36.136  0.00  0.00     0.001 A 
ATOM     15  C   UNL d   1     -54.734-102.823 -36.126  0.00  0.00     0.006 A 
ATOM     16  C   UNL d   1     -55.953-102.826 -35.426  0.00  0.00     0.000 A 
ATOM     17  C   UNL d   1     -55.128-102.820 -35.420  0.00  0.00     0.001 A 
ENDROOT
BRANCH   6  18
ATOM     18  C   UNL d   1     -54.738-102.860 -40.278  0.00  0.00     0.037 C 
ATOM     19  C   UNL d   1     -54.756-102.497 -40.829  0.00  0.00     0.003 C 
ENDBRANCH   6  18
TORSDOF 1
ENDMDL
