MODEL 1
REMARK VINA RESULT:      -8.6      0.000      0.000
REMARK  7 active torsions:
REMARK  status: ('A' for Active; 'I' for Inactive)
REMARK    1  A    between atoms: C_2  and  C_1 
REMARK       I    between atoms: N_8  and  C_1 
REMARK    2  A    between atoms: C_5  and  C_2 
REMARK    3  A    between atoms: C_6  and  C_2 
REMARK    4  A    between atoms: N_3  and  C_9 
REMARK    5  A    between atoms: C_13  and  N_8 
REMARK    6  A    between atoms: C_9  and  C_10 
REMARK    7  A    between atoms: C_10  and  C_13 
ROOT
ATOM      1  C   UNL d   1      53.404  31.995  53.615  0.00  0.00     0.058 C 
ENDROOT
BRANCH   1   2
ATOM      2  C   UNL d   1      52.872  32.324  53.055  0.00  0.00     0.279 C 
ATOM      3  O   UNL d   1      53.026  32.199  52.234  0.00  0.00    -0.265 OA
ATOM      4  N   UNL d   1      52.204  32.764  53.303  0.00  0.00    -0.206 NA
BRANCH   4   5
ATOM      5  C   UNL d   1      51.689  33.082  52.748  0.00  0.00     0.104 C 
BRANCH   5   6
ATOM      6  C   UNL d   1      51.106  33.613  52.971  0.00  0.00     0.040 C 
BRANCH   6   7
ATOM      7  C   UNL d   1      50.882  34.210  52.464  0.00  0.00     0.082 C 
BRANCH   7   8
ATOM      8  N   UNL d   1      50.148  34.546  52.551  0.00  0.00    -0.299 N 
ATOM      9  C   UNL d   1      49.914  34.882  53.271  0.00  0.00     0.107 A 
ATOM     10  C   UNL d   1      49.163  35.223  53.351  0.00  0.00     0.142 A 
ATOM     11  O   UNL d   1      48.639  35.226  52.695  0.00  0.00    -0.300 OA
ATOM     12  C   UNL d   1      48.867  34.892  51.972  0.00  0.00     0.142 A 
ATOM     13  C   UNL d   1      49.617  34.554  51.901  0.00  0.00     0.107 A 
ENDBRANCH   7   8
ENDBRANCH   6   7
ENDBRANCH   5   6
ENDBRANCH   4   5
ENDBRANCH   1   2
BRANCH   1  14
ATOM     14  C   UNL d   1      53.924  32.480  54.026  0.00  0.00     0.005 A 
ATOM     15  C   UNL d   1      54.588  32.761  53.631  0.00  0.00     0.000 A 
ATOM     16  C   UNL d   1      55.123  33.249  54.024  0.00  0.00     0.000 A 
ATOM     17  C   UNL d   1      54.966  33.455  54.859  0.00  0.00     0.000 A 
ATOM     18  C   UNL d   1      54.288  33.156  55.230  0.00  0.00     0.000 A 
ATOM     19  C   UNL d   1      53.762  32.669  54.822  0.00  0.00     0.000 A 
ENDBRANCH   1  14
BRANCH   1  20
ATOM     20  C   UNL d   1      53.385  31.179  53.735  0.00  0.00     0.005 A 
ATOM     21  C   UNL d   1      53.010  30.867  54.389  0.00  0.00     0.000 A 
ATOM     22  C   UNL d   1      52.992  30.045  54.509  0.00  0.00     0.000 A 
ATOM     23  C   UNL d   1      53.362  29.539  53.951  0.00  0.00     0.000 A 
ATOM     24  C   UNL d   1      53.736  29.869  53.296  0.00  0.00     0.000 A 
ATOM     25  C   UNL d   1      53.747  30.683  53.188  0.00  0.00     0.000 A 
ENDBRANCH   1  20
TORSDOF 7
ENDMDL
MODEL 2
REMARK VINA RESULT:      -8.5      0.033      2.113
REMARK  7 active torsions:
REMARK  status: ('A' for Active; 'I' for Inactive)
REMARK    1  A    between atoms: C_2  and  C_1 
REMARK       I    between atoms: N_8  and  C_1 
REMARK    2  A    between atoms: C_5  and  C_2 
REMARK    3  A    between atoms: C_6  and  C_2 
REMARK    4  A    between atoms: N_3  and  C_9 
REMARK    5  A    between atoms: C_13  and  N_8 
REMARK    6  A    between atoms: C_9  and  C_10 
REMARK    7  A    between atoms: C_10  and  C_13 
ROOT
ATOM      1  C   UNL d   1      53.386  31.975  53.599  0.00  0.00     0.058 C 
ENDROOT
BRANCH   1   2
ATOM      2  C   UNL d   1      52.867  32.327  53.042  0.00  0.00     0.279 C 
ATOM      3  O   UNL d   1      53.047  32.247  52.221  0.00  0.00    -0.265 OA
ATOM      4  N   UNL d   1      52.187  32.746  53.292  0.00  0.00    -0.206 NA
BRANCH   4   5
ATOM      5  C   UNL d   1      51.684  33.088  52.739  0.00  0.00     0.104 C 
BRANCH   5   6
ATOM      6  C   UNL d   1      51.084  33.595  52.972  0.00  0.00     0.040 C 
BRANCH   6   7
ATOM      7  C   UNL d   1      50.884  34.233  52.506  0.00  0.00     0.082 C 
BRANCH   7   8
ATOM      8  N   UNL d   1      50.143  34.555  52.578  0.00  0.00    -0.299 N 
ATOM      9  C   UNL d   1      49.892  34.896  53.290  0.00  0.00     0.107 A 
ATOM     10  C   UNL d   1      49.134  35.224  53.354  0.00  0.00     0.142 A 
ATOM     11  O   UNL d   1      48.619  35.208  52.690  0.00  0.00    -0.300 OA
ATOM     12  C   UNL d   1      48.864  34.868  51.975  0.00  0.00     0.142 A 
ATOM     13  C   UNL d   1      49.622  34.544  51.920  0.00  0.00     0.107 A 
ENDBRANCH   7   8
ENDBRANCH   6   7
ENDBRANCH   5   6
ENDBRANCH   4   5
ENDBRANCH   1   2
BRANCH   1  14
ATOM     14  C   UNL d   1      53.372  31.163  53.724  0.00  0.00     0.005 A 
ATOM     15  C   UNL d   1      53.713  30.676  53.154  0.00  0.00     0.000 A 
ATOM     16  C   UNL d   1      53.710  29.860  53.259  0.00  0.00     0.000 A 
ATOM     17  C   UNL d   1      53.341  29.531  53.980  0.00  0.00     0.000 A 
ATOM     18  C   UNL d   1      53.005  30.047  54.536  0.00  0.00     0.000 A 
ATOM     19  C   UNL d   1      53.016  30.863  54.416  0.00  0.00     0.000 A 
ENDBRANCH   1  14
BRANCH   1  20
ATOM     20  C   UNL d   1      53.903  32.468  54.012  0.00  0.00     0.005 A 
ATOM     21  C   UNL d   1      53.753  32.666  54.789  0.00  0.00     0.000 A 
ATOM     22  C   UNL d   1      54.273  33.162  55.204  0.00  0.00     0.000 A 
ATOM     23  C   UNL d   1      54.957  33.459  54.816  0.00  0.00     0.000 A 
ATOM     24  C   UNL d   1      55.094  33.250  54.032  0.00  0.00     0.000 A 
ATOM     25  C   UNL d   1      54.572  32.759  53.632  0.00  0.00     0.000 A 
ENDBRANCH   1  20
TORSDOF 7
ENDMDL
MODEL 3
REMARK VINA RESULT:      -7.2      1.622      2.264
REMARK  7 active torsions:
REMARK  status: ('A' for Active; 'I' for Inactive)
REMARK    1  A    between atoms: C_2  and  C_1 
REMARK       I    between atoms: N_8  and  C_1 
REMARK    2  A    between atoms: C_5  and  C_2 
REMARK    3  A    between atoms: C_6  and  C_2 
REMARK    4  A    between atoms: N_3  and  C_9 
REMARK    5  A    between atoms: C_13  and  N_8 
REMARK    6  A    between atoms: C_9  and  C_10 
REMARK    7  A    between atoms: C_10  and  C_13 
ROOT
ATOM      1  C   UNL d   1      52.074  33.772  53.107  0.00  0.00     0.058 C 
ENDROOT
BRANCH   1   2
ATOM      2  C   UNL d   1      51.454  34.054  52.616  0.00  0.00     0.279 C 
ATOM      3  O   UNL d   1      51.613  34.167  51.795  0.00  0.00    -0.265 OA
ATOM      4  N   UNL d   1      50.696  34.218  52.932  0.00  0.00    -0.206 NA
BRANCH   4   5
ATOM      5  C   UNL d   1      50.095  34.494  52.443  0.00  0.00     0.104 C 
BRANCH   5   6
ATOM      6  C   UNL d   1      49.457  34.904  52.753  0.00  0.00     0.040 C 
BRANCH   6   7
ATOM      7  C   UNL d   1      48.790  35.023  52.300  0.00  0.00     0.082 C 
BRANCH   7   8
ATOM      8  N   UNL d   1      48.247  35.577  52.538  0.00  0.00    -0.299 N 
ATOM      9  C   UNL d   1      48.260  35.887  53.306  0.00  0.00     0.107 A 
ATOM     10  C   UNL d   1      47.701  36.452  53.540  0.00  0.00     0.142 A 
ATOM     11  O   UNL d   1      47.118  36.709  52.993  0.00  0.00    -0.300 OA
ATOM     12  C   UNL d   1      47.099  36.402  52.223  0.00  0.00     0.142 A 
ATOM     13  C   UNL d   1      47.660  35.839  51.998  0.00  0.00     0.107 A 
ENDBRANCH   7   8
ENDBRANCH   6   7
ENDBRANCH   5   6
ENDBRANCH   4   5
ENDBRANCH   1   2
BRANCH   1  14
ATOM     14  C   UNL d   1      52.485  34.291  53.593  0.00  0.00     0.005 A 
ATOM     15  C   UNL d   1      52.969  34.854  53.238  0.00  0.00     0.000 A 
ATOM     16  C   UNL d   1      53.391  35.384  53.706  0.00  0.00     0.000 A 
ATOM     17  C   UNL d   1      53.312  35.331  54.575  0.00  0.00     0.000 A 
ATOM     18  C   UNL d   1      52.817  34.753  54.903  0.00  0.00     0.000 A 
ATOM     19  C   UNL d   1      52.401  34.230  54.420  0.00  0.00     0.000 A 
ENDBRANCH   1  14
BRANCH   1  20
ATOM     20  C   UNL d   1      52.251  32.966  53.083  0.00  0.00     0.005 A 
ATOM     21  C   UNL d   1      51.724  32.420  53.384  0.00  0.00     0.000 A 
ATOM     22  C   UNL d   1      51.903  31.609  53.360  0.00  0.00     0.000 A 
ATOM     23  C   UNL d   1      52.630  31.357  53.024  0.00  0.00     0.000 A 
ATOM     24  C   UNL d   1      53.150  31.920  52.725  0.00  0.00     0.000 A 
ATOM     25  C   UNL d   1      52.962  32.719  52.754  0.00  0.00     0.000 A 
ENDBRANCH   1  20
TORSDOF 7
ENDMDL
MODEL 4
REMARK VINA RESULT:      -7.2      1.620      3.104
REMARK  7 active torsions:
REMARK  status: ('A' for Active; 'I' for Inactive)
REMARK    1  A    between atoms: C_2  and  C_1 
REMARK       I    between atoms: N_8  and  C_1 
REMARK    2  A    between atoms: C_5  and  C_2 
REMARK    3  A    between atoms: C_6  and  C_2 
REMARK    4  A    between atoms: N_3  and  C_9 
REMARK    5  A    between atoms: C_13  and  N_8 
REMARK    6  A    between atoms: C_9  and  C_10 
REMARK    7  A    between atoms: C_10  and  C_13 
ROOT
ATOM      1  C   UNL d   1      52.096  33.750  53.108  0.00  0.00     0.058 C 
ENDROOT
BRANCH   1   2
ATOM      2  C   UNL d   1      51.480  34.044  52.620  0.00  0.00     0.279 C 
ATOM      3  O   UNL d   1      51.648  34.190  51.805  0.00  0.00    -0.265 OA
ATOM      4  N   UNL d   1      50.717  34.189  52.932  0.00  0.00    -0.206 NA
BRANCH   4   5
ATOM      5  C   UNL d   1      50.119  34.477  52.446  0.00  0.00     0.104 C 
BRANCH   5   6
ATOM      6  C   UNL d   1      49.483  34.886  52.761  0.00  0.00     0.040 C 
BRANCH   6   7
ATOM      7  C   UNL d   1      48.795  34.965  52.331  0.00  0.00     0.082 C 
BRANCH   7   8
ATOM      8  N   UNL d   1      48.261  35.537  52.544  0.00  0.00    -0.299 N 
ATOM      9  C   UNL d   1      48.256  35.855  53.309  0.00  0.00     0.107 A 
ATOM     10  C   UNL d   1      47.707  36.439  53.517  0.00  0.00     0.142 A 
ATOM     11  O   UNL d   1      47.153  36.709  52.946  0.00  0.00    -0.300 OA
ATOM     12  C   UNL d   1      47.153  36.396  52.179  0.00  0.00     0.142 A 
ATOM     13  C   UNL d   1      47.704  35.813  51.980  0.00  0.00     0.107 A 
ENDBRANCH   7   8
ENDBRANCH   6   7
ENDBRANCH   5   6
ENDBRANCH   4   5
ENDBRANCH   1   2
BRANCH   1  14
ATOM     14  C   UNL d   1      52.300  32.955  53.085  0.00  0.00     0.005 A 
ATOM     15  C   UNL d   1      51.755  32.407  53.369  0.00  0.00     0.000 A 
ATOM     16  C   UNL d   1      51.938  31.604  53.356  0.00  0.00     0.000 A 
ATOM     17  C   UNL d   1      52.713  31.356  53.038  0.00  0.00     0.000 A 
ATOM     18  C   UNL d   1      53.241  31.931  52.759  0.00  0.00     0.000 A 
ATOM     19  C   UNL d   1      53.042  32.732  52.779  0.00  0.00     0.000 A 
ENDBRANCH   1  14
BRANCH   1  20
ATOM     20  C   UNL d   1      52.485  34.283  53.604  0.00  0.00     0.005 A 
ATOM     21  C   UNL d   1      52.413  34.220  54.414  0.00  0.00     0.000 A 
ATOM     22  C   UNL d   1      52.804  34.757  54.913  0.00  0.00     0.000 A 
ATOM     23  C   UNL d   1      53.275  35.365  54.576  0.00  0.00     0.000 A 
ATOM     24  C   UNL d   1      53.337  35.416  53.757  0.00  0.00     0.000 A 
ATOM     25  C   UNL d   1      52.946  34.879  53.274  0.00  0.00     0.000 A 
ENDBRANCH   1  20
TORSDOF 7
ENDMDL
MODEL 5
REMARK VINA RESULT:      -6.8      1.747      4.940
REMARK  7 active torsions:
REMARK  status: ('A' for Active; 'I' for Inactive)
REMARK    1  A    between atoms: C_2  and  C_1 
REMARK       I    between atoms: N_8  and  C_1 
REMARK    2  A    between atoms: C_5  and  C_2 
REMARK    3  A    between atoms: C_6  and  C_2 
REMARK    4  A    between atoms: N_3  and  C_9 
REMARK    5  A    between atoms: C_13  and  N_8 
REMARK    6  A    between atoms: C_9  and  C_10 
REMARK    7  A    between atoms: C_10  and  C_13 
ROOT
ATOM      1  C   UNL d   1      52.357  33.937  53.197  0.00  0.00     0.058 C 
ENDROOT
BRANCH   1   2
ATOM      2  C   UNL d   1      52.834  33.291  52.954  0.00  0.00     0.279 C 
ATOM      3  O   UNL d   1      53.393  33.416  52.334  0.00  0.00    -0.265 OA
ATOM      4  N   UNL d   1      52.758  32.540  53.317  0.00  0.00    -0.206 NA
BRANCH   4   5
ATOM      5  C   UNL d   1      53.230  31.913  53.073  0.00  0.00     0.104 C 
BRANCH   5   6
ATOM      6  C   UNL d   1      53.031  31.140  53.259  0.00  0.00     0.040 C 
BRANCH   6   7
ATOM      7  C   UNL d   1      53.603  30.623  53.523  0.00  0.00     0.082 C 
BRANCH   7   8
ATOM      8  N   UNL d   1      53.377  29.904  53.822  0.00  0.00    -0.299 N 
ATOM      9  C   UNL d   1      52.801  29.445  53.443  0.00  0.00     0.107 A 
ATOM     10  C   UNL d   1      52.576  28.712  53.755  0.00  0.00     0.142 A 
ATOM     11  O   UNL d   1      52.936  28.435  54.462  0.00  0.00    -0.300 OA
ATOM     12  C   UNL d   1      53.513  28.889  54.846  0.00  0.00     0.142 A 
ATOM     13  C   UNL d   1      53.731  29.619  54.527  0.00  0.00     0.107 A 
ENDBRANCH   7   8
ENDBRANCH   6   7
ENDBRANCH   5   6
ENDBRANCH   4   5
ENDBRANCH   1   2
BRANCH   1  14
ATOM     14  C   UNL d   1      51.605  34.038  52.883  0.00  0.00     0.005 A 
ATOM     15  C   UNL d   1      50.957  33.873  53.363  0.00  0.00     0.000 A 
ATOM     16  C   UNL d   1      50.195  33.968  53.068  0.00  0.00     0.000 A 
ATOM     17  C   UNL d   1      50.095  34.244  52.245  0.00  0.00     0.000 A 
ATOM     18  C   UNL d   1      50.766  34.402  51.786  0.00  0.00     0.000 A 
ATOM     19  C   UNL d   1      51.524  34.302  52.096  0.00  0.00     0.000 A 
ENDBRANCH   1  14
BRANCH   1  20
ATOM     20  C   UNL d   1      52.667  34.459  53.756  0.00  0.00     0.005 A 
ATOM     21  C   UNL d   1      52.653  34.270  54.550  0.00  0.00     0.000 A 
ATOM     22  C   UNL d   1      52.965  34.795  55.112  0.00  0.00     0.000 A 
ATOM     23  C   UNL d   1      53.296  35.524  54.856  0.00  0.00     0.000 A 
ATOM     24  C   UNL d   1      53.304  35.700  54.052  0.00  0.00     0.000 A 
ATOM     25  C   UNL d   1      52.992  35.172  53.506  0.00  0.00     0.000 A 
ENDBRANCH   1  20
TORSDOF 7
ENDMDL
MODEL 6
REMARK VINA RESULT:      -6.8      1.739      4.592
REMARK  7 active torsions:
REMARK  status: ('A' for Active; 'I' for Inactive)
REMARK    1  A    between atoms: C_2  and  C_1 
REMARK       I    between atoms: N_8  and  C_1 
REMARK    2  A    between atoms: C_5  and  C_2 
REMARK    3  A    between atoms: C_6  and  C_2 
REMARK    4  A    between atoms: N_3  and  C_9 
REMARK    5  A    between atoms: C_13  and  N_8 
REMARK    6  A    between atoms: C_9  and  C_10 
REMARK    7  A    between atoms: C_10  and  C_13 
ROOT
ATOM      1  C   UNL d   1      52.244  33.874  53.121  0.00  0.00     0.058 C 
ENDROOT
BRANCH   1   2
ATOM      2  C   UNL d   1      52.644  33.188  52.849  0.00  0.00     0.279 C 
ATOM      3  O   UNL d   1      53.176  33.266  52.197  0.00  0.00    -0.265 OA
ATOM      4  N   UNL d   1      52.520  32.445  53.214  0.00  0.00    -0.206 NA
BRANCH   4   5
ATOM      5  C   UNL d   1      52.917  31.779  52.941  0.00  0.00     0.104 C 
BRANCH   5   6
ATOM      6  C   UNL d   1      52.783  31.043  53.277  0.00  0.00     0.040 C 
BRANCH   6   7
ATOM      7  C   UNL d   1      53.377  30.484  53.284  0.00  0.00     0.082 C 
BRANCH   7   8
ATOM      8  N   UNL d   1      53.292  29.828  53.753  0.00  0.00    -0.299 N 
ATOM      9  C   UNL d   1      53.717  29.749  54.460  0.00  0.00     0.107 A 
ATOM     10  C   UNL d   1      53.625  29.074  54.932  0.00  0.00     0.142 A 
ATOM     11  O   UNL d   1      53.096  28.468  54.689  0.00  0.00    -0.300 OA
ATOM     12  C   UNL d   1      52.668  28.541  53.983  0.00  0.00     0.142 A 
ATOM     13  C   UNL d   1      52.767  29.217  53.518  0.00  0.00     0.107 A 
ENDBRANCH   7   8
ENDBRANCH   6   7
ENDBRANCH   5   6
ENDBRANCH   4   5
ENDBRANCH   1   2
BRANCH   1  14
ATOM     14  C   UNL d   1      52.603  34.376  53.662  0.00  0.00     0.005 A 
ATOM     15  C   UNL d   1      52.960  35.061  53.379  0.00  0.00     0.000 A 
ATOM     16  C   UNL d   1      53.326  35.579  53.905  0.00  0.00     0.000 A 
ATOM     17  C   UNL d   1      53.324  35.383  54.757  0.00  0.00     0.000 A 
ATOM     18  C   UNL d   1      52.955  34.685  55.011  0.00  0.00     0.000 A 
ATOM     19  C   UNL d   1      52.593  34.177  54.472  0.00  0.00     0.000 A 
ENDBRANCH   1  14
BRANCH   1  20
ATOM     20  C   UNL d   1      51.487  34.022  52.827  0.00  0.00     0.005 A 
ATOM     21  C   UNL d   1      50.833  33.934  53.308  0.00  0.00     0.000 A 
ATOM     22  C   UNL d   1      50.072  34.083  53.013  0.00  0.00     0.000 A 
ATOM     23  C   UNL d   1      49.980  34.327  52.214  0.00  0.00     0.000 A 
ATOM     24  C   UNL d   1      50.649  34.411  51.742  0.00  0.00     0.000 A 
ATOM     25  C   UNL d   1      51.397  34.260  52.046  0.00  0.00     0.000 A 
ENDBRANCH   1  20
TORSDOF 7
ENDMDL
