MODEL 1
REMARK VINA RESULT:      45.4      0.000      0.000
REMARK  5 active torsions:
REMARK  status: ('A' for Active; 'I' for Inactive)
REMARK    1  A    between atoms: C_6  and  C_1 
REMARK    2  A    between atoms: C_7  and  C_6 
REMARK    3  A    between atoms: C_9  and  C_19 
REMARK       I    between atoms: N_17  and  C_9 
REMARK    4  A    between atoms: O_20  and  C_18 
REMARK    5  A    between atoms: C_19  and  O_20 
ROOT
ATOM      1  C   UNL d   1      57.861  49.645  50.801  0.00  0.00     0.141 A 
ATOM      2  C   UNL d   1      59.163  49.680  50.514  0.00  0.00     0.064 A 
ATOM      3  C   UNL d   1      58.404  49.676  50.182  0.00  0.00     0.220 A 
ATOM      4  C   UNL d   1      59.081  49.651  51.340  0.00  0.00     0.105 A 
ATOM      5  O   UNL d   1      58.271  49.629  51.516  0.00  0.00    -0.304 OA
ATOM      6  C   UNL d   1      59.755  49.649  51.814  0.00  0.00     0.050 A 
ATOM      7  C   UNL d   1      59.918  49.707  50.173  0.00  0.00     0.007 A 
ATOM      8  O   UNL d   1      58.228  49.700  49.378  0.00  0.00    -0.284 OA
ATOM      9  C   UNL d   1      60.505  49.675  51.473  0.00  0.00     0.102 A 
ATOM     10  C   UNL d   1      60.587  49.704  50.657  0.00  0.00     0.025 A 
ENDROOT
BRANCH   1  11
ATOM     11  C   UNL d   1      57.035  49.631  50.718  0.00  0.00     0.053 C 
BRANCH  11  12
ATOM     12  C   UNL d   1      56.690  49.265  50.059  0.00  0.00     0.102 A 
ATOM     13  O   UNL d   1      56.693  48.454  49.905  0.00  0.00    -0.307 OA
ATOM     14  C   UNL d   1      56.291  48.337  49.198  0.00  0.00     0.100 A 
ATOM     15  C   UNL d   1      56.158  47.606  48.829  0.00  0.00     0.027 C 
ATOM     16  C   UNL d   1      56.039  49.069  48.912  0.00  0.00     0.027 A 
ATOM     17  C   UNL d   1      56.292  49.646  49.455  0.00  0.00     0.027 A 
ENDBRANCH  11  12
ENDBRANCH   1  11
BRANCH   9  18
ATOM     18  O   UNL d   1      61.178  49.673  51.957  0.00  0.00    -0.300 OA
BRANCH  18  19
ATOM     19  C   UNL d   1      61.759  49.110  51.850  0.00  0.00     0.187 C 
BRANCH  19  20
ATOM     20  C   UNL d   1      61.654  48.347  52.145  0.00  0.00     0.323 C 
ATOM     21  O   UNL d   1      61.749  48.198  52.946  0.00  0.00    -0.261 OA
ATOM     22  N   UNL d   1      61.452  47.729  51.630  0.00  0.00    -0.083 NA
ATOM     23  N   UNL d   1      61.345  46.961  51.925  0.00  0.00    -0.019 N 
ENDBRANCH  19  20
ENDBRANCH  18  19
ENDBRANCH   9  18
TORSDOF 5
ENDMDL
MODEL 2
REMARK VINA RESULT:      46.7      1.968      2.461
REMARK  5 active torsions:
REMARK  status: ('A' for Active; 'I' for Inactive)
REMARK    1  A    between atoms: C_6  and  C_1 
REMARK    2  A    between atoms: C_7  and  C_6 
REMARK    3  A    between atoms: C_9  and  C_19 
REMARK       I    between atoms: N_17  and  C_9 
REMARK    4  A    between atoms: O_20  and  C_18 
REMARK    5  A    between atoms: C_19  and  O_20 
ROOT
ATOM      1  C   UNL d   1      59.235  49.342  51.073  0.00  0.00     0.141 A 
ATOM      2  C   UNL d   1      60.500  48.923  51.104  0.00  0.00     0.064 A 
ATOM      3  C   UNL d   1      59.925  49.347  51.522  0.00  0.00     0.220 A 
ATOM      4  C   UNL d   1      60.158  48.658  50.396  0.00  0.00     0.105 A 
ATOM      5  O   UNL d   1      59.372  48.919  50.378  0.00  0.00    -0.304 OA
ATOM      6  C   UNL d   1      60.611  48.217  49.867  0.00  0.00     0.050 A 
ATOM      7  C   UNL d   1      61.292  48.743  51.275  0.00  0.00     0.007 A 
ATOM      8  O   UNL d   1      60.028  49.707  52.256  0.00  0.00    -0.284 OA
ATOM      9  C   UNL d   1      61.398  48.039  50.039  0.00  0.00     0.102 A 
ATOM     10  C   UNL d   1      61.736  48.301  50.739  0.00  0.00     0.025 A 
ENDROOT
BRANCH   1  11
ATOM     11  C   UNL d   1      58.518  49.703  51.284  0.00  0.00     0.053 C 
BRANCH  11  12
ATOM     12  C   UNL d   1      57.855  49.628  50.792  0.00  0.00     0.102 A 
ATOM     13  O   UNL d   1      57.858  49.694  49.970  0.00  0.00    -0.307 OA
ATOM     14  C   UNL d   1      57.086  49.582  49.711  0.00  0.00     0.100 A 
ATOM     15  C   UNL d   1      56.829  49.601  48.923  0.00  0.00     0.027 C 
ATOM     16  C   UNL d   1      56.604  49.447  50.367  0.00  0.00     0.027 A 
ATOM     17  C   UNL d   1      57.091  49.477  51.042  0.00  0.00     0.027 A 
ENDBRANCH  11  12
ENDBRANCH   1  11
BRANCH   9  18
ATOM     18  O   UNL d   1      61.847  47.595  49.502  0.00  0.00    -0.300 OA
BRANCH  18  19
ATOM     19  C   UNL d   1      61.693  46.801  49.397  0.00  0.00     0.187 C 
BRANCH  19  20
ATOM     20  C   UNL d   1      62.289  46.244  49.523  0.00  0.00     0.323 C 
ATOM     21  O   UNL d   1      62.637  46.173  50.262  0.00  0.00    -0.261 OA
ATOM     22  N   UNL d   1      62.535  45.756  48.900  0.00  0.00    -0.083 NA
ATOM     23  N   UNL d   1      63.135  45.195  49.024  0.00  0.00    -0.019 N 
ENDBRANCH  19  20
ENDBRANCH  18  19
ENDBRANCH   9  18
TORSDOF 5
ENDMDL
