MODEL 1
REMARK VINA RESULT:      65.1      0.000      0.000
REMARK  3 active torsions:
REMARK  status: ('A' for Active; 'I' for Inactive)
REMARK    1  A    between atoms: C_6  and  C_1 
REMARK    2  A    between atoms: O_10  and  C_6 
REMARK    3  A    between atoms: C_19  and  O_10 
ROOT
ATOM      1  C   UNL d   1     -51.641  25.272  33.720  0.00  0.00     0.081 A 
ATOM      2  C   UNL d   1     -50.659  26.344  33.533  0.00  0.00     0.056 A 
ATOM      3  C   UNL d   1     -51.250  26.896  33.593  0.00  0.00     0.080 A 
ATOM      4  C   UNL d   1     -52.232  25.824  33.780  0.00  0.00     0.086 A 
ATOM      5  C   UNL d   1     -50.827  25.537  33.592  0.00  0.00     0.013 A 
ATOM      6  N   UNL d   1     -52.046  26.676  33.716  0.00  0.00    -0.246 NA
ATOM      7  C   UNL d   1     -49.876  26.575  33.411  0.00  0.00     0.193 A 
ATOM      8  C   UNL d   1     -51.095  27.714  33.535  0.00  0.00    -0.003 A 
ATOM      9  C   UNL d   1     -50.295  27.937  33.411  0.00  0.00     0.042 A 
ATOM     10  C   UNL d   1     -49.704  27.385  33.351  0.00  0.00     0.019 A 
ATOM     11  O   UNL d   1     -49.284  26.022  33.351  0.00  0.00    -0.287 OA
ATOM     12  C   UNL d   1     -49.869  24.642  33.495  0.00  0.00     0.020 A 
ATOM     13  N   UNL d   1     -49.498  23.269  33.502  0.00  0.00    -0.242 NA
ATOM     14  C   UNL d   1     -53.029  25.604  33.903  0.00  0.00     0.021 C 
ATOM     15  C   UNL d   1     -50.099  23.830  33.563  0.00  0.00     0.099 A 
ATOM     16  C   UNL d   1     -50.365  28.735  33.386  0.00  0.00     0.009 C 
ATOM     17  C   UNL d   1     -49.763  28.517  33.310  0.00  0.00     0.009 C 
ATOM     18  C   UNL d   1     -48.696  23.546  33.375  0.00  0.00     0.099 A 
ATOM     19  C   UNL d   1     -49.113  24.905  33.375  0.00  0.00     0.003 A 
ATOM     20  C   UNL d   1     -48.513  24.344  33.314  0.00  0.00     0.021 A 
ENDROOT
BRANCH   1  21
ATOM     21  C   UNL d   1     -51.809  24.465  33.779  0.00  0.00     0.301 C 
ATOM     22  O   UNL d   1     -51.358  23.981  34.248  0.00  0.00    -0.259 OA
BRANCH  21  23
ATOM     23  O   UNL d   1     -52.447  24.163  33.351  0.00  0.00    -0.273 OA
BRANCH  23  24
ATOM     24  C   UNL d   1     -53.082  23.964  33.711  0.00  0.00     0.103 C 
ATOM     25  C   UNL d   1     -53.637  23.595  33.316  0.00  0.00     0.027 C 
ATOM     26  C   UNL d   1     -53.165  24.128  34.448  0.00  0.00     0.027 C 
ENDBRANCH  23  24
ENDBRANCH  21  23
ENDBRANCH   1  21
TORSDOF 3
ENDMDL
