MODEL 1
REMARK VINA RESULT:      -8.4      0.000      0.000
REMARK  4 active torsions:
REMARK  status: ('A' for Active; 'I' for Inactive)
REMARK    1  A    between atoms: S_2  and  N_1 
REMARK    2  A    between atoms: C_6  and  S_2 
REMARK    3  A    between atoms: C_10  and  C_6 
REMARK    4  A    between atoms: C_11  and  C_10 
ROOT
ATOM      1  S   UNL d   1      52.650  32.979  53.284  0.00  0.00     0.287 S 
ATOM      2  O   UNL d   1      53.379  33.055  52.900  0.00  0.00    -0.198 OA
ATOM      3  O   UNL d   1      51.928  32.889  53.661  0.00  0.00    -0.198 OA
ENDROOT
BRANCH   1   4
ATOM      4  N   UNL d   1      52.626  33.784  53.440  0.00  0.00    -0.152 N 
ATOM      5  N   UNL d   1      53.035  34.166  54.052  0.00  0.00    -0.155 NA
ATOM      6  C   UNL d   1      52.852  34.973  54.005  0.00  0.00     0.104 A 
ATOM      7  C   UNL d   1      53.137  35.565  54.506  0.00  0.00     0.022 C 
ATOM      8  C   UNL d   1      52.335  35.077  53.368  0.00  0.00     0.041 A 
ATOM      9  C   UNL d   1      52.195  34.344  53.019  0.00  0.00     0.096 A 
ATOM     10  C   UNL d   1      51.713  34.200  52.370  0.00  0.00     0.022 C 
ENDBRANCH   1   4
BRANCH   1  11
ATOM     11  C   UNL d   1      52.657  32.165  53.135  0.00  0.00     0.117 C 
BRANCH  11  12
ATOM     12  C   UNL d   1      53.285  31.701  53.418  0.00  0.00     0.014 C 
BRANCH  12  13
ATOM     13  C   UNL d   1      53.212  30.881  53.455  0.00  0.00     0.001 A 
ATOM     14  C   UNL d   1      52.930  30.470  52.812  0.00  0.00     0.000 A 
ATOM     15  C   UNL d   1      52.856  29.651  52.849  0.00  0.00     0.000 A 
ATOM     16  C   UNL d   1      53.068  29.248  53.538  0.00  0.00     0.000 A 
ATOM     17  C   UNL d   1      53.353  29.670  54.186  0.00  0.00     0.000 A 
ATOM     18  C   UNL d   1      53.426  30.490  54.149  0.00  0.00     0.000 A 
ENDBRANCH  12  13
ENDBRANCH  11  12
ENDBRANCH   1  11
TORSDOF 4
ENDMDL
MODEL 2
REMARK VINA RESULT:      -8.0      1.478      3.602
REMARK  4 active torsions:
REMARK  status: ('A' for Active; 'I' for Inactive)
REMARK    1  A    between atoms: S_2  and  N_1 
REMARK    2  A    between atoms: C_6  and  S_2 
REMARK    3  A    between atoms: C_10  and  C_6 
REMARK    4  A    between atoms: C_11  and  C_10 
ROOT
ATOM      1  S   UNL d   1      52.774  33.317  53.493  0.00  0.00     0.287 S 
ATOM      2  O   UNL d   1      53.211  33.647  52.873  0.00  0.00    -0.198 OA
ATOM      3  O   UNL d   1      52.329  32.991  54.099  0.00  0.00    -0.198 OA
ENDROOT
BRANCH   1   4
ATOM      4  N   UNL d   1      53.454  33.197  53.935  0.00  0.00    -0.152 N 
ATOM      5  N   UNL d   1      53.827  33.771  54.404  0.00  0.00    -0.155 NA
ATOM      6  C   UNL d   1      54.491  33.414  54.750  0.00  0.00     0.104 A 
ATOM      7  C   UNL d   1      55.027  33.779  55.262  0.00  0.00     0.022 C 
ATOM      8  C   UNL d   1      54.517  32.628  54.490  0.00  0.00     0.041 A 
ATOM      9  C   UNL d   1      53.878  32.495  53.988  0.00  0.00     0.096 A 
ATOM     10  C   UNL d   1      53.699  31.788  53.610  0.00  0.00     0.022 C 
ENDBRANCH   1   4
BRANCH   1  11
ATOM     11  C   UNL d   1      52.077  33.429  53.061  0.00  0.00     0.117 C 
BRANCH  11  12
ATOM     12  C   UNL d   1      51.752  34.191  52.994  0.00  0.00     0.014 C 
BRANCH  12  13
ATOM     13  C   UNL d   1      51.016  34.299  52.641  0.00  0.00     0.001 A 
ATOM     14  C   UNL d   1      50.918  34.135  51.850  0.00  0.00     0.000 A 
ATOM     15  C   UNL d   1      50.182  34.243  51.498  0.00  0.00     0.000 A 
ATOM     16  C   UNL d   1      49.544  34.517  51.946  0.00  0.00     0.000 A 
ATOM     17  C   UNL d   1      49.651  34.681  52.748  0.00  0.00     0.000 A 
ATOM     18  C   UNL d   1      50.388  34.573  53.100  0.00  0.00     0.000 A 
ENDBRANCH  12  13
ENDBRANCH  11  12
ENDBRANCH   1  11
TORSDOF 4
ENDMDL
MODEL 3
REMARK VINA RESULT:      -7.7      1.448      4.101
REMARK  4 active torsions:
REMARK  status: ('A' for Active; 'I' for Inactive)
REMARK    1  A    between atoms: S_2  and  N_1 
REMARK    2  A    between atoms: C_6  and  S_2 
REMARK    3  A    between atoms: C_10  and  C_6 
REMARK    4  A    between atoms: C_11  and  C_10 
ROOT
ATOM      1  S   UNL d   1      53.258  31.582  53.580  0.00  0.00     0.287 S 
ATOM      2  O   UNL d   1      54.075  31.605  53.702  0.00  0.00    -0.198 OA
ATOM      3  O   UNL d   1      52.447  31.574  53.457  0.00  0.00    -0.198 OA
ENDROOT
BRANCH   1   4
ATOM      4  N   UNL d   1      53.247  30.766  53.667  0.00  0.00    -0.152 N 
ATOM      5  N   UNL d   1      53.352  30.359  54.383  0.00  0.00    -0.155 NA
ATOM      6  C   UNL d   1      53.300  29.549  54.216  0.00  0.00     0.104 A 
ATOM      7  C   UNL d   1      53.371  28.936  54.764  0.00  0.00     0.022 C 
ATOM      8  C   UNL d   1      53.164  29.468  53.403  0.00  0.00     0.041 A 
ATOM      9  C   UNL d   1      53.132  30.218  53.065  0.00  0.00     0.096 A 
ATOM     10  C   UNL d   1      53.007  30.387  52.271  0.00  0.00     0.022 C 
ENDBRANCH   1   4
BRANCH   1  11
ATOM     11  C   UNL d   1      53.249  32.405  53.489  0.00  0.00     0.117 C 
BRANCH  11  12
ATOM     12  C   UNL d   1      52.910  32.880  54.080  0.00  0.00     0.014 C 
BRANCH  12  13
ATOM     13  C   UNL d   1      52.937  33.701  54.018  0.00  0.00     0.001 A 
ATOM     14  C   UNL d   1      52.622  34.069  53.364  0.00  0.00     0.000 A 
ATOM     15  C   UNL d   1      52.650  34.889  53.302  0.00  0.00     0.000 A 
ATOM     16  C   UNL d   1      52.997  35.338  53.903  0.00  0.00     0.000 A 
ATOM     17  C   UNL d   1      53.314  34.959  54.563  0.00  0.00     0.000 A 
ATOM     18  C   UNL d   1      53.287  34.138  54.624  0.00  0.00     0.000 A 
ENDBRANCH  12  13
ENDBRANCH  11  12
ENDBRANCH   1  11
TORSDOF 4
ENDMDL
MODEL 4
REMARK VINA RESULT:      -7.2      2.235      2.951
REMARK  4 active torsions:
REMARK  status: ('A' for Active; 'I' for Inactive)
REMARK    1  A    between atoms: S_2  and  N_1 
REMARK    2  A    between atoms: C_6  and  S_2 
REMARK    3  A    between atoms: C_10  and  C_6 
REMARK    4  A    between atoms: C_11  and  C_10 
ROOT
ATOM      1  S   UNL d   1      51.730  34.075  53.093  0.00  0.00     0.287 S 
ATOM      2  O   UNL d   1      51.441  33.322  53.278  0.00  0.00    -0.198 OA
ATOM      3  O   UNL d   1      52.031  34.815  52.913  0.00  0.00    -0.198 OA
ENDROOT
BRANCH   1   4
ATOM      4  N   UNL d   1      50.981  34.332  52.880  0.00  0.00    -0.152 N 
ATOM      5  N   UNL d   1      50.429  34.677  53.394  0.00  0.00    -0.155 NA
ATOM      6  C   UNL d   1      49.751  34.852  52.949  0.00  0.00     0.104 A 
ATOM      7  C   UNL d   1      49.060  35.200  53.235  0.00  0.00     0.022 C 
ATOM      8  C   UNL d   1      49.896  34.613  52.169  0.00  0.00     0.041 A 
ATOM      9  C   UNL d   1      50.653  34.293  52.127  0.00  0.00     0.096 A 
ATOM     10  C   UNL d   1      51.014  33.991  51.454  0.00  0.00     0.022 C 
ENDBRANCH   1   4
BRANCH   1  11
ATOM     11  C   UNL d   1      52.493  33.832  53.303  0.00  0.00     0.117 C 
BRANCH  11  12
ATOM     12  C   UNL d   1      52.671  33.677  54.099  0.00  0.00     0.014 C 
BRANCH  12  13
ATOM     13  C   UNL d   1      53.450  33.550  54.333  0.00  0.00     0.001 A 
ATOM     14  C   UNL d   1      53.914  33.020  53.926  0.00  0.00     0.000 A 
ATOM     15  C   UNL d   1      54.693  32.892  54.160  0.00  0.00     0.000 A 
ATOM     16  C   UNL d   1      55.003  33.302  54.807  0.00  0.00     0.000 A 
ATOM     17  C   UNL d   1      54.527  33.838  55.216  0.00  0.00     0.000 A 
ATOM     18  C   UNL d   1      53.748  33.965  54.981  0.00  0.00     0.000 A 
ENDBRANCH  12  13
ENDBRANCH  11  12
ENDBRANCH   1  11
TORSDOF 4
ENDMDL
