MODEL 1
REMARK VINA RESULT:      68.2      0.000      0.000
REMARK  5 active torsions:
REMARK  status: ('A' for Active; 'I' for Inactive)
REMARK    1  A    between atoms: C_11  and  C_1 
REMARK    2  A    between atoms: O_19  and  C_11 
REMARK    3  A    between atoms: C_16  and  N_12 
REMARK    4  A    between atoms: C_18  and  C_16 
REMARK    5  A    between atoms: C_26  and  O_19 
ROOT
ATOM      1  C   UNL d   1     -58.450 -98.917 -43.837  0.00  0.00     0.088 A 
ATOM      2  C   UNL d   1     -58.349 -98.885 -44.646  0.00  0.00     0.033 A 
ATOM      3  C   UNL d   1     -57.653 -98.856 -45.115  0.00  0.00     0.043 A 
ATOM      4  C   UNL d   1     -59.093 -98.883 -45.001  0.00  0.00     0.100 A 
ATOM      5  C   UNL d   1     -59.276 -98.937 -43.687  0.00  0.00     0.105 A 
ATOM      6  O   UNL d   1     -59.667 -98.915 -44.416  0.00  0.00    -0.307 OA
ATOM      7  C   UNL d   1     -57.723 -98.825 -45.933  0.00  0.00     0.103 A 
ATOM      8  O   UNL d   1     -57.041 -98.796 -46.407  0.00  0.00    -0.288 OA
ATOM      9  C   UNL d   1     -59.148 -98.853 -45.832  0.00  0.00     0.025 A 
ATOM     10  C   UNL d   1     -58.461 -98.824 -46.294  0.00  0.00     0.025 A 
ATOM     11  N   UNL d   1     -56.238 -98.828 -45.224  0.00  0.00    -0.282 N 
ATOM     12  C   UNL d   1     -56.922 -98.857 -44.759  0.00  0.00     0.084 A 
ATOM     13  C   UNL d   1     -56.299 -98.798 -46.049  0.00  0.00     0.209 A 
ATOM     14  C   UNL d   1     -59.631 -98.971 -42.943  0.00  0.00     0.027 C 
ATOM     15  C   UNL d   1     -59.892 -98.851 -46.187  0.00  0.00     0.002 A 
ATOM     16  C   UNL d   1     -58.517 -98.794 -47.112  0.00  0.00     0.002 A 
ATOM     17  C   UNL d   1     -59.944 -98.821 -47.014  0.00  0.00     0.000 A 
ATOM     18  C   UNL d   1     -59.261 -98.792 -47.473  0.00  0.00     0.000 A 
ENDROOT
BRANCH  11  19
ATOM     19  C   UNL d   1     -55.498 -98.829 -44.876  0.00  0.00     0.084 C 
BRANCH  19  20
ATOM     20  C   UNL d   1     -55.259 -99.481 -44.418  0.00  0.00     0.037 A 
ATOM     21  C   UNL d   1     -55.224 -99.416 -43.594  0.00  0.00     0.100 A 
ATOM     22  N   UNL d   1     -54.988-100.059 -43.146  0.00  0.00    -0.242 NA
ATOM     23  C   UNL d   1     -54.785-100.770 -43.510  0.00  0.00     0.099 A 
ATOM     24  C   UNL d   1     -54.821-100.830 -44.326  0.00  0.00     0.021 A 
ATOM     25  C   UNL d   1     -55.058-100.187 -44.786  0.00  0.00     0.005 A 
ENDBRANCH  19  20
ENDBRANCH  11  19
BRANCH   1  26
ATOM     26  C   UNL d   1     -57.849 -98.929 -43.279  0.00  0.00     0.302 C 
ATOM     27  O   UNL d   1     -57.078 -98.761 -43.489  0.00  0.00    -0.259 OA
BRANCH  26  28
ATOM     28  O   UNL d   1     -58.021 -99.114 -42.486  0.00  0.00    -0.271 OA
BRANCH  28  29
ATOM     29  C   UNL d   1     -58.671 -98.771 -42.131  0.00  0.00     0.126 C 
ATOM     30  C   UNL d   1     -58.816 -98.888 -41.331  0.00  0.00     0.029 C 
ENDBRANCH  28  29
ENDBRANCH  26  28
ENDBRANCH   1  26
TORSDOF 5
ENDMDL
