MODEL 1
REMARK VINA RESULT:      19.9      0.000      0.000
REMARK  6 active torsions:
REMARK  status: ('A' for Active; 'I' for Inactive)
REMARK    1  A    between atoms: C_3  and  N_1 
REMARK    2  A    between atoms: C_2  and  N_5 
REMARK    3  A    between atoms: N_6  and  C_2 
REMARK    4  A    between atoms: N_5  and  N_9 
REMARK    5  A    between atoms: C_13  and  N_6 
REMARK    6  A    between atoms: N_9  and  C_12 
ROOT
ATOM      1  N   UNL d   1      14.417  13.057  -0.258  0.00  0.00    -0.276 N 
ATOM      2  H   UNL d   1      13.680  13.412  -0.357  0.00  0.00     0.189 HD
ENDROOT
BRANCH   1   3
ATOM      3  C   UNL d   1      14.495  12.238  -0.409  0.00  0.00     0.191 C 
ATOM      4  S   UNL d   1      15.194  11.853  -0.183  0.00  0.00    -0.039 SA
BRANCH   3   5
ATOM      5  N   UNL d   1      13.896  11.806  -0.776  0.00  0.00    -0.331 N 
ATOM      6  H   UNL d   1      13.377  11.377  -0.298  0.00  0.00     0.168 HD
BRANCH   5   7
ATOM      7  C   UNL d   1      13.812  11.798  -1.597  0.00  0.00     0.058 A 
ATOM      8  C   UNL d   1      13.051  11.803  -1.928  0.00  0.00     0.017 A 
ATOM      9  C   UNL d   1      12.963  11.796  -2.738  0.00  0.00     0.002 A 
ATOM     10  C   UNL d   1      13.620  11.784  -3.237  0.00  0.00     0.000 A 
ATOM     11  C   UNL d   1      14.382  11.779  -2.907  0.00  0.00     0.002 A 
ATOM     12  C   UNL d   1      14.465  11.787  -2.085  0.00  0.00     0.017 A 
ENDBRANCH   5   7
ENDBRANCH   3   5
ENDBRANCH   1   3
BRANCH   1  13
ATOM     13  N   UNL d   1      15.053  13.506  -0.016  0.00  0.00    -0.297 N 
ATOM     14  H   UNL d   1      15.638  13.166   0.486  0.00  0.00     0.187 HD
BRANCH  13  15
ATOM     15  C   UNL d   1      15.143  14.306  -0.255  0.00  0.00     0.072 A 
ATOM     16  C   UNL d   1      14.517  14.676  -0.644  0.00  0.00     0.020 A 
ATOM     17  C   UNL d   1      14.574  15.455  -0.889  0.00  0.00     0.025 A 
ATOM     18  C   UNL d   1      15.278  15.866  -0.738  0.00  0.00     0.127 A 
ATOM     19  C   UNL d   1      15.905  15.496  -0.350  0.00  0.00     0.025 A 
ATOM     20  C   UNL d   1      15.827  14.715  -0.111  0.00  0.00     0.020 A 
BRANCH  18  21
ATOM     21  N   UNL d   1      15.344  16.688  -0.995  0.00  0.00    -0.114 N 
ATOM     22  O   UNL d   1      15.748  17.228  -0.520  0.00  0.00    -0.532 OA
ATOM     23  O   UNL d   1      15.002  16.903  -1.706  0.00  0.00    -0.532 OA
ENDBRANCH  18  21
ENDBRANCH  13  15
ENDBRANCH   1  13
TORSDOF 6
ENDMDL
