MODEL 1
REMARK VINA RESULT:      10.9      0.000      0.000
REMARK  4 active torsions:
REMARK  status: ('A' for Active; 'I' for Inactive)
REMARK    1  A    between atoms: N_3  and  C_8 
REMARK    2  A    between atoms: S_11  and  C_4 
REMARK    3  A    between atoms: C_15  and  S_11 
REMARK    4  A    between atoms: C_16  and  C_15 
ROOT
ATOM      1  C   UNL d   1      45.675 -16.811  44.138  0.00  0.00     0.037 C 
ENDROOT
BRANCH   1   2
ATOM      2  S   UNL d   1      46.272 -17.293  44.430  0.00  0.00    -0.067 SA
BRANCH   2   3
ATOM      3  C   UNL d   1      46.358 -18.061  44.135  0.00  0.00     0.117 A 
ATOM      4  N   UNL d   1      46.434 -18.188  43.331  0.00  0.00    -0.184 NA
ATOM      5  C   UNL d   1      46.519 -18.956  43.036  0.00  0.00     0.369 A 
ATOM      6  N   UNL d   1      46.529 -19.596  43.546  0.00  0.00    -0.191 NA
ATOM      7  O   UNL d   1      46.596 -19.080  42.224  0.00  0.00    -0.242 OA
ATOM      8  C   UNL d   1      46.453 -19.471  44.357  0.00  0.00     0.088 A 
ATOM      9  C   UNL d   1      46.367 -18.703  44.652  0.00  0.00     0.045 A 
ATOM     10  C   UNL d   1      46.462 -20.116  44.882  0.00  0.00     0.021 C 
ENDBRANCH   2   3
ENDBRANCH   1   2
BRANCH   1  11
ATOM     11  C   UNL d   1      45.656 -16.010  44.314  0.00  0.00     0.007 A 
ATOM     12  C   UNL d   1      46.240 -15.496  44.030  0.00  0.00     0.002 A 
ATOM     13  C   UNL d   1      46.219 -14.701  44.206  0.00  0.00     0.024 A 
ATOM     14  C   UNL d   1      45.610 -14.406  44.672  0.00  0.00     0.127 A 
ATOM     15  C   UNL d   1      45.033 -14.901  44.955  0.00  0.00     0.024 A 
ATOM     16  C   UNL d   1      45.045 -15.708  44.782  0.00  0.00     0.002 A 
BRANCH  14  17
ATOM     17  N   UNL d   1      45.580 -13.603  44.855  0.00  0.00    -0.114 N 
ATOM     18  O   UNL d   1      46.274 -13.168  44.938  0.00  0.00    -0.532 OA
ATOM     19  O   UNL d   1      44.848 -13.236  44.955  0.00  0.00    -0.532 OA
ENDBRANCH  14  17
ENDBRANCH   1  11
TORSDOF 4
ENDMDL
MODEL 2
REMARK VINA RESULT:      11.6      1.113      4.773
REMARK  4 active torsions:
REMARK  status: ('A' for Active; 'I' for Inactive)
REMARK    1  A    between atoms: N_3  and  C_8 
REMARK    2  A    between atoms: S_11  and  C_4 
REMARK    3  A    between atoms: C_15  and  S_11 
REMARK    4  A    between atoms: C_16  and  C_15 
ROOT
ATOM      1  C   UNL d   1      45.947 -16.576  44.033  0.00  0.00     0.037 C 
ENDROOT
BRANCH   1   2
ATOM      2  S   UNL d   1      45.883 -16.224  44.772  0.00  0.00    -0.067 SA
BRANCH   2   3
ATOM      3  C   UNL d   1      45.600 -15.450  44.832  0.00  0.00     0.117 A 
ATOM      4  N   UNL d   1      44.795 -15.305  44.863  0.00  0.00    -0.184 NA
ATOM      5  C   UNL d   1      44.512 -14.531  44.923  0.00  0.00     0.369 A 
ATOM      6  N   UNL d   1      45.033 -13.901  44.951  0.00  0.00    -0.191 NA
ATOM      7  O   UNL d   1      43.700 -14.389  44.954  0.00  0.00    -0.242 OA
ATOM      8  C   UNL d   1      45.845 -14.043  44.921  0.00  0.00     0.088 A 
ATOM      9  C   UNL d   1      46.129 -14.817  44.861  0.00  0.00     0.045 A 
ATOM     10  C   UNL d   1      46.382 -13.408  44.949  0.00  0.00     0.021 C 
ENDBRANCH   2   3
ENDBRANCH   1   2
BRANCH   1  11
ATOM     11  C   UNL d   1      46.100 -17.379  43.961  0.00  0.00     0.007 A 
ATOM     12  C   UNL d   1      46.182 -17.861  44.629  0.00  0.00     0.002 A 
ATOM     13  C   UNL d   1      46.333 -18.658  44.553  0.00  0.00     0.024 A 
ATOM     14  C   UNL d   1      46.406 -18.987  43.804  0.00  0.00     0.127 A 
ATOM     15  C   UNL d   1      46.327 -18.524  43.143  0.00  0.00     0.024 A 
ATOM     16  C   UNL d   1      46.173 -17.715  43.209  0.00  0.00     0.002 A 
BRANCH  14  17
ATOM     17  N   UNL d   1      46.559 -19.792  43.718  0.00  0.00    -0.114 N 
ATOM     18  O   UNL d   1      46.640 -20.125  42.970  0.00  0.00    -0.532 OA
ATOM     19  O   UNL d   1      46.631 -20.265  44.390  0.00  0.00    -0.532 OA
ENDBRANCH  14  17
ENDBRANCH   1  11
TORSDOF 4
ENDMDL
MODEL 3
REMARK VINA RESULT:      12.0      0.895      1.248
REMARK  4 active torsions:
REMARK  status: ('A' for Active; 'I' for Inactive)
REMARK    1  A    between atoms: N_3  and  C_8 
REMARK    2  A    between atoms: S_11  and  C_4 
REMARK    3  A    between atoms: C_15  and  S_11 
REMARK    4  A    between atoms: C_16  and  C_15 
ROOT
ATOM      1  C   UNL d   1      45.689 -16.657  44.018  0.00  0.00     0.037 C 
ENDROOT
BRANCH   1   2
ATOM      2  S   UNL d   1      46.043 -17.024  43.375  0.00  0.00    -0.067 SA
BRANCH   2   3
ATOM      3  C   UNL d   1      46.190 -17.837  43.399  0.00  0.00     0.117 A 
ATOM      4  N   UNL d   1      46.251 -18.225  44.117  0.00  0.00    -0.184 NA
ATOM      5  C   UNL d   1      46.399 -19.038  44.142  0.00  0.00     0.369 A 
ATOM      6  N   UNL d   1      46.485 -19.463  43.448  0.00  0.00    -0.191 NA
ATOM      7  O   UNL d   1      46.459 -19.425  44.867  0.00  0.00    -0.242 OA
ATOM      8  C   UNL d   1      46.425 -19.076  42.722  0.00  0.00     0.088 A 
ATOM      9  C   UNL d   1      46.278 -18.262  42.698  0.00  0.00     0.045 A 
ATOM     10  C   UNL d   1      46.512 -19.501  42.013  0.00  0.00     0.021 C 
ENDBRANCH   2   3
ENDBRANCH   1   2
BRANCH   1  11
ATOM     11  C   UNL d   1      45.676 -15.839  44.082  0.00  0.00     0.007 A 
ATOM     12  C   UNL d   1      46.320 -15.380  43.836  0.00  0.00     0.002 A 
ATOM     13  C   UNL d   1      46.304 -14.569  43.901  0.00  0.00     0.024 A 
ATOM     14  C   UNL d   1      45.640 -14.200  44.215  0.00  0.00     0.127 A 
ATOM     15  C   UNL d   1      45.005 -14.641  44.460  0.00  0.00     0.024 A 
ATOM     16  C   UNL d   1      45.010 -15.464  44.398  0.00  0.00     0.002 A 
BRANCH  14  17
ATOM     17  N   UNL d   1      45.615 -13.380  44.285  0.00  0.00    -0.114 N 
ATOM     18  O   UNL d   1      46.028 -12.999  44.887  0.00  0.00    -0.532 OA
ATOM     19  O   UNL d   1      45.173 -12.940  43.745  0.00  0.00    -0.532 OA
ENDBRANCH  14  17
ENDBRANCH   1  11
TORSDOF 4
ENDMDL
