MODEL 1
REMARK VINA RESULT:      87.9      0.000      0.000
REMARK  4 active torsions:
REMARK  status: ('A' for Active; 'I' for Inactive)
REMARK    1  A    between atoms: C_10  and  C_3 
REMARK    2  A    between atoms: C_12  and  C_6 
REMARK    3  A    between atoms: O_15  and  C_10 
REMARK    4  A    between atoms: C_22  and  O_15 
ROOT
ATOM      1  C   UNL d   1     -47.755  31.156  34.772  0.00  0.00     0.057 A 
ATOM      2  C   UNL d   1     -48.294  31.375  34.187  0.00  0.00     0.085 A 
ATOM      3  C   UNL d   1     -48.363  29.870  34.852  0.00  0.00     0.081 A 
ATOM      4  N   UNL d   1     -48.866  30.850  33.930  0.00  0.00    -0.245 NA
ATOM      5  C   UNL d   1     -47.253  31.795  34.912  0.00  0.00     0.197 A 
ATOM      6  C   UNL d   1     -47.793  30.404  35.102  0.00  0.00     0.013 A 
ATOM      7  C   UNL d   1     -48.904  30.089  34.264  0.00  0.00     0.086 A 
ATOM      8  C   UNL d   1     -48.123  32.153  33.963  0.00  0.00     0.021 A 
ATOM      9  C   UNL d   1     -47.482  32.413  34.408  0.00  0.00     0.041 A 
ATOM     10  O   UNL d   1     -46.630  31.816  35.456  0.00  0.00    -0.286 OA
ATOM     11  C   UNL d   1     -49.478  29.555  34.010  0.00  0.00     0.021 C 
ATOM     12  C   UNL d   1     -48.472  32.666  33.405  0.00  0.00     0.002 A 
ATOM     13  C   UNL d   1     -47.182  33.178  34.306  0.00  0.00     0.003 A 
ATOM     14  C   UNL d   1     -47.533  33.683  33.750  0.00  0.00     0.000 A 
ATOM     15  C   UNL d   1     -48.172  33.423  33.306  0.00  0.00     0.000 A 
ENDROOT
BRANCH   6  16
ATOM     16  C   UNL d   1     -47.254  30.186  35.687  0.00  0.00     0.020 A 
ATOM     17  C   UNL d   1     -47.415  30.362  36.470  0.00  0.00     0.099 A 
ATOM     18  N   UNL d   1     -46.879  30.145  37.058  0.00  0.00    -0.242 NA
ATOM     19  C   UNL d   1     -46.177  29.749  36.858  0.00  0.00     0.099 A 
ATOM     20  C   UNL d   1     -46.016  29.572  36.063  0.00  0.00     0.021 A 
ATOM     21  C   UNL d   1     -46.554  29.790  35.477  0.00  0.00     0.003 A 
ENDBRANCH   6  16
BRANCH   3  22
ATOM     22  C   UNL d   1     -48.403  29.115  35.181  0.00  0.00     0.302 C 
ATOM     23  O   UNL d   1     -48.546  29.029  35.989  0.00  0.00    -0.259 OA
BRANCH  22  24
ATOM     24  O   UNL d   1     -48.299  28.450  34.707  0.00  0.00    -0.271 OA
BRANCH  24  25
ATOM     25  C   UNL d   1     -48.778  27.788  34.820  0.00  0.00     0.126 C 
ATOM     26  C   UNL d   1     -48.728  27.153  34.298  0.00  0.00     0.029 C 
ENDBRANCH  24  25
ENDBRANCH  22  24
ENDBRANCH   3  22
TORSDOF 4
ENDMDL
