MODEL 1
REMARK VINA RESULT:      -6.6      0.000      0.000
REMARK  7 active torsions:
REMARK  status: ('A' for Active; 'I' for Inactive)
REMARK    1  A    between atoms: C_6  and  C_13 
REMARK       I    between atoms: N_12  and  C_6 
REMARK    2  A    between atoms: O_8  and  C_7 
REMARK    3  A    between atoms: C_13  and  O_8 
REMARK    4  A    between atoms: O_14  and  C_10 
REMARK    5  A    between atoms: C_11  and  C_20 
REMARK    6  A    between atoms: C_15  and  N_12 
REMARK    7  A    between atoms: C_20  and  C_15 
ROOT
ATOM      1  C   UNL d   1     -43.616  12.913  21.659  0.00  0.00     0.304 C 
ATOM      2  O   UNL d   1     -43.298  12.183  21.883  0.00  0.00    -0.263 OA
ATOM      3  N   UNL d   1     -43.139  13.511  21.360  0.00  0.00    -0.205 NA
ENDROOT
BRANCH   1   4
ATOM      4  C   UNL d   1     -44.429  13.042  21.739  0.00  0.00     0.185 C 
BRANCH   4   5
ATOM      5  O   UNL d   1     -44.800  12.884  22.456  0.00  0.00    -0.298 OA
BRANCH   5   6
ATOM      6  C   UNL d   1     -45.564  13.145  22.585  0.00  0.00     0.122 A 
ATOM      7  C   UNL d   1     -46.126  12.635  22.910  0.00  0.00     0.117 A 
ATOM      8  O   UNL d   1     -46.074  11.843  23.157  0.00  0.00    -0.330 OA
ATOM      9  C   UNL d   1     -46.898  12.899  23.041  0.00  0.00     0.022 A 
ATOM     10  C   UNL d   1     -46.822  11.619  23.440  0.00  0.00     0.117 A 
ATOM     11  C   UNL d   1     -47.579  11.483  23.698  0.00  0.00     0.035 C 
ATOM     12  C   UNL d   1     -46.416  10.914  23.559  0.00  0.00     0.035 C 
ATOM     13  C   UNL d   1     -47.326  12.270  23.368  0.00  0.00     0.003 A 
ATOM     14  C   UNL d   1     -47.105  13.671  22.845  0.00  0.00     0.002 A 
ATOM     15  C   UNL d   1     -46.551  14.171  22.525  0.00  0.00     0.002 A 
ATOM     16  C   UNL d   1     -45.779  13.908  22.394  0.00  0.00     0.027 A 
ENDBRANCH   5   6
ENDBRANCH   4   5
ENDBRANCH   1   4
BRANCH   3  17
ATOM     17  C   UNL d   1     -42.335  13.384  21.281  0.00  0.00     0.102 C 
BRANCH  17  18
ATOM     18  C   UNL d   1     -41.905  13.765  20.683  0.00  0.00     0.023 C 
BRANCH  18  19
ATOM     19  C   UNL d   1     -41.119  13.964  20.798  0.00  0.00     0.024 A 
ATOM     20  C   UNL d   1     -40.653  14.194  20.157  0.00  0.00     0.094 A 
ATOM     21  C   UNL d   1     -39.860  14.394  20.286  0.00  0.00     0.024 A 
ATOM     22  C   UNL d   1     -39.534  14.365  21.043  0.00  0.00     0.002 A 
ATOM     23  C   UNL d   1     -39.992  14.138  21.681  0.00  0.00     0.000 A 
ATOM     24  C   UNL d   1     -40.781  13.937  21.570  0.00  0.00     0.002 A 
BRANCH  20  25
ATOM     25  O   UNL d   1     -40.972  14.223  19.410  0.00  0.00    -0.328 OA
ATOM     26  C   UNL d   1     -40.494  14.396  18.770  0.00  0.00     0.181 C 
ENDBRANCH  20  25
ENDBRANCH  18  19
ENDBRANCH  17  18
ENDBRANCH   3  17
TORSDOF 7
ENDMDL
MODEL 2
REMARK VINA RESULT:      -6.2      0.992      6.082
REMARK  7 active torsions:
REMARK  status: ('A' for Active; 'I' for Inactive)
REMARK    1  A    between atoms: C_6  and  C_13 
REMARK       I    between atoms: N_12  and  C_6 
REMARK    2  A    between atoms: O_8  and  C_7 
REMARK    3  A    between atoms: C_13  and  O_8 
REMARK    4  A    between atoms: O_14  and  C_10 
REMARK    5  A    between atoms: C_11  and  C_20 
REMARK    6  A    between atoms: C_15  and  N_12 
REMARK    7  A    between atoms: C_20  and  C_15 
ROOT
ATOM      1  C   UNL d   1     -43.198  12.919  21.469  0.00  0.00     0.304 C 
ATOM      2  O   UNL d   1     -43.053  12.174  21.799  0.00  0.00    -0.263 OA
ATOM      3  N   UNL d   1     -43.922  13.294  21.570  0.00  0.00    -0.205 NA
ENDROOT
BRANCH   1   4
ATOM      4  C   UNL d   1     -42.604  13.291  21.031  0.00  0.00     0.185 C 
BRANCH   4   5
ATOM      5  O   UNL d   1     -41.866  13.422  21.371  0.00  0.00    -0.298 OA
BRANCH   5   6
ATOM      6  C   UNL d   1     -41.304  13.859  20.969  0.00  0.00     0.122 A 
ATOM      7  C   UNL d   1     -40.536  13.918  21.264  0.00  0.00     0.117 A 
ATOM      8  O   UNL d   1     -40.181  13.598  21.945  0.00  0.00    -0.330 OA
ATOM      9  C   UNL d   1     -39.968  14.359  20.857  0.00  0.00     0.022 A 
ATOM     10  C   UNL d   1     -39.389  13.846  21.955  0.00  0.00     0.117 A 
ATOM     11  C   UNL d   1     -38.633  14.131  21.888  0.00  0.00     0.035 C 
ATOM     12  C   UNL d   1     -39.399  13.402  22.646  0.00  0.00     0.035 C 
ATOM     13  C   UNL d   1     -39.261  14.314  21.285  0.00  0.00     0.003 A 
ATOM     14  C   UNL d   1     -40.171  14.740  20.157  0.00  0.00     0.002 A 
ATOM     15  C   UNL d   1     -40.928  14.681  19.867  0.00  0.00     0.002 A 
ATOM     16  C   UNL d   1     -41.496  14.240  20.274  0.00  0.00     0.027 A 
ENDBRANCH   5   6
ENDBRANCH   4   5
ENDBRANCH   1   4
BRANCH   3  17
ATOM     17  C   UNL d   1     -44.510  12.926  22.003  0.00  0.00     0.102 C 
BRANCH  17  18
ATOM     18  C   UNL d   1     -45.219  13.322  22.174  0.00  0.00     0.023 C 
BRANCH  18  19
ATOM     19  C   UNL d   1     -45.788  12.971  22.647  0.00  0.00     0.024 A 
ATOM     20  C   UNL d   1     -46.466  13.392  22.858  0.00  0.00     0.094 A 
ATOM     21  C   UNL d   1     -47.034  13.027  23.336  0.00  0.00     0.024 A 
ATOM     22  C   UNL d   1     -46.931  12.253  23.602  0.00  0.00     0.002 A 
ATOM     23  C   UNL d   1     -46.261  11.833  23.395  0.00  0.00     0.000 A 
ATOM     24  C   UNL d   1     -45.687  12.181  22.921  0.00  0.00     0.002 A 
BRANCH  20  25
ATOM     25  O   UNL d   1     -46.570  14.155  22.597  0.00  0.00    -0.328 OA
ATOM     26  C   UNL d   1     -47.270  14.547  22.755  0.00  0.00     0.181 C 
ENDBRANCH  20  25
ENDBRANCH  18  19
ENDBRANCH  17  18
ENDBRANCH   3  17
TORSDOF 7
ENDMDL
MODEL 3
REMARK VINA RESULT:      -6.2      2.647      4.231
REMARK  7 active torsions:
REMARK  status: ('A' for Active; 'I' for Inactive)
REMARK    1  A    between atoms: C_6  and  C_13 
REMARK       I    between atoms: N_12  and  C_6 
REMARK    2  A    between atoms: O_8  and  C_7 
REMARK    3  A    between atoms: C_13  and  O_8 
REMARK    4  A    between atoms: O_14  and  C_10 
REMARK    5  A    between atoms: C_11  and  C_20 
REMARK    6  A    between atoms: C_15  and  N_12 
REMARK    7  A    between atoms: C_20  and  C_15 
ROOT
ATOM      1  C   UNL d   1     -46.813  14.387  22.728  0.00  0.00     0.304 C 
ATOM      2  O   UNL d   1     -46.315  15.031  22.576  0.00  0.00    -0.263 OA
ATOM      3  N   UNL d   1     -46.537  13.616  22.680  0.00  0.00    -0.205 NA
ENDROOT
BRANCH   1   4
ATOM      4  C   UNL d   1     -47.603  14.526  22.932  0.00  0.00     0.185 C 
BRANCH   4   5
ATOM      5  O   UNL d   1     -48.179  14.550  22.345  0.00  0.00    -0.298 OA
BRANCH   5   6
ATOM      6  C   UNL d   1     -48.960  14.684  22.547  0.00  0.00     0.122 A 
ATOM      7  C   UNL d   1     -49.548  14.161  22.298  0.00  0.00     0.117 A 
ATOM      8  O   UNL d   1     -49.509  13.465  21.844  0.00  0.00    -0.330 OA
ATOM      9  C   UNL d   1     -50.337  14.297  22.502  0.00  0.00     0.022 A 
ATOM     10  C   UNL d   1     -50.282  13.172  21.770  0.00  0.00     0.117 A 
ATOM     11  C   UNL d   1     -51.064  12.955  21.746  0.00  0.00     0.035 C 
ATOM     12  C   UNL d   1     -49.879  12.599  21.341  0.00  0.00     0.035 C 
ATOM     13  C   UNL d   1     -50.789  13.685  22.175  0.00  0.00     0.003 A 
ATOM     14  C   UNL d   1     -50.535  14.954  22.955  0.00  0.00     0.002 A 
ATOM     15  C   UNL d   1     -49.955  15.468  23.200  0.00  0.00     0.002 A 
ATOM     16  C   UNL d   1     -49.166  15.333  22.995  0.00  0.00     0.027 A 
ENDBRANCH   5   6
ENDBRANCH   4   5
ENDBRANCH   1   4
BRANCH   3  17
ATOM     17  C   UNL d   1     -45.756  13.479  22.478  0.00  0.00     0.102 C 
BRANCH  17  18
ATOM     18  C   UNL d   1     -45.434  12.716  22.531  0.00  0.00     0.023 C 
BRANCH  18  19
ATOM     19  C   UNL d   1     -44.678  12.563  22.256  0.00  0.00     0.024 A 
ATOM     20  C   UNL d   1     -44.244  11.936  22.570  0.00  0.00     0.094 A 
ATOM     21  C   UNL d   1     -43.481  11.791  22.284  0.00  0.00     0.024 A 
ATOM     22  C   UNL d   1     -43.154  12.264  21.692  0.00  0.00     0.002 A 
ATOM     23  C   UNL d   1     -43.580  12.886  21.378  0.00  0.00     0.000 A 
ATOM     24  C   UNL d   1     -44.340  13.043  21.652  0.00  0.00     0.002 A 
BRANCH  20  25
ATOM     25  O   UNL d   1     -44.565  11.469  23.153  0.00  0.00    -0.328 OA
ATOM     26  C   UNL d   1     -44.194  10.772  23.366  0.00  0.00     0.181 C 
ENDBRANCH  20  25
ENDBRANCH  18  19
ENDBRANCH  17  18
ENDBRANCH   3  17
TORSDOF 7
ENDMDL
MODEL 4
REMARK VINA RESULT:      -6.0      0.609      6.282
REMARK  7 active torsions:
REMARK  status: ('A' for Active; 'I' for Inactive)
REMARK    1  A    between atoms: C_6  and  C_13 
REMARK       I    between atoms: N_12  and  C_6 
REMARK    2  A    between atoms: O_8  and  C_7 
REMARK    3  A    between atoms: C_13  and  O_8 
REMARK    4  A    between atoms: O_14  and  C_10 
REMARK    5  A    between atoms: C_11  and  C_20 
REMARK    6  A    between atoms: C_15  and  N_12 
REMARK    7  A    between atoms: C_20  and  C_15 
ROOT
ATOM      1  C   UNL d   1     -43.096  13.021  21.242  0.00  0.00     0.304 C 
ATOM      2  O   UNL d   1     -43.333  12.552  20.603  0.00  0.00    -0.263 OA
ATOM      3  N   UNL d   1     -43.625  13.235  21.832  0.00  0.00    -0.205 NA
ENDROOT
BRANCH   1   4
ATOM      4  C   UNL d   1     -42.311  13.279  21.285  0.00  0.00     0.185 C 
BRANCH   4   5
ATOM      5  O   UNL d   1     -41.948  13.599  20.619  0.00  0.00    -0.298 OA
BRANCH   5   6
ATOM      6  C   UNL d   1     -41.202  13.927  20.681  0.00  0.00     0.122 A 
ATOM      7  C   UNL d   1     -40.800  14.173  20.003  0.00  0.00     0.117 A 
ATOM      8  O   UNL d   1     -41.013  14.155  19.200  0.00  0.00    -0.330 OA
ATOM      9  C   UNL d   1     -40.046  14.505  20.066  0.00  0.00     0.022 A 
ATOM     10  C   UNL d   1     -40.384  14.479  18.766  0.00  0.00     0.117 A 
ATOM     11  C   UNL d   1     -39.727  14.807  18.421  0.00  0.00     0.035 C 
ATOM     12  C   UNL d   1     -40.898  14.308  18.149  0.00  0.00     0.035 C 
ATOM     13  C   UNL d   1     -39.790  14.693  19.301  0.00  0.00     0.003 A 
ATOM     14  C   UNL d   1     -39.697  14.590  20.806  0.00  0.00     0.002 A 
ATOM     15  C   UNL d   1     -40.094  14.347  21.473  0.00  0.00     0.002 A 
ATOM     16  C   UNL d   1     -40.847  14.016  21.410  0.00  0.00     0.027 A 
ENDBRANCH   5   6
ENDBRANCH   4   5
ENDBRANCH   1   4
BRANCH   3  17
ATOM     17  C   UNL d   1     -44.401  12.981  21.789  0.00  0.00     0.102 C 
BRANCH  17  18
ATOM     18  C   UNL d   1     -44.816  12.773  22.477  0.00  0.00     0.023 C 
BRANCH  18  19
ATOM     19  C   UNL d   1     -45.593  13.009  22.582  0.00  0.00     0.024 A 
ATOM     20  C   UNL d   1     -46.108  12.545  23.029  0.00  0.00     0.094 A 
ATOM     21  C   UNL d   1     -46.891  12.794  23.128  0.00  0.00     0.024 A 
ATOM     22  C   UNL d   1     -47.159  13.496  22.788  0.00  0.00     0.002 A 
ATOM     23  C   UNL d   1     -46.652  13.958  22.344  0.00  0.00     0.000 A 
ATOM     24  C   UNL d   1     -45.871  13.725  22.236  0.00  0.00     0.002 A 
BRANCH  20  25
ATOM     25  O   UNL d   1     -45.846  11.853  23.366  0.00  0.00    -0.328 OA
ATOM     26  C   UNL d   1     -46.384  11.327  23.685  0.00  0.00     0.181 C 
ENDBRANCH  20  25
ENDBRANCH  18  19
ENDBRANCH  17  18
ENDBRANCH   3  17
TORSDOF 7
ENDMDL
MODEL 5
REMARK VINA RESULT:      -5.5      2.682      6.567
REMARK  7 active torsions:
REMARK  status: ('A' for Active; 'I' for Inactive)
REMARK    1  A    between atoms: C_6  and  C_13 
REMARK       I    between atoms: N_12  and  C_6 
REMARK    2  A    between atoms: O_8  and  C_7 
REMARK    3  A    between atoms: C_13  and  O_8 
REMARK    4  A    between atoms: O_14  and  C_10 
REMARK    5  A    between atoms: C_11  and  C_20 
REMARK    6  A    between atoms: C_15  and  N_12 
REMARK    7  A    between atoms: C_20  and  C_15 
ROOT
ATOM      1  C   UNL d   1     -47.579  11.428  23.421  0.00  0.00     0.304 C 
ATOM      2  O   UNL d   1     -48.044  10.846  23.060  0.00  0.00    -0.263 OA
ATOM      3  N   UNL d   1     -47.880  12.176  23.578  0.00  0.00    -0.205 NA
ENDROOT
BRANCH   1   4
ATOM      4  C   UNL d   1     -46.798  11.252  23.626  0.00  0.00     0.185 C 
BRANCH   4   5
ATOM      5  O   UNL d   1     -46.179  11.657  23.265  0.00  0.00    -0.298 OA
BRANCH   5   6
ATOM      6  C   UNL d   1     -45.427  11.334  23.264  0.00  0.00     0.122 A 
ATOM      7  C   UNL d   1     -44.825  11.688  22.824  0.00  0.00     0.117 A 
ATOM      8  O   UNL d   1     -44.822  12.364  22.339  0.00  0.00    -0.330 OA
ATOM      9  C   UNL d   1     -44.066  11.362  22.823  0.00  0.00     0.022 A 
ATOM     10  C   UNL d   1     -44.053  12.452  22.039  0.00  0.00     0.117 A 
ATOM     11  C   UNL d   1     -43.280  12.465  21.791  0.00  0.00     0.035 C 
ATOM     12  C   UNL d   1     -44.411  13.102  21.685  0.00  0.00     0.035 C 
ATOM     13  C   UNL d   1     -43.590  11.835  22.338  0.00  0.00     0.003 A 
ATOM     14  C   UNL d   1     -43.912  10.683  23.262  0.00  0.00     0.002 A 
ATOM     15  C   UNL d   1     -44.506  10.336  23.694  0.00  0.00     0.002 A 
ATOM     16  C   UNL d   1     -45.265  10.662  23.695  0.00  0.00     0.027 A 
ENDBRANCH   5   6
ENDBRANCH   4   5
ENDBRANCH   1   4
BRANCH   3  17
ATOM     17  C   UNL d   1     -48.654  12.350  23.375  0.00  0.00     0.102 C 
BRANCH  17  18
ATOM     18  C   UNL d   1     -48.924  13.134  23.378  0.00  0.00     0.023 C 
BRANCH  18  19
ATOM     19  C   UNL d   1     -49.605  13.341  22.972  0.00  0.00     0.024 A 
ATOM     20  C   UNL d   1     -49.670  14.089  22.630  0.00  0.00     0.094 A 
ATOM     21  C   UNL d   1     -50.362  14.287  22.223  0.00  0.00     0.024 A 
ATOM     22  C   UNL d   1     -50.983  13.748  22.155  0.00  0.00     0.002 A 
ATOM     23  C   UNL d   1     -50.922  13.006  22.491  0.00  0.00     0.000 A 
ATOM     24  C   UNL d   1     -50.241  12.794  22.899  0.00  0.00     0.002 A 
BRANCH  20  25
ATOM     25  O   UNL d   1     -49.059  14.622  22.696  0.00  0.00    -0.328 OA
ATOM     26  C   UNL d   1     -49.220  15.424  22.720  0.00  0.00     0.181 C 
ENDBRANCH  20  25
ENDBRANCH  18  19
ENDBRANCH  17  18
ENDBRANCH   3  17
TORSDOF 7
ENDMDL
MODEL 6
REMARK VINA RESULT:      -5.1      2.768      6.519
REMARK  7 active torsions:
REMARK  status: ('A' for Active; 'I' for Inactive)
REMARK    1  A    between atoms: C_6  and  C_13 
REMARK       I    between atoms: N_12  and  C_6 
REMARK    2  A    between atoms: O_8  and  C_7 
REMARK    3  A    between atoms: C_13  and  O_8 
REMARK    4  A    between atoms: O_14  and  C_10 
REMARK    5  A    between atoms: C_11  and  C_20 
REMARK    6  A    between atoms: C_15  and  N_12 
REMARK    7  A    between atoms: C_20  and  C_15 
ROOT
ATOM      1  C   UNL d   1     -46.849  14.035  22.421  0.00  0.00     0.304 C 
ATOM      2  O   UNL d   1     -46.828  14.842  22.604  0.00  0.00    -0.263 OA
ATOM      3  N   UNL d   1     -47.537  13.596  22.513  0.00  0.00    -0.205 NA
ENDROOT
BRANCH   1   4
ATOM      4  C   UNL d   1     -46.164  13.665  22.141  0.00  0.00     0.185 C 
BRANCH   4   5
ATOM      5  O   UNL d   1     -45.778  13.111  22.610  0.00  0.00    -0.298 OA
BRANCH   5   6
ATOM      6  C   UNL d   1     -45.031  12.850  22.400  0.00  0.00     0.122 A 
ATOM      7  C   UNL d   1     -44.757  12.120  22.670  0.00  0.00     0.117 A 
ATOM      8  O   UNL d   1     -45.111  11.543  23.154  0.00  0.00    -0.330 OA
ATOM      9  C   UNL d   1     -44.003  11.856  22.458  0.00  0.00     0.022 A 
ATOM     10  C   UNL d   1     -44.568  10.920  23.239  0.00  0.00     0.117 A 
ATOM     11  C   UNL d   1     -43.983  10.359  23.269  0.00  0.00     0.035 C 
ATOM     12  C   UNL d   1     -45.185  10.624  23.693  0.00  0.00     0.035 C 
ATOM     13  C   UNL d   1     -43.888  11.116  22.810  0.00  0.00     0.003 A 
ATOM     14  C   UNL d   1     -43.527  12.324  21.977  0.00  0.00     0.002 A 
ATOM     15  C   UNL d   1     -43.799  13.042  21.711  0.00  0.00     0.002 A 
ATOM     16  C   UNL d   1     -44.552  13.305  21.923  0.00  0.00     0.027 A 
ENDBRANCH   5   6
ENDBRANCH   4   5
ENDBRANCH   1   4
BRANCH   3  17
ATOM     17  C   UNL d   1     -48.214  13.962  22.790  0.00  0.00     0.102 C 
BRANCH  17  18
ATOM     18  C   UNL d   1     -48.810  13.521  23.162  0.00  0.00     0.023 C 
BRANCH  18  19
ATOM     19  C   UNL d   1     -49.543  13.853  23.312  0.00  0.00     0.024 A 
ATOM     20  C   UNL d   1     -50.210  13.372  23.376  0.00  0.00     0.094 A 
ATOM     21  C   UNL d   1     -50.945  13.720  23.528  0.00  0.00     0.024 A 
ATOM     22  C   UNL d   1     -51.018  14.537  23.614  0.00  0.00     0.002 A 
ATOM     23  C   UNL d   1     -50.360  15.018  23.551  0.00  0.00     0.000 A 
ATOM     24  C   UNL d   1     -49.622  14.687  23.401  0.00  0.00     0.002 A 
BRANCH  20  25
ATOM     25  O   UNL d   1     -50.140  12.566  23.292  0.00  0.00    -0.328 OA
ATOM     26  C   UNL d   1     -50.793  12.087  23.408  0.00  0.00     0.181 C 
ENDBRANCH  20  25
ENDBRANCH  18  19
ENDBRANCH  17  18
ENDBRANCH   3  17
TORSDOF 7
ENDMDL
MODEL 7
REMARK VINA RESULT:      -4.1      5.189      6.462
REMARK  7 active torsions:
REMARK  status: ('A' for Active; 'I' for Inactive)
REMARK    1  A    between atoms: C_6  and  C_13 
REMARK       I    between atoms: N_12  and  C_6 
REMARK    2  A    between atoms: O_8  and  C_7 
REMARK    3  A    between atoms: C_13  and  O_8 
REMARK    4  A    between atoms: O_14  and  C_10 
REMARK    5  A    between atoms: C_11  and  C_20 
REMARK    6  A    between atoms: C_15  and  N_12 
REMARK    7  A    between atoms: C_20  and  C_15 
ROOT
ATOM      1  C   UNL d   1     -40.277  14.484  18.260  0.00  0.00     0.304 C 
ATOM      2  O   UNL d   1     -40.827  14.053  17.817  0.00  0.00    -0.263 OA
ATOM      3  N   UNL d   1     -39.553  14.704  17.941  0.00  0.00    -0.205 NA
ENDROOT
BRANCH   1   4
ATOM      4  C   UNL d   1     -40.461  14.696  19.038  0.00  0.00     0.185 C 
BRANCH   4   5
ATOM      5  O   UNL d   1     -39.919  14.553  19.640  0.00  0.00    -0.298 OA
BRANCH   5   6
ATOM      6  C   UNL d   1     -40.038  14.880  20.380  0.00  0.00     0.122 A 
ATOM      7  C   UNL d   1     -39.626  14.588  21.033  0.00  0.00     0.117 A 
ATOM      8  O   UNL d   1     -39.065  13.977  21.102  0.00  0.00    -0.330 OA
ATOM      9  C   UNL d   1     -39.746  14.917  21.781  0.00  0.00     0.022 A 
ATOM     10  C   UNL d   1     -38.840  13.933  21.900  0.00  0.00     0.117 A 
ATOM     11  C   UNL d   1     -38.678  13.957  22.694  0.00  0.00     0.035 C 
ATOM     12  C   UNL d   1     -38.373  13.329  21.595  0.00  0.00     0.035 C 
ATOM     13  C   UNL d   1     -39.260  14.512  22.315  0.00  0.00     0.003 A 
ATOM     14  C   UNL d   1     -40.278  15.538  21.873  0.00  0.00     0.002 A 
ATOM     15  C   UNL d   1     -40.683  15.825  21.230  0.00  0.00     0.002 A 
ATOM     16  C   UNL d   1     -40.562  15.495  20.482  0.00  0.00     0.027 A 
ENDBRANCH   5   6
ENDBRANCH   4   5
ENDBRANCH   1   4
BRANCH   3  17
ATOM     17  C   UNL d   1     -39.371  14.494  17.171  0.00  0.00     0.102 C 
BRANCH  17  18
ATOM     18  C   UNL d   1     -38.589  14.531  16.898  0.00  0.00     0.023 C 
BRANCH  18  19
ATOM     19  C   UNL d   1     -38.422  14.823  16.151  0.00  0.00     0.024 A 
ATOM     20  C   UNL d   1     -38.104  14.327  15.575  0.00  0.00     0.094 A 
ATOM     21  C   UNL d   1     -37.940  14.634  14.825  0.00  0.00     0.024 A 
ATOM     22  C   UNL d   1     -38.089  15.426  14.649  0.00  0.00     0.002 A 
ATOM     23  C   UNL d   1     -38.404  15.922  15.217  0.00  0.00     0.000 A 
ATOM     24  C   UNL d   1     -38.573  15.632  15.967  0.00  0.00     0.002 A 
BRANCH  20  25
ATOM     25  O   UNL d   1     -37.956  13.546  15.746  0.00  0.00    -0.328 OA
ATOM     26  C   UNL d   1     -37.969  12.989  15.147  0.00  0.00     0.181 C 
ENDBRANCH  20  25
ENDBRANCH  18  19
ENDBRANCH  17  18
ENDBRANCH   3  17
TORSDOF 7
ENDMDL
