MODEL 1
REMARK VINA RESULT:      41.3      0.000      0.000
REMARK  3 active torsions:
REMARK  status: ('A' for Active; 'I' for Inactive)
REMARK    1  A    between atoms: C_8  and  N_2 
REMARK    2  A    between atoms: C_6  and  C_3 
REMARK    3  A    between atoms: C_7  and  C_4 
ROOT
ATOM      1  N   UNL d   1      60.478  49.654  52.211  0.00  0.00    -0.159 NA
ATOM      2  N   UNL d   1      60.250  49.458  51.435  0.00  0.00    -0.234 N 
ATOM      3  C   UNL d   1      61.269  49.505  52.284  0.00  0.00     0.167 A 
ATOM      4  C   UNL d   1      60.909  49.191  51.041  0.00  0.00     0.062 A 
ATOM      5  C   UNL d   1      61.548  49.217  51.562  0.00  0.00     0.042 A 
ENDROOT
BRANCH   2   6
ATOM      6  C   UNL d   1      59.477  49.539  51.159  0.00  0.00     0.083 A 
ATOM      7  C   UNL d   1      58.850  49.573  51.683  0.00  0.00     0.019 A 
ATOM      8  C   UNL d   1      58.087  49.653  51.403  0.00  0.00     0.002 A 
ATOM      9  C   UNL d   1      57.944  49.700  50.601  0.00  0.00     0.000 A 
ATOM     10  C   UNL d   1      58.572  49.666  50.077  0.00  0.00     0.002 A 
ATOM     11  C   UNL d   1      59.344  49.585  50.354  0.00  0.00     0.019 A 
ENDBRANCH   2   6
BRANCH   4  12
ATOM     12  C   UNL d   1      60.946  48.933  50.249  0.00  0.00     0.036 C 
ATOM     13  C   UNL d   1      60.982  48.677  49.457  0.00  0.00     0.006 C 
ATOM     14  C   UNL d   1      60.768  49.706  49.990  0.00  0.00     0.006 C 
ATOM     15  C   UNL d   1      61.123  48.163  50.512  0.00  0.00     0.006 C 
ENDBRANCH   4  12
BRANCH   3  16
ATOM     16  C   UNL d   1      61.724  49.622  52.967  0.00  0.00     0.231 C 
ATOM     17  O   UNL d   1      61.354  49.708  53.700  0.00  0.00    -0.643 OA
ATOM     18  O   UNL d   1      62.542  49.651  52.907  0.00  0.00    -0.643 OA
ENDBRANCH   3  16
TORSDOF 3
ENDMDL
MODEL 2
REMARK VINA RESULT:      43.9      2.469      3.688
REMARK  3 active torsions:
REMARK  status: ('A' for Active; 'I' for Inactive)
REMARK    1  A    between atoms: C_8  and  N_2 
REMARK    2  A    between atoms: C_6  and  C_3 
REMARK    3  A    between atoms: C_7  and  C_4 
ROOT
ATOM      1  N   UNL d   1      58.362  49.304  49.812  0.00  0.00    -0.159 NA
ATOM      2  N   UNL d   1      58.925  49.396  50.418  0.00  0.00    -0.234 N 
ATOM      3  C   UNL d   1      57.627  49.340  50.146  0.00  0.00     0.167 A 
ATOM      4  C   UNL d   1      58.524  49.487  51.119  0.00  0.00     0.062 A 
ATOM      5  C   UNL d   1      57.716  49.453  50.960  0.00  0.00     0.042 A 
ENDROOT
BRANCH   2   6
ATOM      6  C   UNL d   1      59.738  49.389  50.282  0.00  0.00     0.083 A 
ATOM      7  C   UNL d   1      60.249  49.068  50.835  0.00  0.00     0.019 A 
ATOM      8  C   UNL d   1      61.054  49.065  50.694  0.00  0.00     0.002 A 
ATOM      9  C   UNL d   1      61.353  49.380  50.004  0.00  0.00     0.000 A 
ATOM     10  C   UNL d   1      60.842  49.700  49.452  0.00  0.00     0.002 A 
ATOM     11  C   UNL d   1      60.029  49.707  49.588  0.00  0.00     0.019 A 
ENDBRANCH   2   6
BRANCH   4  12
ATOM     12  C   UNL d   1      58.860  49.596  51.875  0.00  0.00     0.036 C 
ATOM     13  C   UNL d   1      59.196  49.704  52.629  0.00  0.00     0.006 C 
ATOM     14  C   UNL d   1      59.620  49.485  51.552  0.00  0.00     0.006 C 
ATOM     15  C   UNL d   1      58.098  49.705  52.194  0.00  0.00     0.006 C 
ENDBRANCH   4  12
BRANCH   3  16
ATOM     16  C   UNL d   1      56.907  49.274  49.742  0.00  0.00     0.231 C 
ATOM     17  O   UNL d   1      56.197  49.251  50.163  0.00  0.00    -0.643 OA
ATOM     18  O   UNL d   1      56.906  49.231  48.922  0.00  0.00    -0.643 OA
ENDBRANCH   3  16
TORSDOF 3
ENDMDL
