MODEL 1
REMARK VINA RESULT:      -7.5      0.000      0.000
REMARK  5 active torsions:
REMARK  status: ('A' for Active; 'I' for Inactive)
REMARK       I    between atoms: N_4  and  C_1 
REMARK       I    between atoms: N_8  and  C_1 
REMARK    1  A    between atoms: C_2  and  C_3 
REMARK    2  A    between atoms: C_5  and  C_2 
REMARK    3  A    between atoms: N_6  and  C_2 
REMARK    4  A    between atoms: C_3  and  N_4 
REMARK    5  A    between atoms: C_12  and  N_8 
ROOT
ATOM      1  C   UNL d   1     -49.409  13.008  21.872  0.00  0.00     0.103 C 
ATOM      2  C   UNL d   1     -49.735  12.809  21.151  0.00  0.00     0.022 C 
ENDROOT
BRANCH   1   3
ATOM      3  C   UNL d   1     -49.891  13.197  22.511  0.00  0.00     0.088 C 
BRANCH   3   4
ATOM      4  C   UNL d   1     -50.211  12.600  22.974  0.00  0.00     0.047 A 
ATOM      5  S   UNL d   1     -50.985  12.558  23.251  0.00  0.00    -0.085 SA
ATOM      6  C   UNL d   1     -51.064  11.865  23.694  0.00  0.00     0.035 A 
ATOM      7  C   UNL d   1     -50.337  11.472  23.694  0.00  0.00     0.007 A 
ATOM      8  C   UNL d   1     -49.812  11.927  23.250  0.00  0.00     0.009 A 
ENDBRANCH   3   4
BRANCH   3   9
ATOM      9  N   UNL d   1     -50.054  13.991  22.688  0.00  0.00    -0.299 N 
ATOM     10  C   UNL d   1     -50.523  14.439  22.185  0.00  0.00     0.107 A 
ATOM     11  C   UNL d   1     -50.686  15.226  22.359  0.00  0.00     0.142 A 
ATOM     12  O   UNL d   1     -50.379  15.579  23.047  0.00  0.00    -0.300 OA
ATOM     13  C   UNL d   1     -49.905  15.122  23.553  0.00  0.00     0.142 A 
ATOM     14  C   UNL d   1     -49.742  14.331  23.378  0.00  0.00     0.107 A 
ENDBRANCH   3   9
ENDBRANCH   1   3
BRANCH   1  15
ATOM     15  N   UNL d   1     -48.583  13.020  21.962  0.00  0.00    -0.190 NA
ATOM     16  C   UNL d   1     -48.102  12.762  21.346  0.00  0.00     0.369 C 
ATOM     17  N   UNL d   1     -47.281  12.775  21.438  0.00  0.00    -0.191 NA
ATOM     18  O   UNL d   1     -48.432  12.494  20.644  0.00  0.00    -0.242 OA
BRANCH  17  19
ATOM     19  C   UNL d   1     -46.946  13.045  22.142  0.00  0.00     0.086 A 
ATOM     20  C   UNL d   1     -46.710  13.831  22.207  0.00  0.00     0.019 A 
ATOM     21  C   UNL d   1     -46.378  14.100  22.903  0.00  0.00     0.002 A 
ATOM     22  C   UNL d   1     -46.138  14.891  22.974  0.00  0.00     0.000 C 
ATOM     23  C   UNL d   1     -46.277  13.583  23.548  0.00  0.00     0.000 A 
ATOM     24  C   UNL d   1     -46.514  12.796  23.480  0.00  0.00     0.002 A 
ATOM     25  C   UNL d   1     -46.851  12.526  22.771  0.00  0.00     0.019 A 
ENDBRANCH  17  19
ENDBRANCH   1  15
TORSDOF 5
ENDMDL
MODEL 2
REMARK VINA RESULT:      -7.2      8.707     10.568
REMARK  5 active torsions:
REMARK  status: ('A' for Active; 'I' for Inactive)
REMARK       I    between atoms: N_4  and  C_1 
REMARK       I    between atoms: N_8  and  C_1 
REMARK    1  A    between atoms: C_2  and  C_3 
REMARK    2  A    between atoms: C_5  and  C_2 
REMARK    3  A    between atoms: N_6  and  C_2 
REMARK    4  A    between atoms: C_3  and  N_4 
REMARK    5  A    between atoms: C_12  and  N_8 
ROOT
ATOM      1  C   UNL d   1     -38.829  15.326  18.464  0.00  0.00     0.103 C 
ATOM      2  C   UNL d   1     -38.221  15.839  18.281  0.00  0.00     0.022 C 
ENDROOT
BRANCH   1   3
ATOM      3  C   UNL d   1     -39.146  14.831  17.888  0.00  0.00     0.088 C 
BRANCH   3   4
ATOM      4  C   UNL d   1     -38.805  14.099  17.743  0.00  0.00     0.047 A 
ATOM      5  S   UNL d   1     -38.077  13.962  17.383  0.00  0.00    -0.085 SA
ATOM      6  C   UNL d   1     -37.954  13.145  17.351  0.00  0.00     0.035 A 
ATOM      7  C   UNL d   1     -38.608  12.771  17.693  0.00  0.00     0.007 A 
ATOM      8  C   UNL d   1     -39.131  13.361  17.934  0.00  0.00     0.009 A 
ENDBRANCH   3   4
BRANCH   3   9
ATOM      9  N   UNL d   1     -39.810  15.072  17.452  0.00  0.00    -0.299 N 
ATOM     10  C   UNL d   1     -39.737  15.646  16.870  0.00  0.00     0.107 A 
ATOM     11  C   UNL d   1     -40.394  15.886  16.438  0.00  0.00     0.142 A 
ATOM     12  O   UNL d   1     -41.142  15.551  16.584  0.00  0.00    -0.300 OA
ATOM     13  C   UNL d   1     -41.210  14.970  17.174  0.00  0.00     0.142 A 
ATOM     14  C   UNL d   1     -40.550  14.730  17.608  0.00  0.00     0.107 A 
ENDBRANCH   3   9
ENDBRANCH   1   3
BRANCH   1  15
ATOM     15  N   UNL d   1     -39.132  15.303  19.237  0.00  0.00    -0.190 NA
ATOM     16  C   UNL d   1     -38.683  15.602  19.859  0.00  0.00     0.369 C 
ATOM     17  N   UNL d   1     -38.986  15.578  20.628  0.00  0.00    -0.191 NA
ATOM     18  O   UNL d   1     -37.941  15.922  19.721  0.00  0.00    -0.242 OA
BRANCH  17  19
ATOM     19  C   UNL d   1     -39.733  15.256  20.770  0.00  0.00     0.086 A 
ATOM     20  C   UNL d   1     -40.395  15.745  20.763  0.00  0.00     0.019 A 
ATOM     21  C   UNL d   1     -41.135  15.429  20.904  0.00  0.00     0.002 A 
ATOM     22  C   UNL d   1     -41.806  15.916  20.898  0.00  0.00     0.000 C 
ATOM     23  C   UNL d   1     -41.223  14.615  21.054  0.00  0.00     0.000 A 
ATOM     24  C   UNL d   1     -40.558  14.128  21.061  0.00  0.00     0.002 A 
ATOM     25  C   UNL d   1     -39.807  14.452  20.918  0.00  0.00     0.019 A 
ENDBRANCH  17  19
ENDBRANCH   1  15
TORSDOF 5
ENDMDL
MODEL 3
REMARK VINA RESULT:      -7.0      1.444      3.310
REMARK  5 active torsions:
REMARK  status: ('A' for Active; 'I' for Inactive)
REMARK       I    between atoms: N_4  and  C_1 
REMARK       I    between atoms: N_8  and  C_1 
REMARK    1  A    between atoms: C_2  and  C_3 
REMARK    2  A    between atoms: C_5  and  C_2 
REMARK    3  A    between atoms: N_6  and  C_2 
REMARK    4  A    between atoms: C_3  and  N_4 
REMARK    5  A    between atoms: C_12  and  N_8 
ROOT
ATOM      1  C   UNL d   1     -48.261  12.830  21.809  0.00  0.00     0.103 C 
ATOM      2  C   UNL d   1     -48.095  12.541  21.064  0.00  0.00     0.022 C 
ENDROOT
BRANCH   1   3
ATOM      3  C   UNL d   1     -47.745  12.693  22.435  0.00  0.00     0.088 C 
BRANCH   3   4
ATOM      4  C   UNL d   1     -47.855  12.044  22.924  0.00  0.00     0.047 A 
ATOM      5  S   UNL d   1     -47.266  11.558  23.233  0.00  0.00    -0.085 SA
ATOM      6  C   UNL d   1     -47.627  10.975  23.695  0.00  0.00     0.035 A 
ATOM      7  C   UNL d   1     -48.444  11.097  23.675  0.00  0.00     0.007 A 
ATOM      8  C   UNL d   1     -48.583  11.757  23.199  0.00  0.00     0.009 A 
ENDBRANCH   3   4
BRANCH   3   9
ATOM      9  N   UNL d   1     -47.111  13.211  22.572  0.00  0.00    -0.299 N 
ATOM     10  C   UNL d   1     -47.145  13.752  23.189  0.00  0.00     0.107 A 
ATOM     11  C   UNL d   1     -46.519  14.266  23.326  0.00  0.00     0.142 A 
ATOM     12  O   UNL d   1     -45.841  14.247  22.842  0.00  0.00    -0.300 OA
ATOM     13  C   UNL d   1     -45.812  13.697  22.219  0.00  0.00     0.142 A 
ATOM     14  C   UNL d   1     -46.442  13.181  22.082  0.00  0.00     0.107 A 
ENDBRANCH   3   9
ENDBRANCH   1   3
BRANCH   1  15
ATOM     15  N   UNL d   1     -48.957  13.265  21.938  0.00  0.00    -0.190 NA
ATOM     16  C   UNL d   1     -49.478  13.393  21.315  0.00  0.00     0.369 C 
ATOM     17  N   UNL d   1     -50.170  13.827  21.445  0.00  0.00    -0.191 NA
ATOM     18  O   UNL d   1     -49.316  13.095  20.568  0.00  0.00    -0.242 OA
BRANCH  17  19
ATOM     19  C   UNL d   1     -50.336  14.128  22.195  0.00  0.00     0.086 A 
ATOM     20  C   UNL d   1     -50.055  14.872  22.407  0.00  0.00     0.019 A 
ATOM     21  C   UNL d   1     -50.218  15.172  23.148  0.00  0.00     0.002 A 
ATOM     22  C   UNL d   1     -49.937  15.921  23.368  0.00  0.00     0.000 C 
ATOM     23  C   UNL d   1     -50.668  14.730  23.691  0.00  0.00     0.000 A 
ATOM     24  C   UNL d   1     -50.949  13.985  23.476  0.00  0.00     0.002 A 
ATOM     25  C   UNL d   1     -50.781  13.683  22.722  0.00  0.00     0.019 A 
ENDBRANCH  17  19
ENDBRANCH   1  15
TORSDOF 5
ENDMDL
MODEL 4
REMARK VINA RESULT:      -5.9      1.618      3.885
REMARK  5 active torsions:
REMARK  status: ('A' for Active; 'I' for Inactive)
REMARK       I    between atoms: N_4  and  C_1 
REMARK       I    between atoms: N_8  and  C_1 
REMARK    1  A    between atoms: C_2  and  C_3 
REMARK    2  A    between atoms: C_5  and  C_2 
REMARK    3  A    between atoms: N_6  and  C_2 
REMARK    4  A    between atoms: C_3  and  N_4 
REMARK    5  A    between atoms: C_12  and  N_8 
ROOT
ATOM      1  C   UNL d   1     -47.759  12.912  21.671  0.00  0.00     0.103 C 
ATOM      2  C   UNL d   1     -47.470  12.767  20.921  0.00  0.00     0.022 C 
ENDROOT
BRANCH   1   3
ATOM      3  C   UNL d   1     -47.279  13.256  22.244  0.00  0.00     0.088 C 
BRANCH   3   4
ATOM      4  C   UNL d   1     -47.369  14.049  22.432  0.00  0.00     0.047 A 
ATOM      5  S   UNL d   1     -47.430  14.674  21.899  0.00  0.00    -0.085 SA
ATOM      6  C   UNL d   1     -47.513  15.375  22.330  0.00  0.00     0.035 A 
ATOM      7  C   UNL d   1     -47.503  15.187  23.135  0.00  0.00     0.007 A 
ATOM      8  C   UNL d   1     -47.414  14.369  23.196  0.00  0.00     0.009 A 
ENDBRANCH   3   4
BRANCH   3   9
ATOM      9  N   UNL d   1     -46.704  12.801  22.632  0.00  0.00    -0.299 N 
ATOM     10  C   UNL d   1     -46.896  12.383  23.312  0.00  0.00     0.107 A 
ATOM     11  C   UNL d   1     -46.327  11.932  23.697  0.00  0.00     0.142 A 
ATOM     12  O   UNL d   1     -45.549  11.891  23.404  0.00  0.00    -0.300 OA
ATOM     13  C   UNL d   1     -45.359  12.316  22.716  0.00  0.00     0.142 A 
ATOM     14  C   UNL d   1     -45.931  12.769  22.329  0.00  0.00     0.107 A 
ENDBRANCH   3   9
ENDBRANCH   1   3
BRANCH   1  15
ATOM     15  N   UNL d   1     -48.543  12.712  21.857  0.00  0.00    -0.190 NA
ATOM     16  C   UNL d   1     -49.000  12.301  21.310  0.00  0.00     0.369 C 
ATOM     17  N   UNL d   1     -49.780  12.102  21.498  0.00  0.00    -0.191 NA
ATOM     18  O   UNL d   1     -48.687  12.088  20.582  0.00  0.00    -0.242 OA
BRANCH  17  19
ATOM     19  C   UNL d   1     -50.098  12.315  22.229  0.00  0.00     0.086 A 
ATOM     20  C   UNL d   1     -50.422  13.065  22.331  0.00  0.00     0.019 A 
ATOM     21  C   UNL d   1     -50.737  13.277  23.054  0.00  0.00     0.002 A 
ATOM     22  C   UNL d   1     -51.064  14.031  23.162  0.00  0.00     0.000 C 
ATOM     23  C   UNL d   1     -50.733  12.738  23.689  0.00  0.00     0.000 A 
ATOM     24  C   UNL d   1     -50.408  11.988  23.584  0.00  0.00     0.002 A 
ATOM     25  C   UNL d   1     -50.088  11.775  22.848  0.00  0.00     0.019 A 
ENDBRANCH  17  19
ENDBRANCH   1  15
TORSDOF 5
ENDMDL
MODEL 5
REMARK VINA RESULT:      -5.6      1.426      2.370
REMARK  5 active torsions:
REMARK  status: ('A' for Active; 'I' for Inactive)
REMARK       I    between atoms: N_4  and  C_1 
REMARK       I    between atoms: N_8  and  C_1 
REMARK    1  A    between atoms: C_2  and  C_3 
REMARK    2  A    between atoms: C_5  and  C_2 
REMARK    3  A    between atoms: N_6  and  C_2 
REMARK    4  A    between atoms: C_3  and  N_4 
REMARK    5  A    between atoms: C_12  and  N_8 
ROOT
ATOM      1  C   UNL d   1     -49.086  12.702  23.227  0.00  0.00     0.103 C 
ATOM      2  C   UNL d   1     -49.536  12.207  23.695  0.00  0.00     0.022 C 
ENDROOT
BRANCH   1   3
ATOM      3  C   UNL d   1     -49.445  13.271  22.754  0.00  0.00     0.088 C 
BRANCH   3   4
ATOM      4  C   UNL d   1     -49.499  14.047  23.015  0.00  0.00     0.047 A 
ATOM      5  S   UNL d   1     -49.049  14.684  22.750  0.00  0.00    -0.085 SA
ATOM      6  C   UNL d   1     -49.288  15.359  23.163  0.00  0.00     0.035 A 
ATOM      7  C   UNL d   1     -49.889  15.143  23.688  0.00  0.00     0.007 A 
ATOM      8  C   UNL d   1     -50.018  14.333  23.595  0.00  0.00     0.009 A 
ENDBRANCH   3   4
BRANCH   3   9
ATOM      9  N   UNL d   1     -49.754  13.061  22.013  0.00  0.00    -0.299 N 
ATOM     10  C   UNL d   1     -50.561  12.944  21.918  0.00  0.00     0.107 A 
ATOM     11  C   UNL d   1     -50.868  12.736  21.185  0.00  0.00     0.142 A 
ATOM     12  O   UNL d   1     -50.366  12.641  20.528  0.00  0.00    -0.300 OA
ATOM     13  C   UNL d   1     -49.550  12.761  20.628  0.00  0.00     0.142 A 
ATOM     14  C   UNL d   1     -49.242  12.970  21.365  0.00  0.00     0.107 A 
ENDBRANCH   3   9
ENDBRANCH   1   3
BRANCH   1  15
ATOM     15  N   UNL d   1     -48.258  12.631  23.228  0.00  0.00    -0.190 NA
ATOM     16  C   UNL d   1     -47.911  11.923  23.462  0.00  0.00     0.369 C 
ATOM     17  N   UNL d   1     -47.087  11.854  23.462  0.00  0.00    -0.191 NA
ATOM     18  O   UNL d   1     -48.374  11.288  23.695  0.00  0.00    -0.242 OA
BRANCH  17  19
ATOM     19  C   UNL d   1     -46.617  12.491  23.229  0.00  0.00     0.086 A 
ATOM     20  C   UNL d   1     -46.186  12.445  22.529  0.00  0.00     0.019 A 
ATOM     21  C   UNL d   1     -45.720  13.075  22.296  0.00  0.00     0.002 A 
ATOM     22  C   UNL d   1     -45.284  13.034  21.592  0.00  0.00     0.000 C 
ATOM     23  C   UNL d   1     -45.679  13.763  22.763  0.00  0.00     0.000 A 
ATOM     24  C   UNL d   1     -46.112  13.806  23.463  0.00  0.00     0.002 A 
ATOM     25  C   UNL d   1     -46.584  13.165  23.697  0.00  0.00     0.019 A 
ENDBRANCH  17  19
ENDBRANCH   1  15
TORSDOF 5
ENDMDL
MODEL 6
REMARK VINA RESULT:      -5.5      9.646     11.058
REMARK  5 active torsions:
REMARK  status: ('A' for Active; 'I' for Inactive)
REMARK       I    between atoms: N_4  and  C_1 
REMARK       I    between atoms: N_8  and  C_1 
REMARK    1  A    between atoms: C_2  and  C_3 
REMARK    2  A    between atoms: C_5  and  C_2 
REMARK    3  A    between atoms: N_6  and  C_2 
REMARK    4  A    between atoms: C_3  and  N_4 
REMARK    5  A    between atoms: C_12  and  N_8 
ROOT
ATOM      1  C   UNL d   1     -39.226  14.041  17.821  0.00  0.00     0.103 C 
ATOM      2  C   UNL d   1     -39.232  13.281  17.523  0.00  0.00     0.022 C 
ENDROOT
BRANCH   1   3
ATOM      3  C   UNL d   1     -39.466  14.675  17.355  0.00  0.00     0.088 C 
BRANCH   3   4
ATOM      4  C   UNL d   1     -40.210  15.005  17.462  0.00  0.00     0.047 A 
ATOM      5  S   UNL d   1     -40.933  14.619  17.379  0.00  0.00    -0.085 SA
ATOM      6  C   UNL d   1     -41.535  15.161  17.539  0.00  0.00     0.035 A 
ATOM      7  C   UNL d   1     -41.188  15.889  17.723  0.00  0.00     0.007 A 
ATOM      8  C   UNL d   1     -40.370  15.790  17.675  0.00  0.00     0.009 A 
ENDBRANCH   3   4
BRANCH   3   9
ATOM      9  N   UNL d   1     -38.957  14.981  16.776  0.00  0.00    -0.299 N 
ATOM     10  C   UNL d   1     -38.460  15.610  16.953  0.00  0.00     0.107 A 
ATOM     11  C   UNL d   1     -37.954  15.914  16.380  0.00  0.00     0.142 A 
ATOM     12  O   UNL d   1     -37.940  15.590  15.614  0.00  0.00    -0.300 OA
ATOM     13  C   UNL d   1     -38.445  14.954  15.439  0.00  0.00     0.142 A 
ATOM     14  C   UNL d   1     -38.952  14.649  16.015  0.00  0.00     0.107 A 
ENDBRANCH   3   9
ENDBRANCH   1   3
BRANCH   1  15
ATOM     15  N   UNL d   1     -38.977  14.176  18.602  0.00  0.00    -0.190 NA
ATOM     16  C   UNL d   1     -38.617  13.569  19.025  0.00  0.00     0.369 C 
ATOM     17  N   UNL d   1     -38.370  13.706  19.802  0.00  0.00    -0.191 NA
ATOM     18  O   UNL d   1     -38.503  12.833  18.683  0.00  0.00    -0.242 OA
BRANCH  17  19
ATOM     19  C   UNL d   1     -38.483  14.446  20.150  0.00  0.00     0.086 A 
ATOM     20  C   UNL d   1     -39.138  14.574  20.632  0.00  0.00     0.019 A 
ATOM     21  C   UNL d   1     -39.251  15.305  20.977  0.00  0.00     0.002 A 
ATOM     22  C   UNL d   1     -39.910  15.441  21.463  0.00  0.00     0.000 C 
ATOM     23  C   UNL d   1     -38.708  15.922  20.844  0.00  0.00     0.000 A 
ATOM     24  C   UNL d   1     -38.052  15.790  20.362  0.00  0.00     0.002 A 
ATOM     25  C   UNL d   1     -37.940  15.046  20.012  0.00  0.00     0.019 A 
ENDBRANCH  17  19
ENDBRANCH   1  15
TORSDOF 5
ENDMDL
MODEL 7
REMARK VINA RESULT:      -5.2      9.338     10.924
REMARK  5 active torsions:
REMARK  status: ('A' for Active; 'I' for Inactive)
REMARK       I    between atoms: N_4  and  C_1 
REMARK       I    between atoms: N_8  and  C_1 
REMARK    1  A    between atoms: C_2  and  C_3 
REMARK    2  A    between atoms: C_5  and  C_2 
REMARK    3  A    between atoms: N_6  and  C_2 
REMARK    4  A    between atoms: C_3  and  N_4 
REMARK    5  A    between atoms: C_12  and  N_8 
ROOT
ATOM      1  C   UNL d   1     -39.800  14.042  18.493  0.00  0.00     0.103 C 
ATOM      2  C   UNL d   1     -40.533  13.784  18.242  0.00  0.00     0.022 C 
ENDROOT
BRANCH   1   3
ATOM      3  C   UNL d   1     -39.147  13.989  17.995  0.00  0.00     0.088 C 
BRANCH   3   4
ATOM      4  C   UNL d   1     -38.702  13.300  17.973  0.00  0.00     0.047 A 
ATOM      5  S   UNL d   1     -38.545  12.842  17.307  0.00  0.00    -0.085 SA
ATOM      6  C   UNL d   1     -38.078  12.201  17.539  0.00  0.00     0.035 A 
ATOM      7  C   UNL d   1     -37.942  12.259  18.353  0.00  0.00     0.007 A 
ATOM      8  C   UNL d   1     -38.328  12.938  18.618  0.00  0.00     0.009 A 
ENDBRANCH   3   4
BRANCH   3   9
ATOM      9  N   UNL d   1     -38.937  14.633  17.516  0.00  0.00    -0.299 N 
ATOM     10  C   UNL d   1     -38.192  14.973  17.581  0.00  0.00     0.107 A 
ATOM     11  C   UNL d   1     -37.983  15.611  17.107  0.00  0.00     0.142 A 
ATOM     12  O   UNL d   1     -38.522  15.922  16.554  0.00  0.00    -0.300 OA
ATOM     13  C   UNL d   1     -39.274  15.575  16.492  0.00  0.00     0.142 A 
ATOM     14  C   UNL d   1     -39.484  14.934  16.969  0.00  0.00     0.107 A 
ENDBRANCH   3   9
ENDBRANCH   1   3
BRANCH   1  15
ATOM     15  N   UNL d   1     -39.712  14.359  19.255  0.00  0.00    -0.190 NA
ATOM     16  C   UNL d   1     -40.376  14.470  19.729  0.00  0.00     0.369 C 
ATOM     17  N   UNL d   1     -40.286  14.787  20.487  0.00  0.00    -0.191 NA
ATOM     18  O   UNL d   1     -41.122  14.270  19.455  0.00  0.00    -0.242 OA
BRANCH  17  19
ATOM     19  C   UNL d   1     -39.537  14.990  20.767  0.00  0.00     0.086 A 
ATOM     20  C   UNL d   1     -39.125  14.465  21.249  0.00  0.00     0.019 A 
ATOM     21  C   UNL d   1     -38.383  14.664  21.526  0.00  0.00     0.002 A 
ATOM     22  C   UNL d   1     -37.963  14.140  22.013  0.00  0.00     0.000 C 
ATOM     23  C   UNL d   1     -38.041  15.396  21.324  0.00  0.00     0.000 A 
ATOM     24  C   UNL d   1     -38.455  15.920  20.841  0.00  0.00     0.002 A 
ATOM     25  C   UNL d   1     -39.209  15.714  20.560  0.00  0.00     0.019 A 
ENDBRANCH  17  19
ENDBRANCH   1  15
TORSDOF 5
ENDMDL
MODEL 8
REMARK VINA RESULT:      -5.2      1.149      1.885
REMARK  5 active torsions:
REMARK  status: ('A' for Active; 'I' for Inactive)
REMARK       I    between atoms: N_4  and  C_1 
REMARK       I    between atoms: N_8  and  C_1 
REMARK    1  A    between atoms: C_2  and  C_3 
REMARK    2  A    between atoms: C_5  and  C_2 
REMARK    3  A    between atoms: N_6  and  C_2 
REMARK    4  A    between atoms: C_3  and  N_4 
REMARK    5  A    between atoms: C_12  and  N_8 
ROOT
ATOM      1  C   UNL d   1     -49.217  13.875  23.106  0.00  0.00     0.103 C 
ATOM      2  C   UNL d   1     -49.617  14.414  23.572  0.00  0.00     0.022 C 
ENDROOT
BRANCH   1   3
ATOM      3  C   UNL d   1     -49.628  13.291  22.698  0.00  0.00     0.088 C 
BRANCH   3   4
ATOM      4  C   UNL d   1     -49.642  12.522  22.985  0.00  0.00     0.047 A 
ATOM      5  S   UNL d   1     -50.120  12.236  23.591  0.00  0.00    -0.085 SA
ATOM      6  C   UNL d   1     -49.951  11.434  23.698  0.00  0.00     0.035 A 
ATOM      7  C   UNL d   1     -49.364  11.218  23.156  0.00  0.00     0.007 A 
ATOM      8  C   UNL d   1     -49.175  11.891  22.718  0.00  0.00     0.009 A 
ENDBRANCH   3   4
BRANCH   3   9
ATOM      9  N   UNL d   1     -50.028  13.477  21.995  0.00  0.00    -0.299 N 
ATOM     10  C   UNL d   1     -50.664  13.996  22.007  0.00  0.00     0.107 A 
ATOM     11  C   UNL d   1     -51.062  14.181  21.312  0.00  0.00     0.142 A 
ATOM     12  O   UNL d   1     -50.825  13.847  20.587  0.00  0.00    -0.300 OA
ATOM     13  C   UNL d   1     -50.181  13.323  20.580  0.00  0.00     0.142 A 
ATOM     14  C   UNL d   1     -49.782  13.137  21.279  0.00  0.00     0.107 A 
ENDBRANCH   3   9
ENDBRANCH   1   3
BRANCH   1  15
ATOM     15  N   UNL d   1     -48.390  13.917  23.043  0.00  0.00    -0.190 NA
ATOM     16  C   UNL d   1     -48.018  14.651  23.044  0.00  0.00     0.369 C 
ATOM     17  N   UNL d   1     -47.195  14.691  22.981  0.00  0.00    -0.191 NA
ATOM     18  O   UNL d   1     -48.457  15.341  23.107  0.00  0.00    -0.242 OA
BRANCH  17  19
ATOM     19  C   UNL d   1     -46.749  13.999  22.918  0.00  0.00     0.086 A 
ATOM     20  C   UNL d   1     -46.475  13.756  22.180  0.00  0.00     0.019 A 
ATOM     21  C   UNL d   1     -46.035  13.072  22.116  0.00  0.00     0.002 A 
ATOM     22  C   UNL d   1     -45.756  12.822  21.375  0.00  0.00     0.000 C 
ATOM     23  C   UNL d   1     -45.861  12.618  22.792  0.00  0.00     0.000 A 
ATOM     24  C   UNL d   1     -46.136  12.863  23.529  0.00  0.00     0.002 A 
ATOM     25  C   UNL d   1     -46.584  13.559  23.592  0.00  0.00     0.019 A 
ENDBRANCH  17  19
ENDBRANCH   1  15
TORSDOF 5
ENDMDL
MODEL 9
REMARK VINA RESULT:      -5.1      8.143     10.094
REMARK  5 active torsions:
REMARK  status: ('A' for Active; 'I' for Inactive)
REMARK       I    between atoms: N_4  and  C_1 
REMARK       I    between atoms: N_8  and  C_1 
REMARK    1  A    between atoms: C_2  and  C_3 
REMARK    2  A    between atoms: C_5  and  C_2 
REMARK    3  A    between atoms: N_6  and  C_2 
REMARK    4  A    between atoms: C_3  and  N_4 
REMARK    5  A    between atoms: C_12  and  N_8 
ROOT
ATOM      1  C   UNL d   1     -40.514  15.291  19.296  0.00  0.00     0.103 C 
ATOM      2  C   UNL d   1     -41.074  15.884  19.260  0.00  0.00     0.022 C 
ENDROOT
BRANCH   1   3
ATOM      3  C   UNL d   1     -40.327  14.936  20.014  0.00  0.00     0.088 C 
BRANCH   3   4
ATOM      4  C   UNL d   1     -40.883  14.473  20.400  0.00  0.00     0.047 A 
ATOM      5  S   UNL d   1     -41.523  14.745  20.842  0.00  0.00    -0.085 SA
ATOM      6  C   UNL d   1     -41.936  14.089  21.130  0.00  0.00     0.035 A 
ATOM      7  C   UNL d   1     -41.553  13.405  20.867  0.00  0.00     0.007 A 
ATOM      8  C   UNL d   1     -40.904  13.644  20.417  0.00  0.00     0.009 A 
ENDBRANCH   3   4
BRANCH   3   9
ATOM      9  N   UNL d   1     -39.576  15.045  20.349  0.00  0.00    -0.299 N 
ATOM     10  C   UNL d   1     -39.130  14.398  20.587  0.00  0.00     0.107 A 
ATOM     11  C   UNL d   1     -38.386  14.505  20.919  0.00  0.00     0.142 A 
ATOM     12  O   UNL d   1     -38.072  15.270  21.017  0.00  0.00    -0.300 OA
ATOM     13  C   UNL d   1     -38.527  15.922  20.774  0.00  0.00     0.142 A 
ATOM     14  C   UNL d   1     -39.275  15.814  20.441  0.00  0.00     0.107 A 
ENDBRANCH   3   9
ENDBRANCH   1   3
BRANCH   1  15
ATOM     15  N   UNL d   1     -40.130  15.044  18.603  0.00  0.00    -0.190 NA
ATOM     16  C   UNL d   1     -40.446  15.242  17.869  0.00  0.00     0.369 C 
ATOM     17  N   UNL d   1     -40.061  14.994  17.180  0.00  0.00    -0.191 NA
ATOM     18  O   UNL d   1     -41.136  15.681  17.817  0.00  0.00    -0.242 OA
BRANCH  17  19
ATOM     19  C   UNL d   1     -39.366  14.553  17.228  0.00  0.00     0.086 A 
ATOM     20  C   UNL d   1     -39.407  13.734  17.303  0.00  0.00     0.019 A 
ATOM     21  C   UNL d   1     -38.720  13.295  17.351  0.00  0.00     0.002 A 
ATOM     22  C   UNL d   1     -38.756  12.469  17.427  0.00  0.00     0.000 C 
ATOM     23  C   UNL d   1     -37.978  13.671  17.324  0.00  0.00     0.000 A 
ATOM     24  C   UNL d   1     -37.940  14.491  17.248  0.00  0.00     0.002 A 
ATOM     25  C   UNL d   1     -38.639  14.935  17.200  0.00  0.00     0.019 A 
ENDBRANCH  17  19
ENDBRANCH   1  15
TORSDOF 5
ENDMDL
