MODEL 1
REMARK VINA RESULT:      -5.3      0.000      0.000
REMARK  5 active torsions:
REMARK  status: ('A' for Active; 'I' for Inactive)
REMARK    1  A    between atoms: C_6  and  C_1 
REMARK    2  A    between atoms: C_3  and  C_5 
REMARK    3  A    between atoms: C_5  and  C_6 
REMARK    4  A    between atoms: C_17  and  C_13 
REMARK    5  A    between atoms: C_20  and  C_17 
ROOT
ATOM      1  C   UNL d   1      58.141  -0.083  30.210  0.00  0.00     0.201 C 
ATOM      2  O   UNL d   1      57.439   0.100  29.812  0.00  0.00    -0.286 OA
ENDROOT
BRANCH   1   3
ATOM      3  C   UNL d   1      58.754  -0.442  29.790  0.00  0.00     0.078 A 
ATOM      4  C   UNL d   1      59.489  -0.056  29.720  0.00  0.00     0.202 A 
ATOM      5  C   UNL d   1      60.101  -0.416  29.300  0.00  0.00     0.084 A 
ATOM      6  O   UNL d   1      59.599   0.682  30.071  0.00  0.00    -0.286 OA
ATOM      7  C   UNL d   1      59.988  -1.147  28.954  0.00  0.00     0.199 A 
ATOM      8  C   UNL d   1      59.253  -1.532  29.024  0.00  0.00     0.039 A 
ATOM      9  O   UNL d   1      60.614  -1.499  28.532  0.00  0.00    -0.286 OA
ATOM     10  C   UNL d   1      58.659  -1.177  29.435  0.00  0.00     0.010 A 
BRANCH   8  11
ATOM     11  C   UNL d   1      59.160  -2.272  28.666  0.00  0.00     0.003 C 
BRANCH  11  12
ATOM     12  C   UNL d   1      58.643  -2.838  28.970  0.00  0.00     0.000 C 
ATOM     13  C   UNL d   1      58.501  -3.546  28.578  0.00  0.00     0.000 C 
ENDBRANCH  11  12
ENDBRANCH   8  11
ENDBRANCH   1   3
BRANCH   1  14
ATOM     14  C   UNL d   1      58.217   0.095  31.016  0.00  0.00     0.068 C 
BRANCH  14  15
ATOM     15  C   UNL d   1      57.606  -0.048  31.539  0.00  0.00     0.114 A 
ATOM     16  N   UNL d   1      57.182  -0.754  31.608  0.00  0.00    -0.238 NA
ATOM     17  C   UNL d   1      56.621  -0.648  32.204  0.00  0.00     0.088 A 
ATOM     18  C   UNL d   1      56.053  -1.153  32.509  0.00  0.00     0.020 A 
ATOM     19  C   UNL d   1      56.695   0.113  32.501  0.00  0.00     0.049 A 
ATOM     20  C   UNL d   1      55.549  -0.905  33.118  0.00  0.00     0.002 A 
ATOM     21  C   UNL d   1      55.632  -0.131  33.414  0.00  0.00     0.001 A 
ATOM     22  C   UNL d   1      56.200   0.374  33.108  0.00  0.00     0.008 A 
ATOM     23  S   UNL d   1      57.310   0.503  32.093  0.00  0.00    -0.066 SA
ENDBRANCH  14  15
ENDBRANCH   1  14
TORSDOF 5
ENDMDL
MODEL 2
REMARK VINA RESULT:      -3.8      1.621      2.130
REMARK  5 active torsions:
REMARK  status: ('A' for Active; 'I' for Inactive)
REMARK    1  A    between atoms: C_6  and  C_1 
REMARK    2  A    between atoms: C_3  and  C_5 
REMARK    3  A    between atoms: C_5  and  C_6 
REMARK    4  A    between atoms: C_17  and  C_13 
REMARK    5  A    between atoms: C_20  and  C_17 
ROOT
ATOM      1  C   UNL d   1      57.716   0.070  30.600  0.00  0.00     0.201 C 
ATOM      2  O   UNL d   1      57.463  -0.712  30.701  0.00  0.00    -0.286 OA
ENDROOT
BRANCH   1   3
ATOM      3  C   UNL d   1      58.342   0.222  30.085  0.00  0.00     0.078 A 
ATOM      4  C   UNL d   1      58.211   0.220  29.262  0.00  0.00     0.202 A 
ATOM      5  C   UNL d   1      58.838   0.372  28.748  0.00  0.00     0.084 A 
ATOM      6  O   UNL d   1      57.456   0.066  28.968  0.00  0.00    -0.286 OA
ATOM      7  C   UNL d   1      59.584   0.524  29.043  0.00  0.00     0.199 A 
ATOM      8  C   UNL d   1      59.715   0.526  29.865  0.00  0.00     0.039 A 
ATOM      9  O   UNL d   1      60.208   0.676  28.514  0.00  0.00    -0.286 OA
ATOM     10  C   UNL d   1      59.100   0.377  30.364  0.00  0.00     0.010 A 
BRANCH   8  11
ATOM     11  C   UNL d   1      60.478   0.681  30.144  0.00  0.00     0.003 C 
BRANCH  11  12
ATOM     12  C   UNL d   1      60.803   0.262  30.775  0.00  0.00     0.000 C 
ATOM     13  C   UNL d   1      61.127   0.646  31.425  0.00  0.00     0.000 C 
ENDBRANCH  11  12
ENDBRANCH   8  11
ENDBRANCH   1   3
BRANCH   1  14
ATOM     14  C   UNL d   1      57.340   0.682  31.014  0.00  0.00     0.068 C 
BRANCH  14  15
ATOM     15  C   UNL d   1      56.971   0.543  31.729  0.00  0.00     0.114 A 
ATOM     16  N   UNL d   1      56.168   0.378  31.837  0.00  0.00    -0.238 NA
ATOM     17  C   UNL d   1      56.043   0.277  32.646  0.00  0.00     0.088 A 
ATOM     18  C   UNL d   1      55.365   0.106  33.072  0.00  0.00     0.020 A 
ATOM     19  C   UNL d   1      56.757   0.377  33.037  0.00  0.00     0.049 A 
ATOM     20  C   UNL d   1      55.389   0.032  33.897  0.00  0.00     0.002 A 
ATOM     21  C   UNL d   1      56.119   0.135  34.285  0.00  0.00     0.001 A 
ATOM     22  C   UNL d   1      56.797   0.306  33.858  0.00  0.00     0.008 A 
ATOM     23  S   UNL d   1      57.350   0.544  32.474  0.00  0.00    -0.066 SA
ENDBRANCH  14  15
ENDBRANCH   1  14
TORSDOF 5
ENDMDL
MODEL 3
REMARK VINA RESULT:      -2.6      1.867      4.926
REMARK  5 active torsions:
REMARK  status: ('A' for Active; 'I' for Inactive)
REMARK    1  A    between atoms: C_6  and  C_1 
REMARK    2  A    between atoms: C_3  and  C_5 
REMARK    3  A    between atoms: C_5  and  C_6 
REMARK    4  A    between atoms: C_17  and  C_13 
REMARK    5  A    between atoms: C_20  and  C_17 
ROOT
ATOM      1  C   UNL d   1      57.074  -0.617  31.631  0.00  0.00     0.201 C 
ATOM      2  O   UNL d   1      57.407  -1.365  31.510  0.00  0.00    -0.286 OA
ENDROOT
BRANCH   1   3
ATOM      3  C   UNL d   1      56.675  -0.469  32.339  0.00  0.00     0.078 A 
ATOM      4  C   UNL d   1      55.931  -0.816  32.475  0.00  0.00     0.202 A 
ATOM      5  C   UNL d   1      55.533  -0.668  33.182  0.00  0.00     0.084 A 
ATOM      6  O   UNL d   1      55.597  -1.305  31.901  0.00  0.00    -0.286 OA
ATOM      7  C   UNL d   1      55.868  -0.183  33.748  0.00  0.00     0.199 A 
ATOM      8  C   UNL d   1      56.613   0.164  33.612  0.00  0.00     0.039 A 
ATOM      9  O   UNL d   1      55.457  -0.041  34.457  0.00  0.00    -0.286 OA
ATOM     10  C   UNL d   1      56.997   0.017  32.919  0.00  0.00     0.010 A 
BRANCH   8  11
ATOM     11  C   UNL d   1      56.934   0.652  34.196  0.00  0.00     0.003 C 
BRANCH  11  12
ATOM     12  C   UNL d   1      57.745   0.682  34.339  0.00  0.00     0.000 C 
ATOM     13  C   UNL d   1      58.050   0.670  35.102  0.00  0.00     0.000 C 
ENDBRANCH  11  12
ENDBRANCH   8  11
ENDBRANCH   1   3
BRANCH   1  14
ATOM     14  C   UNL d   1      57.144  -0.034  31.046  0.00  0.00     0.068 C 
BRANCH  14  15
ATOM     15  C   UNL d   1      57.843   0.070  30.636  0.00  0.00     0.114 A 
ATOM     16  N   UNL d   1      58.529   0.426  30.929  0.00  0.00    -0.238 NA
ATOM     17  C   UNL d   1      59.092   0.410  30.326  0.00  0.00     0.088 A 
ATOM     18  C   UNL d   1      59.865   0.680  30.299  0.00  0.00     0.020 A 
ATOM     19  C   UNL d   1      58.761   0.050  29.667  0.00  0.00     0.049 A 
ATOM     20  C   UNL d   1      60.320   0.595  29.612  0.00  0.00     0.002 A 
ATOM     21  C   UNL d   1      59.975   0.229  28.949  0.00  0.00     0.001 A 
ATOM     22  C   UNL d   1      59.203  -0.042  28.976  0.00  0.00     0.008 A 
ATOM     23  S   UNL d   1      57.976  -0.169  29.846  0.00  0.00    -0.066 SA
ENDBRANCH  14  15
ENDBRANCH   1  14
TORSDOF 5
ENDMDL
