MODEL 1
REMARK VINA RESULT:      -1.4      0.000      0.000
REMARK  2 active torsions:
REMARK  status: ('A' for Active; 'I' for Inactive)
REMARK    1  A    between atoms: C_8  and  N_1 
REMARK    2  A    between atoms: C_12  and  C_8 
ROOT
ATOM      1  N   UNL d   1     -41.204-122.448 -53.127  0.00  0.00    -0.238 N 
ATOM      2  C   UNL d   1     -41.243-122.939 -52.668  0.00  0.00     0.267 A 
ATOM      3  C   UNL d   1     -41.168-121.679 -52.978  0.00  0.00     0.267 A 
ATOM      4  C   UNL d   1     -41.172-121.322 -52.232  0.00  0.00     0.057 A 
ATOM      5  C   UNL d   1     -41.268-122.960 -51.866  0.00  0.00     0.057 A 
ATOM      6  C   UNL d   1     -41.214-121.703 -51.494  0.00  0.00     0.005 A 
ATOM      7  C   UNL d   1     -41.258-122.469 -51.377  0.00  0.00     0.005 A 
ATOM      8  O   UNL d   1     -41.273-123.736 -53.035  0.00  0.00    -0.267 OA
ATOM      9  O   UNL d   1     -41.125-121.195 -53.593  0.00  0.00    -0.267 OA
ATOM     10  C   UNL d   1     -41.308-123.624 -51.698  0.00  0.00     0.005 A 
ATOM     11  C   UNL d   1     -41.128-120.499 -52.287  0.00  0.00     0.005 A 
ATOM     12  C   UNL d   1     -41.211-121.245 -50.811  0.00  0.00     0.000 A 
ATOM     13  C   UNL d   1     -41.287-122.653 -50.704  0.00  0.00     0.000 A 
ATOM     14  C   UNL d   1     -41.125-120.045 -51.593  0.00  0.00     0.000 A 
ATOM     15  C   UNL d   1     -41.167-120.422 -50.856  0.00  0.00     0.000 A 
ATOM     16  C   UNL d   1     -41.327-123.325 -50.536  0.00  0.00     0.000 A 
ATOM     17  C   UNL d   1     -41.338-123.809 -51.029  0.00  0.00     0.000 A 
ENDROOT
BRANCH   1  18
ATOM     18  C   UNL d   1     -41.190-122.691 -53.981  0.00  0.00     0.111 C 
BRANCH  18  19
ATOM     19  C   UNL d   1     -41.868-122.487 -54.506  0.00  0.00     0.118 A 
ATOM     20  O   UNL d   1     -42.722-122.582 -54.305  0.00  0.00    -0.304 OA
ATOM     21  C   UNL d   1     -43.195-122.307 -54.996  0.00  0.00     0.123 A 
ATOM     22  C   UNL d   1     -42.633-122.042 -55.625  0.00  0.00     0.029 A 
ATOM     23  C   UNL d   1     -41.815-122.155 -55.318  0.00  0.00     0.028 A 
ENDBRANCH  18  19
ENDBRANCH   1  18
TORSDOF 2
ENDMDL
MODEL 2
REMARK VINA RESULT:      -1.2      0.284      2.023
REMARK  2 active torsions:
REMARK  status: ('A' for Active; 'I' for Inactive)
REMARK    1  A    between atoms: C_8  and  N_1 
REMARK    2  A    between atoms: C_12  and  C_8 
ROOT
ATOM      1  N   UNL d   1     -41.134-122.475 -53.075  0.00  0.00    -0.238 N 
ATOM      2  C   UNL d   1     -41.131-121.821 -52.915  0.00  0.00     0.267 A 
ATOM      3  C   UNL d   1     -41.141-123.074 -52.567  0.00  0.00     0.267 A 
ATOM      4  C   UNL d   1     -41.147-123.018 -51.742  0.00  0.00     0.057 A 
ATOM      5  C   UNL d   1     -41.134-121.408 -52.228  0.00  0.00     0.057 A 
ATOM      6  C   UNL d   1     -41.146-122.322 -51.286  0.00  0.00     0.005 A 
ATOM      7  C   UNL d   1     -41.140-121.597 -51.560  0.00  0.00     0.005 A 
ATOM      8  O   UNL d   1     -41.123-121.306 -53.627  0.00  0.00    -0.267 OA
ATOM      9  O   UNL d   1     -41.143-123.798 -52.865  0.00  0.00    -0.267 OA
ATOM     10  C   UNL d   1     -41.129-120.746 -52.407  0.00  0.00     0.005 A 
ATOM     11  C   UNL d   1     -41.154-123.763 -51.386  0.00  0.00     0.005 A 
ATOM     12  C   UNL d   1     -41.153-122.386 -50.467  0.00  0.00     0.000 A 
ATOM     13  C   UNL d   1     -41.141-121.105 -51.064  0.00  0.00     0.000 A 
ATOM     14  C   UNL d   1     -41.161-123.817 -50.559  0.00  0.00     0.000 A 
ATOM     15  C   UNL d   1     -41.160-123.126 -50.101  0.00  0.00     0.000 A 
ATOM     16  C   UNL d   1     -41.136-120.436 -51.249  0.00  0.00     0.000 A 
ATOM     17  C   UNL d   1     -41.130-120.256 -51.915  0.00  0.00     0.000 A 
ENDROOT
BRANCH   1  18
ATOM     18  C   UNL d   1     -41.128-122.684 -53.938  0.00  0.00     0.111 C 
BRANCH  18  19
ATOM     19  C   UNL d   1     -41.833-122.508 -54.437  0.00  0.00     0.118 A 
ATOM     20  O   UNL d   1     -42.622-122.898 -54.370  0.00  0.00    -0.304 OA
ATOM     21  C   UNL d   1     -43.151-122.545 -54.980  0.00  0.00     0.123 A 
ATOM     22  C   UNL d   1     -42.689-121.936 -55.424  0.00  0.00     0.029 A 
ATOM     23  C   UNL d   1     -41.876-121.917 -55.085  0.00  0.00     0.028 A 
ENDBRANCH  18  19
ENDBRANCH   1  18
TORSDOF 2
ENDMDL
MODEL 3
REMARK VINA RESULT:      -0.9      1.584      3.797
REMARK  2 active torsions:
REMARK  status: ('A' for Active; 'I' for Inactive)
REMARK    1  A    between atoms: C_8  and  N_1 
REMARK    2  A    between atoms: C_12  and  C_8 
ROOT
ATOM      1  N   UNL d   1     -41.134-122.506 -50.805  0.00  0.00    -0.238 N 
ATOM      2  C   UNL d   1     -41.134-121.845 -50.934  0.00  0.00     0.267 A 
ATOM      3  C   UNL d   1     -41.134-123.080 -51.340  0.00  0.00     0.267 A 
ATOM      4  C   UNL d   1     -41.133-122.986 -52.162  0.00  0.00     0.057 A 
ATOM      5  C   UNL d   1     -41.133-121.400 -51.601  0.00  0.00     0.057 A 
ATOM      6  C   UNL d   1     -41.132-122.269 -52.585  0.00  0.00     0.005 A 
ATOM      7  C   UNL d   1     -41.132-121.557 -52.277  0.00  0.00     0.005 A 
ATOM      8  O   UNL d   1     -41.134-121.364 -50.198  0.00  0.00    -0.267 OA
ATOM      9  O   UNL d   1     -41.134-123.817 -51.076  0.00  0.00    -0.267 OA
ATOM     10  C   UNL d   1     -41.133-120.747 -51.391  0.00  0.00     0.005 A 
ATOM     11  C   UNL d   1     -41.133-123.714 -52.552  0.00  0.00     0.005 A 
ATOM     12  C   UNL d   1     -41.131-122.295 -53.406  0.00  0.00     0.000 A 
ATOM     13  C   UNL d   1     -41.131-121.043 -52.749  0.00  0.00     0.000 A 
ATOM     14  C   UNL d   1     -41.132-123.729 -53.381  0.00  0.00     0.000 A 
ATOM     15  C   UNL d   1     -41.131-123.017 -53.806  0.00  0.00     0.000 A 
ATOM     16  C   UNL d   1     -41.131-120.383 -52.534  0.00  0.00     0.000 A 
ATOM     17  C   UNL d   1     -41.132-120.235 -51.860  0.00  0.00     0.000 A 
ENDROOT
BRANCH   1  18
ATOM     18  C   UNL d   1     -41.135-122.755 -49.953  0.00  0.00     0.111 C 
BRANCH  18  19
ATOM     19  C   UNL d   1     -41.899-122.906 -49.540  0.00  0.00     0.118 A 
ATOM     20  O   UNL d   1     -42.663-123.110 -49.930  0.00  0.00    -0.304 OA
ATOM     21  C   UNL d   1     -43.271-123.210 -49.299  0.00  0.00     0.123 A 
ATOM     22  C   UNL d   1     -42.882-123.068 -48.519  0.00  0.00     0.029 A 
ATOM     23  C   UNL d   1     -42.034-122.880 -48.672  0.00  0.00     0.028 A 
ENDBRANCH  18  19
ENDBRANCH   1  18
TORSDOF 2
ENDMDL
MODEL 4
REMARK VINA RESULT:       0.2      1.683      3.312
REMARK  2 active torsions:
REMARK  status: ('A' for Active; 'I' for Inactive)
REMARK    1  A    between atoms: C_8  and  N_1 
REMARK    2  A    between atoms: C_12  and  C_8 
ROOT
ATOM      1  N   UNL d   1     -41.124-122.531 -50.780  0.00  0.00    -0.238 N 
ATOM      2  C   UNL d   1     -41.125-123.002 -51.262  0.00  0.00     0.267 A 
ATOM      3  C   UNL d   1     -41.124-121.755 -50.894  0.00  0.00     0.267 A 
ATOM      4  C   UNL d   1     -41.124-121.365 -51.624  0.00  0.00     0.057 A 
ATOM      5  C   UNL d   1     -41.125-122.989 -52.063  0.00  0.00     0.057 A 
ATOM      6  C   UNL d   1     -41.124-121.715 -52.379  0.00  0.00     0.005 A 
ATOM      7  C   UNL d   1     -41.125-122.475 -52.531  0.00  0.00     0.005 A 
ATOM      8  O   UNL d   1     -41.126-123.816 -50.930  0.00  0.00    -0.267 OA
ATOM      9  O   UNL d   1     -41.123-121.298 -50.258  0.00  0.00    -0.267 OA
ATOM     10  C   UNL d   1     -41.126-123.645 -52.262  0.00  0.00     0.005 A 
ATOM     11  C   UNL d   1     -41.123-120.544 -51.531  0.00  0.00     0.005 A 
ATOM     12  C   UNL d   1     -41.124-121.226 -53.040  0.00  0.00     0.000 A 
ATOM     13  C   UNL d   1     -41.125-122.630 -53.211  0.00  0.00     0.000 A 
ATOM     14  C   UNL d   1     -41.123-120.061 -52.205  0.00  0.00     0.000 A 
ATOM     15  C   UNL d   1     -41.123-120.405 -52.959  0.00  0.00     0.000 A 
ATOM     16  C   UNL d   1     -41.126-123.295 -53.409  0.00  0.00     0.000 A 
ATOM     17  C   UNL d   1     -41.126-123.801 -52.939  0.00  0.00     0.000 A 
ENDROOT
BRANCH   1  18
ATOM     18  C   UNL d   1     -41.124-122.811 -49.937  0.00  0.00     0.111 C 
BRANCH  18  19
ATOM     19  C   UNL d   1     -41.885-122.881 -49.498  0.00  0.00     0.118 A 
ATOM     20  O   UNL d   1     -42.671-123.065 -49.854  0.00  0.00    -0.304 OA
ATOM     21  C   UNL d   1     -43.266-123.078 -49.205  0.00  0.00     0.123 A 
ATOM     22  C   UNL d   1     -42.848-122.901 -48.446  0.00  0.00     0.029 A 
ATOM     23  C   UNL d   1     -41.995-122.780 -48.632  0.00  0.00     0.028 A 
ENDBRANCH  18  19
ENDBRANCH   1  18
TORSDOF 2
ENDMDL
MODEL 5
REMARK VINA RESULT:       0.9      2.404      3.518
REMARK  2 active torsions:
REMARK  status: ('A' for Active; 'I' for Inactive)
REMARK    1  A    between atoms: C_8  and  N_1 
REMARK    2  A    between atoms: C_12  and  C_8 
ROOT
ATOM      1  N   UNL d   1     -42.332-122.190 -50.145  0.00  0.00    -0.238 N 
ATOM      2  C   UNL d   1     -42.934-122.493 -50.149  0.00  0.00     0.267 A 
ATOM      3  C   UNL d   1     -41.790-122.248 -49.582  0.00  0.00     0.267 A 
ATOM      4  C   UNL d   1     -41.850-122.691 -48.886  0.00  0.00     0.057 A 
ATOM      5  C   UNL d   1     -43.320-122.985 -49.647  0.00  0.00     0.057 A 
ATOM      6  C   UNL d   1     -42.493-123.160 -48.644  0.00  0.00     0.005 A 
ATOM      7  C   UNL d   1     -43.155-123.265 -49.034  0.00  0.00     0.005 A 
ATOM      8  O   UNL d   1     -43.398-122.301 -50.870  0.00  0.00    -0.267 OA
ATOM      9  O   UNL d   1     -41.123-121.851 -49.682  0.00  0.00    -0.267 OA
ATOM     10  C   UNL d   1     -43.925-123.117 -49.943  0.00  0.00     0.005 A 
ATOM     11  C   UNL d   1     -41.171-122.622 -48.421  0.00  0.00     0.005 A 
ATOM     12  C   UNL d   1     -42.443-123.560 -47.927  0.00  0.00     0.000 A 
ATOM     13  C   UNL d   1     -43.611-123.686 -48.714  0.00  0.00     0.000 A 
ATOM     14  C   UNL d   1     -41.130-123.029 -47.699  0.00  0.00     0.000 A 
ATOM     15  C   UNL d   1     -41.769-123.497 -47.455  0.00  0.00     0.000 A 
ATOM     16  C   UNL d   1     -44.222-123.817 -49.015  0.00  0.00     0.000 A 
ATOM     17  C   UNL d   1     -44.379-123.536 -49.626  0.00  0.00     0.000 A 
ENDROOT
BRANCH   1  18
ATOM     18  C   UNL d   1     -42.131-121.676 -50.841  0.00  0.00     0.111 C 
BRANCH  18  19
ATOM     19  C   UNL d   1     -41.786-122.036 -51.567  0.00  0.00     0.118 A 
ATOM     20  O   UNL d   1     -41.438-122.844 -51.627  0.00  0.00    -0.304 OA
ATOM     21  C   UNL d   1     -41.164-122.961 -52.456  0.00  0.00     0.123 A 
ATOM     22  C   UNL d   1     -41.344-122.225 -52.911  0.00  0.00     0.029 A 
ATOM     23  C   UNL d   1     -41.728-121.656 -52.358  0.00  0.00     0.028 A 
ENDBRANCH  18  19
ENDBRANCH   1  18
TORSDOF 2
ENDMDL
