MODEL 1
REMARK VINA RESULT:      -9.5      0.000      0.000
REMARK  4 active torsions:
REMARK  status: ('A' for Active; 'I' for Inactive)
REMARK    1  A    between atoms: C_10  and  N_2 
REMARK    2  A    between atoms: C_7  and  N_4 
REMARK    3  A    between atoms: C_11  and  C_7 
REMARK    4  A    between atoms: O_22  and  C_18 
ROOT
ATOM      1  S   UNL d   1     -48.051  12.237  23.061  0.00  0.00     0.276 S 
ATOM      2  N   UNL d   1     -47.792  12.912  22.660  0.00  0.00    -0.184 N 
ATOM      3  C   UNL d   1     -48.349  13.460  22.374  0.00  0.00     0.348 A 
ATOM      4  N   UNL d   1     -49.156  13.323  22.493  0.00  0.00    -0.258 N 
ATOM      5  C   UNL d   1     -48.856  12.102  23.180  0.00  0.00     0.120 A 
ATOM      6  C   UNL d   1     -49.413  12.650  22.893  0.00  0.00     0.081 A 
ATOM      7  O   UNL d   1     -48.015  11.511  23.476  0.00  0.00    -0.199 OA
ATOM      8  O   UNL d   1     -47.221  12.245  23.014  0.00  0.00    -0.199 OA
ATOM      9  O   UNL d   1     -48.094  14.147  21.966  0.00  0.00    -0.245 OA
ATOM     10  C   UNL d   1     -49.109  11.431  23.578  0.00  0.00     0.014 A 
ATOM     11  C   UNL d   1     -50.219  12.523  23.007  0.00  0.00     0.018 A 
ATOM     12  C   UNL d   1     -49.917  11.294  23.698  0.00  0.00     0.001 A 
ATOM     13  C   UNL d   1     -50.474  11.842  23.412  0.00  0.00     0.002 A 
ENDROOT
BRANCH   2  14
ATOM     14  C   UNL d   1     -46.990  13.045  22.543  0.00  0.00     0.079 A 
ATOM     15  C   UNL d   1     -46.572  12.613  21.975  0.00  0.00     0.020 A 
ATOM     16  C   UNL d   1     -45.767  12.745  21.855  0.00  0.00     0.026 A 
ATOM     17  C   UNL d   1     -45.371  13.317  22.310  0.00  0.00     0.094 A 
ATOM     18  C   UNL d   1     -45.784  13.752  22.880  0.00  0.00     0.026 A 
ATOM     19  C   UNL d   1     -46.594  13.617  22.997  0.00  0.00     0.020 A 
BRANCH  17  20
ATOM     20  O   UNL d   1     -44.553  13.457  22.194  0.00  0.00    -0.328 OA
ATOM     21  C   UNL d   1     -44.109  12.936  21.744  0.00  0.00     0.181 C 
ENDBRANCH  17  20
ENDBRANCH   2  14
BRANCH   4  22
ATOM     22  C   UNL d   1     -49.712  13.871  22.207  0.00  0.00     0.087 C 
BRANCH  22  23
ATOM     23  C   UNL d   1     -49.895  14.538  22.649  0.00  0.00     0.045 A 
ATOM     24  C   UNL d   1     -50.573  14.961  22.469  0.00  0.00     0.141 A 
ATOM     25  F   UNL d   1     -51.064  14.727  21.859  0.00  0.00    -0.204 F 
ATOM     26  C   UNL d   1     -50.755  15.630  22.914  0.00  0.00     0.030 A 
ATOM     27  C   UNL d   1     -50.263  15.867  23.527  0.00  0.00     0.002 A 
ATOM     28  C   UNL d   1     -49.587  15.436  23.698  0.00  0.00     0.000 A 
ATOM     29  C   UNL d   1     -49.403  14.771  23.258  0.00  0.00     0.004 A 
ENDBRANCH  22  23
ENDBRANCH   4  22
TORSDOF 4
ENDMDL
MODEL 2
REMARK VINA RESULT:      -7.0      9.640     10.572
REMARK  4 active torsions:
REMARK  status: ('A' for Active; 'I' for Inactive)
REMARK    1  A    between atoms: C_10  and  N_2 
REMARK    2  A    between atoms: C_7  and  N_4 
REMARK    3  A    between atoms: C_11  and  C_7 
REMARK    4  A    between atoms: O_22  and  C_18 
ROOT
ATOM      1  S   UNL d   1     -38.353  13.801  19.523  0.00  0.00     0.276 S 
ATOM      2  N   UNL d   1     -38.590  14.587  19.623  0.00  0.00    -0.184 N 
ATOM      3  C   UNL d   1     -38.781  15.046  18.956  0.00  0.00     0.348 A 
ATOM      4  N   UNL d   1     -38.733  14.711  18.201  0.00  0.00    -0.258 N 
ATOM      5  C   UNL d   1     -38.305  13.468  18.770  0.00  0.00     0.120 A 
ATOM      6  C   UNL d   1     -38.496  13.927  18.104  0.00  0.00     0.081 A 
ATOM      7  O   UNL d   1     -38.099  13.028  19.723  0.00  0.00    -0.199 OA
ATOM      8  O   UNL d   1     -38.357  14.003  20.330  0.00  0.00    -0.199 OA
ATOM      9  O   UNL d   1     -39.022  15.844  19.047  0.00  0.00    -0.245 OA
ATOM     10  C   UNL d   1     -38.070  12.688  18.676  0.00  0.00     0.014 A 
ATOM     11  C   UNL d   1     -38.451  13.603  17.347  0.00  0.00     0.018 A 
ATOM     12  C   UNL d   1     -38.021  12.352  17.921  0.00  0.00     0.001 A 
ATOM     13  C   UNL d   1     -38.212  12.811  17.254  0.00  0.00     0.002 A 
ENDROOT
BRANCH   2  14
ATOM     14  C   UNL d   1     -38.637  14.917  20.373  0.00  0.00     0.079 A 
ATOM     15  C   UNL d   1     -39.328  14.841  20.822  0.00  0.00     0.020 A 
ATOM     16  C   UNL d   1     -39.378  15.172  21.576  0.00  0.00     0.026 A 
ATOM     17  C   UNL d   1     -38.728  15.584  21.888  0.00  0.00     0.094 A 
ATOM     18  C   UNL d   1     -38.034  15.662  21.444  0.00  0.00     0.026 A 
ATOM     19  C   UNL d   1     -37.987  15.329  20.686  0.00  0.00     0.020 A 
BRANCH  17  20
ATOM     20  O   UNL d   1     -38.771  15.922  22.654  0.00  0.00    -0.328 OA
ATOM     21  C   UNL d   1     -38.710  15.444  23.316  0.00  0.00     0.181 C 
ENDBRANCH  17  20
ENDBRANCH   2  14
BRANCH   4  22
ATOM     22  C   UNL d   1     -38.924  15.170  17.535  0.00  0.00     0.087 C 
BRANCH  22  23
ATOM     23  C   UNL d   1     -39.710  15.289  17.331  0.00  0.00     0.045 A 
ATOM     24  C   UNL d   1     -39.886  15.666  16.625  0.00  0.00     0.141 A 
ATOM     25  F   UNL d   1     -39.291  15.922  16.127  0.00  0.00    -0.204 F 
ATOM     26  C   UNL d   1     -40.675  15.785  16.423  0.00  0.00     0.030 A 
ATOM     27  C   UNL d   1     -41.275  15.529  16.923  0.00  0.00     0.002 A 
ATOM     28  C   UNL d   1     -41.087  15.153  17.626  0.00  0.00     0.000 A 
ATOM     29  C   UNL d   1     -40.304  15.033  17.830  0.00  0.00     0.004 A 
ENDBRANCH  22  23
ENDBRANCH   4  22
TORSDOF 4
ENDMDL
MODEL 3
REMARK VINA RESULT:      -6.9      9.104     10.471
REMARK  4 active torsions:
REMARK  status: ('A' for Active; 'I' for Inactive)
REMARK    1  A    between atoms: C_10  and  N_2 
REMARK    2  A    between atoms: C_7  and  N_4 
REMARK    3  A    between atoms: C_11  and  C_7 
REMARK    4  A    between atoms: O_22  and  C_18 
ROOT
ATOM      1  S   UNL d   1     -40.249  15.373  19.588  0.00  0.00     0.276 S 
ATOM      2  N   UNL d   1     -39.497  15.083  19.772  0.00  0.00    -0.184 N 
ATOM      3  C   UNL d   1     -38.957  14.921  19.160  0.00  0.00     0.348 A 
ATOM      4  N   UNL d   1     -39.179  15.052  18.374  0.00  0.00    -0.258 N 
ATOM      5  C   UNL d   1     -40.469  15.503  18.804  0.00  0.00     0.120 A 
ATOM      6  C   UNL d   1     -39.930  15.341  18.192  0.00  0.00     0.081 A 
ATOM      7  O   UNL d   1     -41.029  15.654  19.703  0.00  0.00    -0.199 OA
ATOM      8  O   UNL d   1     -40.164  15.290  20.411  0.00  0.00    -0.199 OA
ATOM      9  O   UNL d   1     -38.193  14.627  19.337  0.00  0.00    -0.245 OA
ATOM     10  C   UNL d   1     -41.216  15.790  18.626  0.00  0.00     0.014 A 
ATOM     11  C   UNL d   1     -40.141  15.468  17.405  0.00  0.00     0.018 A 
ATOM     12  C   UNL d   1     -41.439  15.922  17.839  0.00  0.00     0.001 A 
ATOM     13  C   UNL d   1     -40.900  15.760  17.227  0.00  0.00     0.002 A 
ENDROOT
BRANCH   2  14
ATOM     14  C   UNL d   1     -39.279  14.954  20.553  0.00  0.00     0.079 A 
ATOM     15  C   UNL d   1     -39.451  14.234  20.923  0.00  0.00     0.020 A 
ATOM     16  C   UNL d   1     -39.233  14.103  21.708  0.00  0.00     0.026 A 
ATOM     17  C   UNL d   1     -38.838  14.698  22.131  0.00  0.00     0.094 A 
ATOM     18  C   UNL d   1     -38.664  15.420  21.766  0.00  0.00     0.026 A 
ATOM     19  C   UNL d   1     -38.884  15.549  20.977  0.00  0.00     0.020 A 
BRANCH  17  20
ATOM     20  O   UNL d   1     -38.614  14.572  22.929  0.00  0.00    -0.328 OA
ATOM     21  C   UNL d   1     -38.262  13.865  23.147  0.00  0.00     0.181 C 
ENDBRANCH  17  20
ENDBRANCH   2  14
BRANCH   4  22
ATOM     22  C   UNL d   1     -38.640  14.890  17.762  0.00  0.00     0.087 C 
BRANCH  22  23
ATOM     23  C   UNL d   1     -38.543  14.121  17.494  0.00  0.00     0.045 A 
ATOM     24  C   UNL d   1     -38.192  13.994  16.765  0.00  0.00     0.141 A 
ATOM     25  F   UNL d   1     -37.940  14.622  16.306  0.00  0.00    -0.204 F 
ATOM     26  C   UNL d   1     -38.095  13.220  16.499  0.00  0.00     0.030 A 
ATOM     27  C   UNL d   1     -38.347  12.589  16.958  0.00  0.00     0.002 A 
ATOM     28  C   UNL d   1     -38.697  12.727  17.686  0.00  0.00     0.000 A 
ATOM     29  C   UNL d   1     -38.795  13.494  17.954  0.00  0.00     0.004 A 
ENDBRANCH  22  23
ENDBRANCH   4  22
TORSDOF 4
ENDMDL
MODEL 4
REMARK VINA RESULT:      -6.8      1.164      2.495
REMARK  4 active torsions:
REMARK  status: ('A' for Active; 'I' for Inactive)
REMARK    1  A    between atoms: C_10  and  N_2 
REMARK    2  A    between atoms: C_7  and  N_4 
REMARK    3  A    between atoms: C_11  and  C_7 
REMARK    4  A    between atoms: O_22  and  C_18 
ROOT
ATOM      1  S   UNL d   1     -47.422  14.497  22.685  0.00  0.00     0.276 S 
ATOM      2  N   UNL d   1     -47.286  13.681  22.703  0.00  0.00    -0.184 N 
ATOM      3  C   UNL d   1     -47.907  13.165  22.903  0.00  0.00     0.348 A 
ATOM      4  N   UNL d   1     -48.654  13.473  23.081  0.00  0.00    -0.258 N 
ATOM      5  C   UNL d   1     -48.167  14.803  22.863  0.00  0.00     0.120 A 
ATOM      6  C   UNL d   1     -48.788  14.286  23.062  0.00  0.00     0.081 A 
ATOM      7  O   UNL d   1     -47.269  15.315  22.589  0.00  0.00    -0.199 OA
ATOM      8  O   UNL d   1     -46.633  14.331  22.486  0.00  0.00    -0.199 OA
ATOM      9  O   UNL d   1     -47.778  12.337  22.924  0.00  0.00    -0.245 OA
ATOM     10  C   UNL d   1     -48.299  15.612  22.843  0.00  0.00     0.014 A 
ATOM     11  C   UNL d   1     -49.536  14.583  23.242  0.00  0.00     0.018 A 
ATOM     12  C   UNL d   1     -49.046  15.921  23.022  0.00  0.00     0.001 A 
ATOM     13  C   UNL d   1     -49.667  15.405  23.221  0.00  0.00     0.002 A 
ENDROOT
BRANCH   2  14
ATOM     14  C   UNL d   1     -46.544  13.379  22.526  0.00  0.00     0.079 A 
ATOM     15  C   UNL d   1     -46.343  13.188  21.746  0.00  0.00     0.020 A 
ATOM     16  C   UNL d   1     -45.598  12.884  21.566  0.00  0.00     0.026 A 
ATOM     17  C   UNL d   1     -45.043  12.768  22.173  0.00  0.00     0.094 A 
ATOM     18  C   UNL d   1     -45.238  12.957  22.954  0.00  0.00     0.026 A 
ATOM     19  C   UNL d   1     -45.988  13.263  23.133  0.00  0.00     0.020 A 
BRANCH  17  20
ATOM     20  O   UNL d   1     -44.284  12.460  21.997  0.00  0.00    -0.328 OA
ATOM     21  C   UNL d   1     -43.767  12.887  21.527  0.00  0.00     0.181 C 
ENDBRANCH  17  20
ENDBRANCH   2  14
BRANCH   4  22
ATOM     22  C   UNL d   1     -49.274  12.957  23.281  0.00  0.00     0.087 C 
BRANCH  22  23
ATOM     23  C   UNL d   1     -49.783  12.683  22.698  0.00  0.00     0.045 A 
ATOM     24  C   UNL d   1     -50.520  12.398  22.914  0.00  0.00     0.141 A 
ATOM     25  F   UNL d   1     -50.751  12.384  23.698  0.00  0.00    -0.204 F 
ATOM     26  C   UNL d   1     -51.028  12.122  22.327  0.00  0.00     0.030 A 
ATOM     27  C   UNL d   1     -50.797  12.135  21.539  0.00  0.00     0.002 A 
ATOM     28  C   UNL d   1     -50.058  12.422  21.335  0.00  0.00     0.000 A 
ATOM     29  C   UNL d   1     -49.550  12.696  21.915  0.00  0.00     0.004 A 
ENDBRANCH  22  23
ENDBRANCH   4  22
TORSDOF 4
ENDMDL
