MODEL 1
REMARK VINA RESULT:      -4.9      0.000      0.000
REMARK  6 active torsions:
REMARK  status: ('A' for Active; 'I' for Inactive)
REMARK    1  A    between atoms: C_5  and  S_1 
REMARK    2  A    between atoms: N_6  and  S_1 
REMARK       I    between atoms: N_2  and  C_3 
REMARK    3  A    between atoms: C_3  and  C_14 
REMARK    4  A    between atoms: C_4  and  C_7 
REMARK    5  A    between atoms: C_23  and  N_6 
REMARK    6  A    between atoms: C_24  and  C_23 
ROOT
ATOM      1  C   UNL d   1     -47.430  12.749  22.779  0.00  0.00     0.057 A 
ATOM      2  C   UNL d   1     -47.222  12.903  21.995  0.00  0.00     0.005 A 
ATOM      3  C   UNL d   1     -46.861  12.811  23.373  0.00  0.00     0.005 A 
ATOM      4  C   UNL d   1     -45.885  13.180  22.402  0.00  0.00     0.020 A 
ATOM      5  C   UNL d   1     -46.454  13.118  21.806  0.00  0.00     0.002 A 
ATOM      6  C   UNL d   1     -46.088  13.027  23.185  0.00  0.00     0.002 A 
ENDROOT
BRANCH   4   7
ATOM      7  C   UNL d   1     -45.113  13.396  22.213  0.00  0.00     0.112 C 
BRANCH   7   8
ATOM      8  N   UNL d   1     -44.702  12.984  21.633  0.00  0.00    -0.157 NA
BRANCH   8   9
ATOM      9  S   UNL d   1     -43.879  13.099  21.552  0.00  0.00     0.285 S 
ATOM     10  O   UNL d   1     -43.812  12.329  21.232  0.00  0.00    -0.198 OA
ATOM     11  O   UNL d   1     -43.951  13.856  21.868  0.00  0.00    -0.198 OA
BRANCH   9  12
ATOM     12  C   UNL d   1     -43.066  13.202  21.469  0.00  0.00     0.105 A 
ATOM     13  C   UNL d   1     -42.772  13.847  21.057  0.00  0.00     0.017 A 
ATOM     14  C   UNL d   1     -41.958  13.951  20.972  0.00  0.00     0.072 A 
ATOM     15  C   UNL d   1     -41.438  13.399  21.307  0.00  0.00     0.004 A 
ATOM     16  C   UNL d   1     -41.732  12.753  21.720  0.00  0.00     0.001 A 
ATOM     17  C   UNL d   1     -42.546  12.657  21.799  0.00  0.00     0.013 A 
BRANCH  14  18
ATOM     18  C   UNL d   1     -41.661  14.596  20.560  0.00  0.00     0.419 C 
ATOM     19  F   UNL d   1     -41.514  14.113  19.905  0.00  0.00    -0.166 F 
ATOM     20  F   UNL d   1     -41.805  15.085  21.215  0.00  0.00    -0.166 F 
ATOM     21  F   UNL d   1     -41.359  15.249  20.144  0.00  0.00    -0.166 F 
ENDBRANCH  14  18
ENDBRANCH   9  12
ENDBRANCH   8   9
ENDBRANCH   7   8
ENDBRANCH   4   7
BRANCH   1  22
ATOM     22  C   UNL d   1     -48.214  12.530  22.972  0.00  0.00     0.265 C 
ATOM     23  N   UNL d   1     -48.796  13.115  23.058  0.00  0.00    -0.268 N 
ATOM     24  C   UNL d   1     -48.600  13.910  22.953  0.00  0.00     0.108 A 
ATOM     25  C   UNL d   1     -49.567  12.896  23.248  0.00  0.00     0.108 A 
ATOM     26  C   UNL d   1     -49.186  14.494  23.040  0.00  0.00     0.118 A 
ATOM     27  C   UNL d   1     -48.991  15.293  22.935  0.00  0.00     0.028 C 
ATOM     28  O   UNL d   1     -49.958  14.275  23.230  0.00  0.00    -0.304 OA
ATOM     29  C   UNL d   1     -50.157  13.479  23.336  0.00  0.00     0.118 A 
ATOM     30  C   UNL d   1     -50.934  13.265  23.526  0.00  0.00     0.028 C 
ATOM     31  O   UNL d   1     -48.405  11.731  23.075  0.00  0.00    -0.267 OA
ENDBRANCH   1  22
TORSDOF 6
ENDMDL
MODEL 2
REMARK VINA RESULT:      -4.6      3.177      7.456
REMARK  6 active torsions:
REMARK  status: ('A' for Active; 'I' for Inactive)
REMARK    1  A    between atoms: C_5  and  S_1 
REMARK    2  A    between atoms: N_6  and  S_1 
REMARK       I    between atoms: N_2  and  C_3 
REMARK    3  A    between atoms: C_3  and  C_14 
REMARK    4  A    between atoms: C_4  and  C_7 
REMARK    5  A    between atoms: C_23  and  N_6 
REMARK    6  A    between atoms: C_24  and  C_23 
ROOT
ATOM      1  C   UNL d   1     -40.128  14.921  20.279  0.00  0.00     0.057 A 
ATOM      2  C   UNL d   1     -40.188  14.114  20.439  0.00  0.00     0.005 A 
ATOM      3  C   UNL d   1     -40.741  15.429  20.496  0.00  0.00     0.005 A 
ATOM      4  C   UNL d   1     -41.467  14.326  21.030  0.00  0.00     0.020 A 
ATOM      5  C   UNL d   1     -40.854  13.816  20.813  0.00  0.00     0.002 A 
ATOM      6  C   UNL d   1     -41.411  15.131  20.872  0.00  0.00     0.002 A 
ENDROOT
BRANCH   4   7
ATOM      7  C   UNL d   1     -42.137  14.027  21.406  0.00  0.00     0.112 C 
BRANCH   7   8
ATOM      8  N   UNL d   1     -42.629  13.503  21.011  0.00  0.00    -0.157 NA
BRANCH   8   9
ATOM      9  S   UNL d   1     -43.292  13.184  21.406  0.00  0.00     0.285 S 
ATOM     10  O   UNL d   1     -43.387  13.908  21.815  0.00  0.00    -0.198 OA
ATOM     11  O   UNL d   1     -43.195  12.474  21.001  0.00  0.00    -0.198 OA
BRANCH   9  12
ATOM     12  C   UNL d   1     -43.948  12.879  21.801  0.00  0.00     0.105 A 
ATOM     13  C   UNL d   1     -44.658  13.289  21.801  0.00  0.00     0.017 A 
ATOM     14  C   UNL d   1     -45.315  12.983  22.196  0.00  0.00     0.072 A 
ATOM     15  C   UNL d   1     -45.252  12.258  22.594  0.00  0.00     0.004 A 
ATOM     16  C   UNL d   1     -44.541  11.848  22.594  0.00  0.00     0.001 A 
ATOM     17  C   UNL d   1     -43.891  12.160  22.197  0.00  0.00     0.013 A 
BRANCH  14  18
ATOM     18  C   UNL d   1     -46.027  13.391  22.199  0.00  0.00     0.419 C 
ATOM     19  F   UNL d   1     -45.774  13.835  22.849  0.00  0.00    -0.166 F 
ATOM     20  F   UNL d   1     -46.286  12.948  21.546  0.00  0.00    -0.166 F 
ATOM     21  F   UNL d   1     -46.749  13.803  22.200  0.00  0.00    -0.166 F 
ENDBRANCH  14  18
ENDBRANCH   9  12
ENDBRANCH   8   9
ENDBRANCH   7   8
ENDBRANCH   4   7
BRANCH   1  22
ATOM     22  C   UNL d   1     -39.448  15.225  19.897  0.00  0.00     0.265 C 
ATOM     23  N   UNL d   1     -39.427  15.272  19.069  0.00  0.00    -0.268 N 
ATOM     24  C   UNL d   1     -40.075  15.019  18.625  0.00  0.00     0.108 A 
ATOM     25  C   UNL d   1     -38.756  15.572  18.696  0.00  0.00     0.108 A 
ATOM     26  C   UNL d   1     -40.050  15.067  17.795  0.00  0.00     0.118 A 
ATOM     27  C   UNL d   1     -40.700  14.813  17.347  0.00  0.00     0.028 C 
ATOM     28  O   UNL d   1     -39.379  15.367  17.421  0.00  0.00    -0.304 OA
ATOM     29  C   UNL d   1     -38.728  15.622  17.863  0.00  0.00     0.118 A 
ATOM     30  C   UNL d   1     -38.056  15.922  17.484  0.00  0.00     0.028 C 
ATOM     31  O   UNL d   1     -38.800  15.478  20.347  0.00  0.00    -0.267 OA
ENDBRANCH   1  22
TORSDOF 6
ENDMDL
MODEL 3
REMARK VINA RESULT:      -4.1      2.839      7.033
REMARK  6 active torsions:
REMARK  status: ('A' for Active; 'I' for Inactive)
REMARK    1  A    between atoms: C_5  and  S_1 
REMARK    2  A    between atoms: N_6  and  S_1 
REMARK       I    between atoms: N_2  and  C_3 
REMARK    3  A    between atoms: C_3  and  C_14 
REMARK    4  A    between atoms: C_4  and  C_7 
REMARK    5  A    between atoms: C_23  and  N_6 
REMARK    6  A    between atoms: C_24  and  C_23 
ROOT
ATOM      1  C   UNL d   1     -41.456  13.993  20.663  0.00  0.00     0.057 A 
ATOM      2  C   UNL d   1     -41.985  14.495  21.049  0.00  0.00     0.005 A 
ATOM      3  C   UNL d   1     -41.617  13.185  20.615  0.00  0.00     0.005 A 
ATOM      4  C   UNL d   1     -42.830  13.384  21.336  0.00  0.00     0.020 A 
ATOM      5  C   UNL d   1     -42.670  14.192  21.385  0.00  0.00     0.002 A 
ATOM      6  C   UNL d   1     -42.304  12.880  20.952  0.00  0.00     0.002 A 
ENDROOT
BRANCH   4   7
ATOM      7  C   UNL d   1     -43.517  13.079  21.673  0.00  0.00     0.112 C 
BRANCH   7   8
ATOM      8  N   UNL d   1     -44.221  13.497  21.617  0.00  0.00    -0.157 NA
BRANCH   8   9
ATOM      9  S   UNL d   1     -44.901  13.213  22.011  0.00  0.00     0.285 S 
ATOM     10  O   UNL d   1     -44.955  13.938  22.425  0.00  0.00    -0.198 OA
ATOM     11  O   UNL d   1     -44.843  12.501  21.600  0.00  0.00    -0.198 OA
BRANCH   9  12
ATOM     12  C   UNL d   1     -45.572  12.941  22.404  0.00  0.00     0.105 A 
ATOM     13  C   UNL d   1     -46.297  13.304  22.282  0.00  0.00     0.017 A 
ATOM     14  C   UNL d   1     -46.969  13.033  22.676  0.00  0.00     0.072 A 
ATOM     15  C   UNL d   1     -46.907  12.390  23.196  0.00  0.00     0.004 A 
ATOM     16  C   UNL d   1     -46.182  12.026  23.318  0.00  0.00     0.001 A 
ATOM     17  C   UNL d   1     -45.516  12.304  22.921  0.00  0.00     0.013 A 
BRANCH  14  18
ATOM     18  C   UNL d   1     -47.697  13.394  22.557  0.00  0.00     0.419 C 
ATOM     19  F   UNL d   1     -47.800  12.962  21.860  0.00  0.00    -0.166 F 
ATOM     20  F   UNL d   1     -47.598  13.830  23.255  0.00  0.00    -0.166 F 
ATOM     21  F   UNL d   1     -48.433  13.760  22.437  0.00  0.00    -0.166 F 
ENDBRANCH  14  18
ENDBRANCH   9  12
ENDBRANCH   8   9
ENDBRANCH   7   8
ENDBRANCH   4   7
BRANCH   1  22
ATOM     22  C   UNL d   1     -40.757  14.301  20.321  0.00  0.00     0.265 C 
ATOM     23  N   UNL d   1     -40.046  14.280  20.746  0.00  0.00    -0.268 N 
ATOM     24  C   UNL d   1     -40.028  13.955  21.505  0.00  0.00     0.108 A 
ATOM     25  C   UNL d   1     -39.359  14.584  20.407  0.00  0.00     0.108 A 
ATOM     26  C   UNL d   1     -39.313  13.935  21.929  0.00  0.00     0.118 A 
ATOM     27  C   UNL d   1     -39.294  13.609  22.691  0.00  0.00     0.028 C 
ATOM     28  O   UNL d   1     -38.626  14.240  21.589  0.00  0.00    -0.304 OA
ATOM     29  C   UNL d   1     -38.640  14.566  20.829  0.00  0.00     0.118 A 
ATOM     30  C   UNL d   1     -37.948  14.871  20.492  0.00  0.00     0.028 C 
ATOM     31  O   UNL d   1     -40.780  14.626  19.559  0.00  0.00    -0.267 OA
ENDBRANCH   1  22
TORSDOF 6
ENDMDL
MODEL 4
REMARK VINA RESULT:      -3.8      1.274      1.645
REMARK  6 active torsions:
REMARK  status: ('A' for Active; 'I' for Inactive)
REMARK    1  A    between atoms: C_5  and  S_1 
REMARK    2  A    between atoms: N_6  and  S_1 
REMARK       I    between atoms: N_2  and  C_3 
REMARK    3  A    between atoms: C_3  and  C_14 
REMARK    4  A    between atoms: C_4  and  C_7 
REMARK    5  A    between atoms: C_23  and  N_6 
REMARK    6  A    between atoms: C_24  and  C_23 
ROOT
ATOM      1  C   UNL d   1     -46.034  12.684  22.610  0.00  0.00     0.057 A 
ATOM      2  C   UNL d   1     -45.556  12.164  22.183  0.00  0.00     0.005 A 
ATOM      3  C   UNL d   1     -45.833  13.483  22.655  0.00  0.00     0.005 A 
ATOM      4  C   UNL d   1     -44.683  13.240  21.850  0.00  0.00     0.020 A 
ATOM      5  C   UNL d   1     -44.883  12.440  21.804  0.00  0.00     0.002 A 
ATOM      6  C   UNL d   1     -45.157  13.762  22.275  0.00  0.00     0.002 A 
ENDROOT
BRANCH   4   7
ATOM      7  C   UNL d   1     -44.007  13.518  21.469  0.00  0.00     0.112 C 
BRANCH   7   8
ATOM      8  N   UNL d   1     -43.335  13.048  21.432  0.00  0.00    -0.157 NA
BRANCH   8   9
ATOM      9  S   UNL d   1     -42.608  13.388  21.200  0.00  0.00     0.285 S 
ATOM     10  O   UNL d   1     -42.423  12.687  20.783  0.00  0.00    -0.198 OA
ATOM     11  O   UNL d   1     -42.795  14.076  21.613  0.00  0.00    -0.198 OA
BRANCH   9  12
ATOM     12  C   UNL d   1     -41.889  13.714  20.966  0.00  0.00     0.105 A 
ATOM     13  C   UNL d   1     -41.797  14.009  20.207  0.00  0.00     0.017 A 
ATOM     14  C   UNL d   1     -41.076  14.336  19.972  0.00  0.00     0.072 A 
ATOM     15  C   UNL d   1     -40.446  14.365  20.510  0.00  0.00     0.004 A 
ATOM     16  C   UNL d   1     -40.538  14.070  21.270  0.00  0.00     0.001 A 
ATOM     17  C   UNL d   1     -41.260  13.746  21.496  0.00  0.00     0.013 A 
BRANCH  14  18
ATOM     18  C   UNL d   1     -40.980  14.631  19.212  0.00  0.00     0.419 C 
ATOM     19  F   UNL d   1     -40.720  13.890  18.954  0.00  0.00    -0.166 F 
ATOM     20  F   UNL d   1     -41.241  15.377  19.466  0.00  0.00    -0.166 F 
ATOM     21  F   UNL d   1     -40.883  14.931  18.444  0.00  0.00    -0.166 F 
ENDBRANCH  14  18
ENDBRANCH   9  12
ENDBRANCH   8   9
ENDBRANCH   7   8
ENDBRANCH   4   7
BRANCH   1  22
ATOM     22  C   UNL d   1     -46.721  12.403  22.997  0.00  0.00     0.265 C 
ATOM     23  N   UNL d   1     -47.469  12.564  22.678  0.00  0.00    -0.268 N 
ATOM     24  C   UNL d   1     -47.535  13.001  21.980  0.00  0.00     0.108 A 
ATOM     25  C   UNL d   1     -48.143  12.286  23.061  0.00  0.00     0.108 A 
ATOM     26  C   UNL d   1     -48.286  13.161  21.663  0.00  0.00     0.118 A 
ATOM     27  C   UNL d   1     -48.353  13.600  20.962  0.00  0.00     0.028 C 
ATOM     28  O   UNL d   1     -48.961  12.883  22.046  0.00  0.00    -0.304 OA
ATOM     29  C   UNL d   1     -48.899  12.445  22.745  0.00  0.00     0.118 A 
ATOM     30  C   UNL d   1     -49.580  12.168  23.126  0.00  0.00     0.028 C 
ATOM     31  O   UNL d   1     -46.650  11.965  23.697  0.00  0.00    -0.267 OA
ENDBRANCH   1  22
TORSDOF 6
ENDMDL
MODEL 5
REMARK VINA RESULT:      -3.4      7.013      8.852
REMARK  6 active torsions:
REMARK  status: ('A' for Active; 'I' for Inactive)
REMARK    1  A    between atoms: C_5  and  S_1 
REMARK    2  A    between atoms: N_6  and  S_1 
REMARK       I    between atoms: N_2  and  C_3 
REMARK    3  A    between atoms: C_3  and  C_14 
REMARK    4  A    between atoms: C_4  and  C_7 
REMARK    5  A    between atoms: C_23  and  N_6 
REMARK    6  A    between atoms: C_24  and  C_23 
ROOT
ATOM      1  C   UNL d   1     -39.789  15.220  17.262  0.00  0.00     0.057 A 
ATOM      2  C   UNL d   1     -39.548  15.875  17.703  0.00  0.00     0.005 A 
ATOM      3  C   UNL d   1     -40.193  14.603  17.632  0.00  0.00     0.005 A 
ATOM      4  C   UNL d   1     -40.114  15.296  18.875  0.00  0.00     0.020 A 
ATOM      5  C   UNL d   1     -39.709  15.914  18.506  0.00  0.00     0.002 A 
ATOM      6  C   UNL d   1     -40.355  14.641  18.439  0.00  0.00     0.002 A 
ENDROOT
BRANCH   4   7
ATOM      7  C   UNL d   1     -40.276  15.334  19.682  0.00  0.00     0.112 C 
BRANCH   7   8
ATOM      8  N   UNL d   1     -39.832  15.825  20.167  0.00  0.00    -0.157 NA
BRANCH   8   9
ATOM      9  S   UNL d   1     -39.584  15.549  20.915  0.00  0.00     0.285 S 
ATOM     10  O   UNL d   1     -40.325  15.173  21.013  0.00  0.00    -0.198 OA
ATOM     11  O   UNL d   1     -38.856  15.921  20.813  0.00  0.00    -0.198 OA
BRANCH   9  12
ATOM     12  C   UNL d   1     -39.348  15.272  21.654  0.00  0.00     0.105 A 
ATOM     13  C   UNL d   1     -39.359  14.469  21.817  0.00  0.00     0.017 A 
ATOM     14  C   UNL d   1     -39.123  14.191  22.557  0.00  0.00     0.072 A 
ATOM     15  C   UNL d   1     -38.874  14.730  23.136  0.00  0.00     0.004 A 
ATOM     16  C   UNL d   1     -38.863  15.534  22.973  0.00  0.00     0.001 A 
ATOM     17  C   UNL d   1     -39.100  15.802  22.232  0.00  0.00     0.013 A 
BRANCH  14  18
ATOM     18  C   UNL d   1     -39.133  13.387  22.724  0.00  0.00     0.419 C 
ATOM     19  F   UNL d   1     -38.396  13.300  22.359  0.00  0.00    -0.166 F 
ATOM     20  F   UNL d   1     -39.873  13.469  23.090  0.00  0.00    -0.166 F 
ATOM     21  F   UNL d   1     -39.144  12.573  22.892  0.00  0.00    -0.166 F 
ENDBRANCH  14  18
ENDBRANCH   9  12
ENDBRANCH   8   9
ENDBRANCH   7   8
ENDBRANCH   4   7
BRANCH   1  22
ATOM     22  C   UNL d   1     -39.624  15.180  16.442  0.00  0.00     0.265 C 
ATOM     23  N   UNL d   1     -39.121  14.589  16.152  0.00  0.00    -0.268 N 
ATOM     24  C   UNL d   1     -38.784  14.042  16.670  0.00  0.00     0.108 A 
ATOM     25  C   UNL d   1     -38.960  14.552  15.344  0.00  0.00     0.108 A 
ATOM     26  C   UNL d   1     -38.279  13.450  16.375  0.00  0.00     0.118 A 
ATOM     27  C   UNL d   1     -37.940  12.900  16.895  0.00  0.00     0.028 C 
ATOM     28  O   UNL d   1     -38.119  13.413  15.567  0.00  0.00    -0.304 OA
ATOM     29  C   UNL d   1     -38.455  13.960  15.045  0.00  0.00     0.118 A 
ATOM     30  C   UNL d   1     -38.290  13.918  14.234  0.00  0.00     0.028 C 
ATOM     31  O   UNL d   1     -39.964  15.731  15.926  0.00  0.00    -0.267 OA
ENDBRANCH   1  22
TORSDOF 6
ENDMDL
