MODEL 1
REMARK VINA RESULT:      -8.2      0.000      0.000
REMARK  3 active torsions:
REMARK  status: ('A' for Active; 'I' for Inactive)
REMARK    1  A    between atoms: C_8  and  C_1 
REMARK    2  A    between atoms: N_5  and  C_2 
REMARK       I    between atoms: C_7  and  N_5 
REMARK    3  A    between atoms: C_9  and  C_7 
ROOT
ATOM      1  C   UNL d   1      53.130  33.008  53.794  0.00  0.00     0.229 A 
ATOM      2  C   UNL d   1      51.961  33.170  53.174  0.00  0.00     0.297 A 
ATOM      3  O   UNL d   1      52.411  33.415  53.818  0.00  0.00    -0.252 OA
ATOM      4  N   UNL d   1      53.117  32.519  53.139  0.00  0.00    -0.117 NA
ATOM      5  N   UNL d   1      52.395  32.619  52.756  0.00  0.00    -0.101 NA
ENDROOT
BRANCH   2   6
ATOM      6  N   UNL d   1      51.205  33.440  52.991  0.00  0.00    -0.165 NA
ATOM      7  C   UNL d   1      51.106  34.095  52.516  0.00  0.00     0.282 C 
ATOM      8  O   UNL d   1      51.760  34.499  52.209  0.00  0.00    -0.265 OA
BRANCH   7   9
ATOM      9  C   UNL d   1      50.349  34.364  52.334  0.00  0.00     0.058 A 
ATOM     10  C   UNL d   1      50.043  34.232  51.581  0.00  0.00     0.005 A 
ATOM     11  C   UNL d   1      49.282  34.499  51.389  0.00  0.00     0.000 A 
ATOM     12  C   UNL d   1      48.833  34.900  51.957  0.00  0.00     0.000 A 
ATOM     13  C   UNL d   1      49.147  35.030  52.711  0.00  0.00     0.000 A 
ATOM     14  C   UNL d   1      48.077  35.172  51.784  0.00  0.00     0.000 C 
ATOM     15  C   UNL d   1      49.905  34.762  52.901  0.00  0.00     0.005 A 
ENDBRANCH   7   9
ENDBRANCH   2   6
BRANCH   1  16
ATOM     16  C   UNL d   1      53.747  33.089  54.340  0.00  0.00     0.143 A 
ATOM     17  O   UNL d   1      53.750  32.810  55.111  0.00  0.00    -0.301 OA
ATOM     18  C   UNL d   1      54.471  33.012  55.452  0.00  0.00     0.123 A 
ATOM     19  C   UNL d   1      54.918  33.420  54.887  0.00  0.00     0.029 A 
ATOM     20  C   UNL d   1      54.472  33.468  54.200  0.00  0.00     0.030 A 
ENDBRANCH   1  16
TORSDOF 3
ENDMDL
MODEL 2
REMARK VINA RESULT:      -8.1      1.290      4.883
REMARK  3 active torsions:
REMARK  status: ('A' for Active; 'I' for Inactive)
REMARK    1  A    between atoms: C_8  and  C_1 
REMARK    2  A    between atoms: N_5  and  C_2 
REMARK       I    between atoms: C_7  and  N_5 
REMARK    3  A    between atoms: C_9  and  C_7 
ROOT
ATOM      1  C   UNL d   1      49.591  34.816  52.626  0.00  0.00     0.229 A 
ATOM      2  C   UNL d   1      50.718  34.197  52.980  0.00  0.00     0.297 A 
ATOM      3  O   UNL d   1      50.101  34.665  53.259  0.00  0.00    -0.252 OA
ATOM      4  N   UNL d   1      49.897  34.442  51.967  0.00  0.00    -0.117 NA
ATOM      5  N   UNL d   1      50.592  34.060  52.185  0.00  0.00    -0.101 NA
ENDROOT
BRANCH   2   6
ATOM      6  N   UNL d   1      51.348  33.920  53.432  0.00  0.00    -0.165 NA
ATOM      7  C   UNL d   1      52.095  34.229  53.330  0.00  0.00     0.282 C 
ATOM      8  O   UNL d   1      52.234  34.825  52.772  0.00  0.00    -0.265 OA
BRANCH   7   9
ATOM      9  C   UNL d   1      52.724  33.952  53.783  0.00  0.00     0.058 A 
ATOM     10  C   UNL d   1      53.063  34.444  54.349  0.00  0.00     0.005 A 
ATOM     11  C   UNL d   1      53.697  34.174  54.810  0.00  0.00     0.000 A 
ATOM     12  C   UNL d   1      53.986  33.407  54.697  0.00  0.00     0.000 A 
ATOM     13  C   UNL d   1      53.642  32.918  54.127  0.00  0.00     0.000 A 
ATOM     14  C   UNL d   1      54.614  33.122  55.145  0.00  0.00     0.000 C 
ATOM     15  C   UNL d   1      53.010  33.189  53.669  0.00  0.00     0.005 A 
ENDBRANCH   7   9
ENDBRANCH   2   6
BRANCH   1  16
ATOM     16  C   UNL d   1      48.898  35.266  52.664  0.00  0.00     0.143 A 
ATOM     17  O   UNL d   1      48.642  35.708  53.305  0.00  0.00    -0.301 OA
ATOM     18  C   UNL d   1      47.930  36.064  53.101  0.00  0.00     0.123 A 
ATOM     19  C   UNL d   1      47.743  35.842  52.326  0.00  0.00     0.029 A 
ATOM     20  C   UNL d   1      48.340  35.349  52.055  0.00  0.00     0.030 A 
ENDBRANCH   1  16
TORSDOF 3
ENDMDL
MODEL 3
REMARK VINA RESULT:      -8.1      1.874      4.762
REMARK  3 active torsions:
REMARK  status: ('A' for Active; 'I' for Inactive)
REMARK    1  A    between atoms: C_8  and  C_1 
REMARK    2  A    between atoms: N_5  and  C_2 
REMARK       I    between atoms: C_7  and  N_5 
REMARK    3  A    between atoms: C_9  and  C_7 
ROOT
ATOM      1  C   UNL d   1      50.842  34.173  52.863  0.00  0.00     0.229 A 
ATOM      2  C   UNL d   1      51.739  33.261  53.240  0.00  0.00     0.297 A 
ATOM      3  O   UNL d   1      50.935  33.392  53.119  0.00  0.00    -0.252 OA
ATOM      4  N   UNL d   1      51.584  34.513  52.828  0.00  0.00    -0.117 NA
ATOM      5  N   UNL d   1      52.138  33.951  53.061  0.00  0.00    -0.101 NA
ENDROOT
BRANCH   2   6
ATOM      6  N   UNL d   1      52.072  32.553  53.497  0.00  0.00    -0.165 NA
ATOM      7  C   UNL d   1      52.473  32.074  52.974  0.00  0.00     0.282 C 
ATOM      8  O   UNL d   1      52.552  32.288  52.178  0.00  0.00    -0.265 OA
BRANCH   7   9
ATOM      9  C   UNL d   1      52.806  31.366  53.231  0.00  0.00     0.058 A 
ATOM     10  C   UNL d   1      52.463  30.652  53.006  0.00  0.00     0.005 A 
ATOM     11  C   UNL d   1      52.790  29.935  53.260  0.00  0.00     0.000 A 
ATOM     12  C   UNL d   1      53.464  29.940  53.742  0.00  0.00     0.000 A 
ATOM     13  C   UNL d   1      53.803  30.661  53.965  0.00  0.00     0.000 A 
ATOM     14  C   UNL d   1      53.803  29.238  54.004  0.00  0.00     0.000 C 
ATOM     15  C   UNL d   1      53.475  31.375  53.710  0.00  0.00     0.005 A 
ENDBRANCH   7   9
ENDBRANCH   2   6
BRANCH   1  16
ATOM     16  C   UNL d   1      50.121  34.535  52.677  0.00  0.00     0.143 A 
ATOM     17  O   UNL d   1      49.671  35.003  53.178  0.00  0.00    -0.301 OA
ATOM     18  C   UNL d   1      49.002  35.246  52.767  0.00  0.00     0.123 A 
ATOM     19  C   UNL d   1      49.038  34.926  52.004  0.00  0.00     0.029 A 
ATOM     20  C   UNL d   1      49.728  34.487  51.948  0.00  0.00     0.030 A 
ENDBRANCH   1  16
TORSDOF 3
ENDMDL
MODEL 4
REMARK VINA RESULT:      -7.7      2.522      3.648
REMARK  3 active torsions:
REMARK  status: ('A' for Active; 'I' for Inactive)
REMARK    1  A    between atoms: C_8  and  C_1 
REMARK    2  A    between atoms: N_5  and  C_2 
REMARK       I    between atoms: C_7  and  N_5 
REMARK    3  A    between atoms: C_9  and  C_7 
ROOT
ATOM      1  C   UNL d   1      53.074  30.591  53.381  0.00  0.00     0.229 A 
ATOM      2  C   UNL d   1      53.181  31.917  53.298  0.00  0.00     0.297 A 
ATOM      3  O   UNL d   1      53.261  31.275  53.806  0.00  0.00    -0.252 OA
ATOM      4  N   UNL d   1      52.883  30.817  52.619  0.00  0.00    -0.117 NA
ATOM      5  N   UNL d   1      52.949  31.635  52.567  0.00  0.00    -0.101 NA
ENDROOT
BRANCH   2   6
ATOM      6  N   UNL d   1      53.316  32.704  53.501  0.00  0.00    -0.165 NA
ATOM      7  C   UNL d   1      52.693  33.186  53.711  0.00  0.00     0.282 C 
ATOM      8  O   UNL d   1      51.918  32.896  53.724  0.00  0.00    -0.265 OA
BRANCH   7   9
ATOM      9  C   UNL d   1      52.829  33.973  53.913  0.00  0.00     0.058 A 
ATOM     10  C   UNL d   1      53.109  34.154  54.666  0.00  0.00     0.005 A 
ATOM     11  C   UNL d   1      53.248  34.942  54.880  0.00  0.00     0.000 A 
ATOM     12  C   UNL d   1      53.104  35.546  54.332  0.00  0.00     0.000 A 
ATOM     13  C   UNL d   1      52.822  35.357  53.578  0.00  0.00     0.000 A 
ATOM     14  C   UNL d   1      53.236  36.334  54.526  0.00  0.00     0.000 C 
ATOM     15  C   UNL d   1      52.684  34.571  53.367  0.00  0.00     0.005 A 
ENDBRANCH   7   9
ENDBRANCH   2   6
BRANCH   1  16
ATOM     16  C   UNL d   1      53.083  29.820  53.681  0.00  0.00     0.143 A 
ATOM     17  O   UNL d   1      52.575  29.212  53.470  0.00  0.00    -0.301 OA
ATOM     18  C   UNL d   1      52.782  28.545  53.904  0.00  0.00     0.123 A 
ATOM     19  C   UNL d   1      53.424  28.741  54.388  0.00  0.00     0.029 A 
ATOM     20  C   UNL d   1      53.611  29.528  54.252  0.00  0.00     0.030 A 
ENDBRANCH   1  16
TORSDOF 3
ENDMDL
