MODEL 1
REMARK VINA RESULT:      -1.0      0.000      0.000
REMARK  3 active torsions:
REMARK  status: ('A' for Active; 'I' for Inactive)
REMARK    1  A    between atoms: N_3  and  S_1 
REMARK    2  A    between atoms: C_5  and  S_1 
REMARK       I    between atoms: C_2  and  N_4 
REMARK       I    between atoms: N_6  and  C_2 
REMARK    3  A    between atoms: C_13  and  N_6 
ROOT
ATOM      1  C   UNL d   1      58.090  -0.604  30.844  0.00  0.00     0.339 C 
ATOM      2  N   UNL d   1      56.341  -0.119  32.546  0.00  0.00    -0.226 N 
ATOM      3  N   UNL d   1      57.510  -0.443  31.408  0.00  0.00    -0.254 N 
ATOM      4  N   UNL d   1      58.696  -0.062  30.702  0.00  0.00    -0.257 N 
ATOM      5  C   UNL d   1      56.948   0.432  32.409  0.00  0.00     0.111 A 
ATOM      6  C   UNL d   1      56.321  -0.824  32.117  0.00  0.00     0.111 A 
ATOM      7  O   UNL d   1      58.055  -1.317  30.421  0.00  0.00    -0.245 OA
ATOM      8  C   UNL d   1      57.531   0.270  31.842  0.00  0.00     0.104 A 
ATOM      9  C   UNL d   1      56.901  -0.985  31.552  0.00  0.00     0.104 A 
ATOM     10  C   UNL d   1      58.724   0.641  31.123  0.00  0.00     0.104 C 
ENDROOT
BRANCH   2  11
ATOM     11  S   UNL d   1      55.765   0.041  33.108  0.00  0.00     0.271 S 
ATOM     12  O   UNL d   1      55.473   0.642  32.624  0.00  0.00    -0.200 OA
ATOM     13  O   UNL d   1      56.069  -0.563  33.580  0.00  0.00    -0.200 OA
BRANCH  11  14
ATOM     14  C   UNL d   1      55.186   0.202  33.672  0.00  0.00     0.104 A 
ATOM     15  C   UNL d   1      55.405   0.344  34.448  0.00  0.00     0.013 A 
ATOM     16  C   UNL d   1      54.834   0.502  35.004  0.00  0.00     0.001 A 
ATOM     17  C   UNL d   1      55.048   0.646  35.787  0.00  0.00     0.000 C 
ATOM     18  C   UNL d   1      54.049   0.521  34.796  0.00  0.00     0.000 A 
ATOM     19  C   UNL d   1      53.835   0.377  34.014  0.00  0.00     0.001 A 
ATOM     20  C   UNL d   1      53.469   0.681  35.360  0.00  0.00     0.000 C 
ATOM     21  C   UNL d   1      54.406   0.219  33.458  0.00  0.00     0.013 A 
ENDBRANCH  11  14
ENDBRANCH   2  11
BRANCH   4  22
ATOM     22  C   UNL d   1      59.276  -0.234  30.130  0.00  0.00     0.068 A 
ATOM     23  C   UNL d   1      59.127  -0.107  29.326  0.00  0.00     0.018 A 
ATOM     24  C   UNL d   1      59.711  -0.283  28.771  0.00  0.00     0.002 A 
ATOM     25  C   UNL d   1      60.439  -0.584  29.013  0.00  0.00     0.000 A 
ATOM     26  C   UNL d   1      60.583  -0.710  29.825  0.00  0.00     0.002 A 
ATOM     27  C   UNL d   1      61.021  -0.759  28.455  0.00  0.00     0.000 C 
ATOM     28  C   UNL d   1      59.997  -0.533  30.377  0.00  0.00     0.018 A 
ENDBRANCH   4  22
TORSDOF 3
ENDMDL
MODEL 2
REMARK VINA RESULT:       0.0      1.124      5.983
REMARK  3 active torsions:
REMARK  status: ('A' for Active; 'I' for Inactive)
REMARK    1  A    between atoms: N_3  and  S_1 
REMARK    2  A    between atoms: C_5  and  S_1 
REMARK       I    between atoms: C_2  and  N_4 
REMARK       I    between atoms: N_6  and  C_2 
REMARK    3  A    between atoms: C_13  and  N_6 
ROOT
ATOM      1  C   UNL d   1      56.010   0.324  33.076  0.00  0.00     0.339 C 
ATOM      2  N   UNL d   1      57.781   0.195  31.333  0.00  0.00    -0.226 N 
ATOM      3  N   UNL d   1      56.597   0.281  32.498  0.00  0.00    -0.254 N 
ATOM      4  N   UNL d   1      56.203   0.524  33.853  0.00  0.00    -0.257 N 
ATOM      5  C   UNL d   1      57.983   0.397  32.114  0.00  0.00     0.111 A 
ATOM      6  C   UNL d   1      56.993   0.039  31.140  0.00  0.00     0.111 A 
ATOM      7  O   UNL d   1      55.223   0.164  32.865  0.00  0.00    -0.245 OA
ATOM      8  C   UNL d   1      57.393   0.440  32.694  0.00  0.00     0.104 A 
ATOM      9  C   UNL d   1      56.406   0.081  31.718  0.00  0.00     0.104 A 
ATOM     10  C   UNL d   1      56.982   0.681  34.055  0.00  0.00     0.104 C 
ENDROOT
BRANCH   2  11
ATOM     11  S   UNL d   1      58.365   0.153  30.758  0.00  0.00     0.271 S 
ATOM     12  O   UNL d   1      58.823   0.680  31.198  0.00  0.00    -0.200 OA
ATOM     13  O   UNL d   1      57.894  -0.373  30.332  0.00  0.00    -0.200 OA
BRANCH  11  14
ATOM     14  C   UNL d   1      58.952   0.110  30.181  0.00  0.00     0.104 A 
ATOM     15  C   UNL d   1      59.716   0.343  30.363  0.00  0.00     0.013 A 
ATOM     16  C   UNL d   1      60.294   0.301  29.794  0.00  0.00     0.001 A 
ATOM     17  C   UNL d   1      61.065   0.533  29.970  0.00  0.00     0.000 C 
ATOM     18  C   UNL d   1      60.120   0.030  29.047  0.00  0.00     0.000 A 
ATOM     19  C   UNL d   1      59.350  -0.202  28.872  0.00  0.00     0.001 A 
ATOM     20  C   UNL d   1      60.707  -0.012  28.469  0.00  0.00     0.000 C 
ATOM     21  C   UNL d   1      58.772  -0.160  29.440  0.00  0.00     0.013 A 
ENDBRANCH  11  14
ENDBRANCH   2  11
BRANCH   4  22
ATOM     22  C   UNL d   1      55.602   0.564  34.428  0.00  0.00     0.068 A 
ATOM     23  C   UNL d   1      54.806   0.604  34.206  0.00  0.00     0.018 A 
ATOM     24  C   UNL d   1      54.222   0.644  34.787  0.00  0.00     0.002 A 
ATOM     25  C   UNL d   1      54.427   0.642  35.585  0.00  0.00     0.000 A 
ATOM     26  C   UNL d   1      55.231   0.601  35.803  0.00  0.00     0.002 A 
ATOM     27  C   UNL d   1      53.840   0.682  36.163  0.00  0.00     0.000 C 
ATOM     28  C   UNL d   1      55.813   0.562  35.219  0.00  0.00     0.018 A 
ENDBRANCH   4  22
TORSDOF 3
ENDMDL
