MODEL 1
REMARK VINA RESULT:      16.1      0.000      0.000
REMARK  3 active torsions:
REMARK  status: ('A' for Active; 'I' for Inactive)
REMARK    1  A    between atoms: C_8  and  N_1 
REMARK    2  A    between atoms: C_9  and  C_14 
REMARK       I    between atoms: N_10  and  C_9 
REMARK    3  A    between atoms: C_16  and  N_12 
ROOT
ATOM      1  C   UNL d   1     -41.787-121.800 -53.175  0.00  0.00     0.066 A 
ATOM      2  C   UNL d   1     -41.492-122.432 -51.927  0.00  0.00     0.058 A 
ATOM      3  C   UNL d   1     -41.703-122.481 -52.724  0.00  0.00     0.022 A 
ATOM      4  C   UNL d   1     -41.658-121.055 -52.832  0.00  0.00     0.017 A 
ATOM      5  C   UNL d   1     -41.363-121.687 -51.584  0.00  0.00     0.005 A 
ATOM      6  C   UNL d   1     -41.447-121.004 -52.038  0.00  0.00     0.002 A 
ENDROOT
BRANCH   1   7
ATOM      7  N   UNL d   1     -41.997-121.850 -53.968  0.00  0.00    -0.261 N 
ATOM      8  C   UNL d   1     -41.684-121.236 -54.419  0.00  0.00     0.174 A 
ATOM      9  O   UNL d   1     -41.720-121.024 -55.222  0.00  0.00    -0.316 OA
ATOM     10  C   UNL d   1     -42.410-122.205 -54.745  0.00  0.00     0.079 A 
ATOM     11  C   UNL d   1     -41.212-120.634 -54.121  0.00  0.00     0.055 C 
ATOM     12  C   UNL d   1     -42.079-121.335 -55.895  0.00  0.00     0.094 A 
ATOM     13  C   UNL d   1     -41.874-120.825 -56.518  0.00  0.00     0.024 A 
ATOM     14  C   UNL d   1     -42.557-121.992 -56.051  0.00  0.00     0.022 A 
ATOM     15  C   UNL d   1     -42.145-120.974 -57.283  0.00  0.00     0.002 A 
ATOM     16  C   UNL d   1     -42.622-121.633 -57.432  0.00  0.00    -0.000 A 
ATOM     17  C   UNL d   1     -42.827-122.141 -56.816  0.00  0.00    -0.001 A 
ATOM     18  C   UNL d   1     -42.870-122.606 -55.600  0.00  0.00     0.137 A 
ATOM     19  N   UNL d   1     -42.839-122.825 -54.795  0.00  0.00    -0.216 NA
ATOM     20  C   UNL d   1     -42.480-122.515 -54.122  0.00  0.00     0.348 A 
ATOM     21  O   UNL d   1     -42.633-122.964 -53.451  0.00  0.00    -0.245 OA
ENDBRANCH   1   7
BRANCH   2  22
ATOM     22  C   UNL d   1     -41.409-123.121 -51.479  0.00  0.00     0.265 C 
ATOM     23  N   UNL d   1     -41.611-123.118 -50.681  0.00  0.00    -0.269 N 
ATOM     24  C   UNL d   1     -41.896-122.433 -50.320  0.00  0.00     0.102 A 
ATOM     25  C   UNL d   1     -41.527-123.812 -50.233  0.00  0.00     0.102 A 
ATOM     26  C   UNL d   1     -42.096-122.440 -49.522  0.00  0.00     0.100 A 
ATOM     27  N   UNL d   1     -42.012-123.132 -49.074  0.00  0.00    -0.299 N 
ATOM     28  C   UNL d   1     -41.727-123.817 -49.436  0.00  0.00     0.100 A 
ATOM     29  O   UNL d   1     -41.123-123.811 -51.837  0.00  0.00    -0.267 OA
BRANCH  27  30
ATOM     30  C   UNL d   1     -42.213-123.134 -48.277  0.00  0.00     0.092 A 
ATOM     31  C   UNL d   1     -42.986-123.307 -48.051  0.00  0.00     0.156 A 
ATOM     32  F   UNL d   1     -43.554-123.478 -48.626  0.00  0.00    -0.203 F 
ATOM     33  C   UNL d   1     -43.195-123.310 -47.248  0.00  0.00     0.031 A 
ATOM     34  C   UNL d   1     -42.616-123.137 -46.677  0.00  0.00     0.002 A 
ATOM     35  C   UNL d   1     -41.839-122.963 -46.911  0.00  0.00     0.002 A 
ATOM     36  C   UNL d   1     -41.642-122.963 -47.710  0.00  0.00     0.020 A 
ENDBRANCH  27  30
ENDBRANCH   2  22
TORSDOF 3
ENDMDL
