MODEL 1
REMARK VINA RESULT:      55.1      0.000      0.000
REMARK  3 active torsions:
REMARK  status: ('A' for Active; 'I' for Inactive)
REMARK    1  A    between atoms: C_4  and  C_1 
REMARK       I    between atoms: N_8  and  C_1 
REMARK    2  A    between atoms: S_14  and  C_2 
REMARK    3  A    between atoms: C_10  and  N_8 
ROOT
ATOM      1  C   UNL d   1      61.807  49.610  52.670  0.00  0.00     0.136 A 
ATOM      2  N   UNL d   1      62.081  49.695  51.898  0.00  0.00    -0.232 NA
ATOM      3  S   UNL d   1      61.016  49.477  52.691  0.00  0.00    -0.060 SA
ATOM      4  C   UNL d   1      60.766  49.475  51.899  0.00  0.00     0.051 A 
ATOM      5  C   UNL d   1      61.427  49.610  51.413  0.00  0.00     0.089 A 
ATOM      6  C   UNL d   1      60.025  49.369  51.560  0.00  0.00     0.027 A 
ATOM      7  C   UNL d   1      59.935  49.396  50.731  0.00  0.00     0.085 A 
ATOM      8  C   UNL d   1      61.339  49.637  50.594  0.00  0.00     0.021 A 
ATOM      9  C   UNL d   1      60.598  49.530  50.255  0.00  0.00     0.021 A 
ENDROOT
BRANCH   7  10
ATOM     10  N   UNL d   1      59.181  49.288  50.387  0.00  0.00    -0.208 NA
ATOM     11  C   UNL d   1      58.509  49.447  50.837  0.00  0.00     0.283 C 
ATOM     12  O   UNL d   1      58.562  49.707  51.609  0.00  0.00    -0.265 OA
BRANCH  11  13
ATOM     13  C   UNL d   1      57.758  49.339  50.494  0.00  0.00     0.113 A 
ATOM     14  C   UNL d   1      57.667  49.464  49.684  0.00  0.00     0.147 A 
ATOM     15  F   UNL d   1      58.318  49.697  49.203  0.00  0.00    -0.204 F 
ATOM     16  C   UNL d   1      56.909  49.355  49.338  0.00  0.00     0.030 A 
ATOM     17  C   UNL d   1      56.283  49.127  49.820  0.00  0.00     0.005 A 
ATOM     18  C   UNL d   1      56.373  49.004  50.620  0.00  0.00     0.030 A 
ATOM     19  C   UNL d   1      57.132  49.113  50.966  0.00  0.00     0.147 A 
ATOM     20  F   UNL d   1      57.240  48.991  51.785  0.00  0.00    -0.204 F 
ENDBRANCH  11  13
ENDBRANCH   7  10
BRANCH   1  21
ATOM     21  S   UNL d   1      62.287  49.657  53.332  0.00  0.00    -0.087 SA
ATOM     22  C   UNL d   1      62.038  49.330  54.034  0.00  0.00     0.076 C 
ENDBRANCH   1  21
TORSDOF 3
ENDMDL
