MODEL 1
REMARK VINA RESULT:      -3.4      0.000      0.000
REMARK  3 active torsions:
REMARK  status: ('A' for Active; 'I' for Inactive)
REMARK    1  A    between atoms: N_2  and  S_1 
REMARK    2  A    between atoms: C_3  and  S_1 
REMARK    3  A    between atoms: O_16  and  C_9 
ROOT
ATOM      1  S   UNL d   1      58.675  -1.213  29.430  0.00  0.00     0.274 S 
ATOM      2  O   UNL d   1      58.208  -1.258  28.750  0.00  0.00    -0.199 OA
ATOM      3  O   UNL d   1      59.139  -1.159  30.114  0.00  0.00    -0.199 OA
ENDROOT
BRANCH   1   4
ATOM      4  N   UNL d   1      58.251  -0.542  29.676  0.00  0.00    -0.214 N 
ATOM      5  C   UNL d   1      58.191   0.171  29.266  0.00  0.00     0.157 A 
ATOM      6  N   UNL d   1      57.719   0.679  29.711  0.00  0.00    -0.226 NA
ATOM      7  C   UNL d   1      58.540   0.350  28.540  0.00  0.00     0.041 C 
ATOM      8  C   UNL d   1      57.486   0.280  30.397  0.00  0.00     0.100 A 
ATOM      9  C   UNL d   1      57.814  -0.469  30.373  0.00  0.00     0.094 A 
ATOM     10  C   UNL d   1      57.017   0.512  31.035  0.00  0.00     0.021 A 
ATOM     11  C   UNL d   1      57.674  -1.000  30.993  0.00  0.00     0.020 A 
ATOM     12  C   UNL d   1      57.208  -0.779  31.634  0.00  0.00     0.002 A 
ATOM     13  C   UNL d   1      56.878  -0.019  31.655  0.00  0.00     0.002 A 
ENDBRANCH   1   4
BRANCH   1  14
ATOM     14  C   UNL d   1      59.097  -1.879  29.185  0.00  0.00     0.126 A 
ATOM     15  C   UNL d   1      58.696  -2.562  28.959  0.00  0.00     0.015 A 
ATOM     16  C   UNL d   1      59.118  -3.229  28.714  0.00  0.00     0.001 A 
ATOM     17  C   UNL d   1      58.718  -3.901  28.492  0.00  0.00     0.000 C 
ATOM     18  C   UNL d   1      59.946  -3.207  28.697  0.00  0.00     0.002 A 
ATOM     19  C   UNL d   1      60.347  -2.525  28.923  0.00  0.00     0.025 A 
ATOM     20  C   UNL d   1      60.360  -3.866  28.455  0.00  0.00     0.000 C 
ATOM     21  C   UNL d   1      59.922  -1.860  29.167  0.00  0.00     0.106 A 
BRANCH  21  22
ATOM     22  O   UNL d   1      60.320  -1.179  29.393  0.00  0.00    -0.327 OA
ATOM     23  C   UNL d   1      61.133  -1.174  29.417  0.00  0.00     0.181 C 
ENDBRANCH  21  22
ENDBRANCH   1  14
TORSDOF 3
ENDMDL
MODEL 2
REMARK VINA RESULT:      -1.4      8.316      8.918
REMARK  3 active torsions:
REMARK  status: ('A' for Active; 'I' for Inactive)
REMARK    1  A    between atoms: N_2  and  S_1 
REMARK    2  A    between atoms: C_3  and  S_1 
REMARK    3  A    between atoms: O_16  and  C_9 
ROOT
ATOM      1  S   UNL d   1      59.616  -9.012  33.809  0.00  0.00     0.274 S 
ATOM      2  O   UNL d   1      59.447  -9.772  34.082  0.00  0.00    -0.199 OA
ATOM      3  O   UNL d   1      59.790  -8.247  33.542  0.00  0.00    -0.199 OA
ENDROOT
BRANCH   1   4
ATOM      4  N   UNL d   1      59.912  -8.809  34.557  0.00  0.00    -0.214 N 
ATOM      5  C   UNL d   1      60.536  -9.180  34.949  0.00  0.00     0.157 A 
ATOM      6  N   UNL d   1      60.641  -8.799  35.673  0.00  0.00    -0.226 NA
ATOM      7  C   UNL d   1      60.979  -9.818  34.672  0.00  0.00     0.041 C 
ATOM      8  C   UNL d   1      60.082  -8.193  35.729  0.00  0.00     0.100 A 
ATOM      9  C   UNL d   1      59.636  -8.200  35.043  0.00  0.00     0.094 A 
ATOM     10  C   UNL d   1      59.930  -7.639  36.321  0.00  0.00     0.021 A 
ATOM     11  C   UNL d   1      59.027  -7.648  34.942  0.00  0.00     0.020 A 
ATOM     12  C   UNL d   1      58.867  -7.092  35.526  0.00  0.00     0.002 A 
ATOM     13  C   UNL d   1      59.321  -7.087  36.219  0.00  0.00     0.002 A 
ENDBRANCH   1   4
BRANCH   1  14
ATOM     14  C   UNL d   1      59.322  -9.215  33.063  0.00  0.00     0.126 A 
ATOM     15  C   UNL d   1      58.526  -9.405  32.971  0.00  0.00     0.015 A 
ATOM     16  C   UNL d   1      58.232  -9.607  32.226  0.00  0.00     0.001 A 
ATOM     17  C   UNL d   1      57.446  -9.793  32.139  0.00  0.00     0.000 C 
ATOM     18  C   UNL d   1      58.742  -9.618  31.572  0.00  0.00     0.002 A 
ATOM     19  C   UNL d   1      59.538  -9.428  31.665  0.00  0.00     0.025 A 
ATOM     20  C   UNL d   1      58.450  -9.818  30.839  0.00  0.00     0.000 C 
ATOM     21  C   UNL d   1      59.828  -9.227  32.411  0.00  0.00     0.106 A 
BRANCH  21  22
ATOM     22  O   UNL d   1      60.620  -9.037  32.505  0.00  0.00    -0.327 OA
ATOM     23  C   UNL d   1      61.129  -9.092  31.871  0.00  0.00     0.181 C 
ENDBRANCH  21  22
ENDBRANCH   1  14
TORSDOF 3
ENDMDL
MODEL 3
REMARK VINA RESULT:      -0.8      1.743      3.616
REMARK  3 active torsions:
REMARK  status: ('A' for Active; 'I' for Inactive)
REMARK    1  A    between atoms: N_2  and  S_1 
REMARK    2  A    between atoms: C_3  and  S_1 
REMARK    3  A    between atoms: O_16  and  C_9 
ROOT
ATOM      1  S   UNL d   1      58.185  -0.071  30.224  0.00  0.00     0.274 S 
ATOM      2  O   UNL d   1      58.138  -0.819  29.878  0.00  0.00    -0.199 OA
ATOM      3  O   UNL d   1      58.237   0.682  30.565  0.00  0.00    -0.199 OA
ENDROOT
BRANCH   1   4
ATOM      4  N   UNL d   1      58.688   0.180  29.613  0.00  0.00    -0.214 N 
ATOM      5  C   UNL d   1      58.451   0.514  28.897  0.00  0.00     0.157 A 
ATOM      6  N   UNL d   1      59.129   0.679  28.459  0.00  0.00    -0.226 NA
ATOM      7  C   UNL d   1      57.675   0.658  28.656  0.00  0.00     0.041 C 
ATOM      8  C   UNL d   1      59.786   0.448  28.904  0.00  0.00     0.100 A 
ATOM      9  C   UNL d   1      59.513   0.142  29.612  0.00  0.00     0.094 A 
ATOM     10  C   UNL d   1      60.595   0.481  28.747  0.00  0.00     0.021 A 
ATOM     11  C   UNL d   1      60.052  -0.137  30.176  0.00  0.00     0.020 A 
ATOM     12  C   UNL d   1      60.860  -0.109  30.029  0.00  0.00     0.002 A 
ATOM     13  C   UNL d   1      61.133   0.202  29.311  0.00  0.00     0.002 A 
ENDBRANCH   1   4
BRANCH   1  14
ATOM     14  C   UNL d   1      57.684  -0.321  30.832  0.00  0.00     0.126 A 
ATOM     15  C   UNL d   1      57.438   0.211  31.410  0.00  0.00     0.015 A 
ATOM     16  C   UNL d   1      56.938  -0.039  32.018  0.00  0.00     0.001 A 
ATOM     17  C   UNL d   1      56.698   0.489  32.587  0.00  0.00     0.000 C 
ATOM     18  C   UNL d   1      56.685  -0.828  32.043  0.00  0.00     0.002 A 
ATOM     19  C   UNL d   1      56.931  -1.360  31.465  0.00  0.00     0.025 A 
ATOM     20  C   UNL d   1      56.192  -1.072  32.644  0.00  0.00     0.000 C 
ATOM     21  C   UNL d   1      57.431  -1.107  30.859  0.00  0.00     0.106 A 
BRANCH  21  22
ATOM     22  O   UNL d   1      57.677  -1.635  30.282  0.00  0.00    -0.327 OA
ATOM     23  C   UNL d   1      57.603  -2.436  30.408  0.00  0.00     0.181 C 
ENDBRANCH  21  22
ENDBRANCH   1  14
TORSDOF 3
ENDMDL
MODEL 4
REMARK VINA RESULT:      -0.5      1.135      3.812
REMARK  3 active torsions:
REMARK  status: ('A' for Active; 'I' for Inactive)
REMARK    1  A    between atoms: N_2  and  S_1 
REMARK    2  A    between atoms: C_3  and  S_1 
REMARK    3  A    between atoms: O_16  and  C_9 
ROOT
ATOM      1  S   UNL d   1      59.131  -0.421  29.899  0.00  0.00     0.274 S 
ATOM      2  O   UNL d   1      59.621   0.029  30.389  0.00  0.00    -0.199 OA
ATOM      3  O   UNL d   1      58.647  -0.875  29.403  0.00  0.00    -0.199 OA
ENDROOT
BRANCH   1   4
ATOM      4  N   UNL d   1      59.797  -0.698  29.488  0.00  0.00    -0.214 N 
ATOM      5  C   UNL d   1      60.454  -0.250  29.271  0.00  0.00     0.157 A 
ATOM      6  N   UNL d   1      60.979  -0.747  28.874  0.00  0.00    -0.226 NA
ATOM      7  C   UNL d   1      60.571   0.553  29.420  0.00  0.00     0.041 C 
ATOM      8  C   UNL d   1      60.647  -1.503  28.847  0.00  0.00     0.100 A 
ATOM      9  C   UNL d   1      59.922  -1.471  29.223  0.00  0.00     0.094 A 
ATOM     10  C   UNL d   1      60.920  -2.211  28.523  0.00  0.00     0.021 A 
ATOM     11  C   UNL d   1      59.457  -2.154  29.282  0.00  0.00     0.020 A 
ATOM     12  C   UNL d   1      59.720  -2.865  28.963  0.00  0.00     0.002 A 
ATOM     13  C   UNL d   1      60.455  -2.894  28.582  0.00  0.00     0.002 A 
ENDBRANCH   1   4
BRANCH   1  14
ATOM     14  C   UNL d   1      58.468  -0.144  30.308  0.00  0.00     0.126 A 
ATOM     15  C   UNL d   1      58.377  -0.313  31.109  0.00  0.00     0.015 A 
ATOM     16  C   UNL d   1      57.714  -0.036  31.518  0.00  0.00     0.001 A 
ATOM     17  C   UNL d   1      57.628  -0.205  32.308  0.00  0.00     0.000 C 
ATOM     18  C   UNL d   1      57.142   0.410  31.118  0.00  0.00     0.002 A 
ATOM     19  C   UNL d   1      57.233   0.579  30.317  0.00  0.00     0.025 A 
ATOM     20  C   UNL d   1      56.490   0.682  31.523  0.00  0.00     0.000 C 
ATOM     21  C   UNL d   1      57.897   0.301  29.912  0.00  0.00     0.106 A 
BRANCH  21  22
ATOM     22  O   UNL d   1      57.990   0.468  29.114  0.00  0.00    -0.327 OA
ATOM     23  C   UNL d   1      57.344   0.682  28.667  0.00  0.00     0.181 C 
ENDBRANCH  21  22
ENDBRANCH   1  14
TORSDOF 3
ENDMDL
MODEL 5
REMARK VINA RESULT:      -0.4      3.208      4.858
REMARK  3 active torsions:
REMARK  status: ('A' for Active; 'I' for Inactive)
REMARK    1  A    between atoms: N_2  and  S_1 
REMARK    2  A    between atoms: C_3  and  S_1 
REMARK    3  A    between atoms: O_16  and  C_9 
ROOT
ATOM      1  S   UNL d   1      56.382   0.058  33.161  0.00  0.00     0.274 S 
ATOM      2  O   UNL d   1      55.921   0.617  32.766  0.00  0.00    -0.199 OA
ATOM      3  O   UNL d   1      56.841  -0.500  33.567  0.00  0.00    -0.199 OA
ENDROOT
BRANCH   1   4
ATOM      4  N   UNL d   1      56.037   0.284  33.882  0.00  0.00    -0.214 N 
ATOM      5  C   UNL d   1      56.443   0.497  34.568  0.00  0.00     0.157 A 
ATOM      6  N   UNL d   1      55.884   0.679  35.146  0.00  0.00    -0.226 NA
ATOM      7  C   UNL d   1      57.261   0.523  34.665  0.00  0.00     0.041 C 
ATOM      8  C   UNL d   1      55.132   0.580  34.817  0.00  0.00     0.100 A 
ATOM      9  C   UNL d   1      55.228   0.338  34.042  0.00  0.00     0.094 A 
ATOM     10  C   UNL d   1      54.377   0.682  35.133  0.00  0.00     0.021 A 
ATOM     11  C   UNL d   1      54.563   0.193  33.570  0.00  0.00     0.020 A 
ATOM     12  C   UNL d   1      53.806   0.292  33.875  0.00  0.00     0.002 A 
ATOM     13  C   UNL d   1      53.712   0.537  34.661  0.00  0.00     0.002 A 
ENDBRANCH   1   4
BRANCH   1  14
ATOM     14  C   UNL d   1      56.725  -0.167  32.444  0.00  0.00     0.126 A 
ATOM     15  C   UNL d   1      57.179   0.371  32.017  0.00  0.00     0.015 A 
ATOM     16  C   UNL d   1      57.522   0.145  31.299  0.00  0.00     0.001 A 
ATOM     17  C   UNL d   1      57.969   0.679  30.881  0.00  0.00     0.000 C 
ATOM     18  C   UNL d   1      57.407  -0.624  31.013  0.00  0.00     0.002 A 
ATOM     19  C   UNL d   1      56.954  -1.161  31.441  0.00  0.00     0.025 A 
ATOM     20  C   UNL d   1      57.747  -0.843  30.306  0.00  0.00     0.000 C 
ATOM     21  C   UNL d   1      56.612  -0.933  32.157  0.00  0.00     0.106 A 
BRANCH  21  22
ATOM     22  O   UNL d   1      56.160  -1.467  32.584  0.00  0.00    -0.327 OA
ATOM     23  C   UNL d   1      56.088  -2.236  32.327  0.00  0.00     0.181 C 
ENDBRANCH  21  22
ENDBRANCH   1  14
TORSDOF 3
ENDMDL
