MODEL 1
REMARK VINA RESULT:      -5.7      0.000      0.000
REMARK  6 active torsions:
REMARK  status: ('A' for Active; 'I' for Inactive)
REMARK    1  A    between atoms: N_5  and  S_1 
REMARK    2  A    between atoms: C_6  and  S_1 
REMARK    3  A    between atoms: C_2  and  C_11 
REMARK    4  A    between atoms: C_9  and  N_5 
REMARK    5  A    between atoms: C_10  and  C_9 
REMARK       I    between atoms: N_15  and  C_10 
REMARK    6  A    between atoms: C_19  and  N_15 
ROOT
ATOM      1  C   UNL d   1     -47.444  12.778  22.808  0.00  0.00     0.024 A 
ATOM      2  C   UNL d   1     -47.134  13.487  22.520  0.00  0.00     0.004 A 
ATOM      3  C   UNL d   1     -46.938  12.169  23.029  0.00  0.00     0.004 A 
ATOM      4  C   UNL d   1     -45.802  12.975  22.675  0.00  0.00     0.085 A 
ATOM      5  C   UNL d   1     -46.113  12.270  22.962  0.00  0.00     0.019 A 
ATOM      6  C   UNL d   1     -46.317  13.591  22.451  0.00  0.00     0.019 A 
ENDROOT
BRANCH   4   7
ATOM      7  N   UNL d   1     -44.983  13.060  22.615  0.00  0.00    -0.207 NA
ATOM      8  C   UNL d   1     -44.607  12.876  21.909  0.00  0.00     0.299 C 
ATOM      9  O   UNL d   1     -45.041  12.608  21.264  0.00  0.00    -0.263 OA
BRANCH   8  10
ATOM     10  C   UNL d   1     -43.780  12.962  21.849  0.00  0.00     0.174 C 
BRANCH  10  11
ATOM     11  N   UNL d   1     -43.434  13.110  21.117  0.00  0.00    -0.152 NA
BRANCH  11  12
ATOM     12  S   UNL d   1     -42.658  13.388  21.078  0.00  0.00     0.285 S 
ATOM     13  O   UNL d   1     -42.428  12.683  20.717  0.00  0.00    -0.198 OA
ATOM     14  O   UNL d   1     -42.897  14.091  21.439  0.00  0.00    -0.198 OA
BRANCH  12  15
ATOM     15  C   UNL d   1     -41.892  13.666  21.040  0.00  0.00     0.106 A 
ATOM     16  C   UNL d   1     -41.671  14.183  20.432  0.00  0.00     0.024 A 
ATOM     17  C   UNL d   1     -40.896  14.464  20.394  0.00  0.00     0.059 A 
ATOM     18 CL   UNL d   1     -40.666  14.989  19.779  0.00  0.00    -0.082 Cl
ATOM     19  C   UNL d   1     -40.337  14.237  20.955  0.00  0.00     0.011 A 
ATOM     20  C   UNL d   1     -40.558  13.721  21.563  0.00  0.00     0.002 A 
ATOM     21  C   UNL d   1     -41.340  13.437  21.600  0.00  0.00     0.013 A 
ENDBRANCH  12  15
ENDBRANCH  11  12
ENDBRANCH  10  11
ENDBRANCH   8  10
ENDBRANCH   4   7
BRANCH   1  22
ATOM     22  C   UNL d   1     -48.263  12.666  22.879  0.00  0.00     0.111 A 
ATOM     23  N   UNL d   1     -48.797  12.888  22.298  0.00  0.00    -0.239 NA
ATOM     24  C   UNL d   1     -49.558  12.695  22.552  0.00  0.00     0.088 A 
ATOM     25  C   UNL d   1     -50.299  12.788  22.204  0.00  0.00     0.020 A 
ATOM     26  C   UNL d   1     -49.492  12.351  23.298  0.00  0.00     0.049 A 
ATOM     27  C   UNL d   1     -50.974  12.535  22.604  0.00  0.00     0.002 A 
ATOM     28  C   UNL d   1     -50.907  12.191  23.350  0.00  0.00     0.001 A 
ATOM     29  C   UNL d   1     -50.166  12.099  23.698  0.00  0.00     0.008 A 
ATOM     30  S   UNL d   1     -48.690  12.333  23.501  0.00  0.00    -0.066 SA
ENDBRANCH   1  22
TORSDOF 6
ENDMDL
MODEL 2
REMARK VINA RESULT:      -5.3      2.280      7.386
REMARK  6 active torsions:
REMARK  status: ('A' for Active; 'I' for Inactive)
REMARK    1  A    between atoms: N_5  and  S_1 
REMARK    2  A    between atoms: C_6  and  S_1 
REMARK    3  A    between atoms: C_2  and  C_11 
REMARK    4  A    between atoms: C_9  and  N_5 
REMARK    5  A    between atoms: C_10  and  C_9 
REMARK       I    between atoms: N_15  and  C_10 
REMARK    6  A    between atoms: C_19  and  N_15 
ROOT
ATOM      1  C   UNL d   1     -41.715  13.667  20.753  0.00  0.00     0.024 A 
ATOM      2  C   UNL d   1     -41.666  13.290  21.486  0.00  0.00     0.004 A 
ATOM      3  C   UNL d   1     -42.423  13.662  20.336  0.00  0.00     0.004 A 
ATOM      4  C   UNL d   1     -43.044  12.899  21.384  0.00  0.00     0.085 A 
ATOM      5  C   UNL d   1     -43.090  13.276  20.654  0.00  0.00     0.019 A 
ATOM      6  C   UNL d   1     -42.324  12.906  21.806  0.00  0.00     0.019 A 
ENDROOT
BRANCH   4   7
ATOM      7  N   UNL d   1     -43.712  12.521  21.687  0.00  0.00    -0.207 NA
ATOM      8  C   UNL d   1     -44.362  12.966  21.914  0.00  0.00     0.299 C 
ATOM      9  O   UNL d   1     -44.352  13.785  21.842  0.00  0.00    -0.263 OA
BRANCH   8  10
ATOM     10  C   UNL d   1     -45.037  12.583  22.220  0.00  0.00     0.174 C 
BRANCH  10  11
ATOM     11  N   UNL d   1     -45.511  12.964  22.774  0.00  0.00    -0.152 NA
BRANCH  11  12
ATOM     12  S   UNL d   1     -46.245  12.646  22.975  0.00  0.00     0.285 S 
ATOM     13  O   UNL d   1     -46.595  13.076  22.364  0.00  0.00    -0.198 OA
ATOM     14  O   UNL d   1     -45.888  12.220  23.585  0.00  0.00    -0.198 OA
BRANCH  12  15
ATOM     15  C   UNL d   1     -46.970  12.330  23.177  0.00  0.00     0.106 A 
ATOM     16  C   UNL d   1     -47.658  12.774  23.065  0.00  0.00     0.024 A 
ATOM     17  C   UNL d   1     -48.391  12.454  23.269  0.00  0.00     0.059 A 
ATOM     18 CL   UNL d   1     -49.094  12.901  23.157  0.00  0.00    -0.082 Cl
ATOM     19  C   UNL d   1     -48.447  11.696  23.585  0.00  0.00     0.011 A 
ATOM     20  C   UNL d   1     -47.758  11.251  23.698  0.00  0.00     0.002 A 
ATOM     21  C   UNL d   1     -47.019  11.575  23.491  0.00  0.00     0.013 A 
ENDBRANCH  12  15
ENDBRANCH  11  12
ENDBRANCH  10  11
ENDBRANCH   8  10
ENDBRANCH   4   7
BRANCH   1  22
ATOM     22  C   UNL d   1     -41.059  14.055  20.425  0.00  0.00     0.111 A 
ATOM     23  N   UNL d   1     -40.886  14.041  19.624  0.00  0.00    -0.239 NA
ATOM     24  C   UNL d   1     -40.199  14.481  19.495  0.00  0.00     0.088 A 
ATOM     25  C   UNL d   1     -39.774  14.656  18.813  0.00  0.00     0.020 A 
ATOM     26  C   UNL d   1     -39.947  14.769  20.225  0.00  0.00     0.049 A 
ATOM     27  C   UNL d   1     -39.095  15.121  18.861  0.00  0.00     0.002 A 
ATOM     28  C   UNL d   1     -38.843  15.408  19.591  0.00  0.00     0.001 A 
ATOM     29  C   UNL d   1     -39.269  15.233  20.274  0.00  0.00     0.008 A 
ATOM     30  S   UNL d   1     -40.479  14.505  20.801  0.00  0.00    -0.066 SA
ENDBRANCH   1  22
TORSDOF 6
ENDMDL
MODEL 3
REMARK VINA RESULT:      -5.2      2.587      7.884
REMARK  6 active torsions:
REMARK  status: ('A' for Active; 'I' for Inactive)
REMARK    1  A    between atoms: N_5  and  S_1 
REMARK    2  A    between atoms: C_6  and  S_1 
REMARK    3  A    between atoms: C_2  and  C_11 
REMARK    4  A    between atoms: C_9  and  N_5 
REMARK    5  A    between atoms: C_10  and  C_9 
REMARK       I    between atoms: N_15  and  C_10 
REMARK    6  A    between atoms: C_19  and  N_15 
ROOT
ATOM      1  C   UNL d   1     -40.516  14.375  19.807  0.00  0.00     0.024 A 
ATOM      2  C   UNL d   1     -40.328  14.122  20.570  0.00  0.00     0.004 A 
ATOM      3  C   UNL d   1     -41.303  14.456  19.585  0.00  0.00     0.004 A 
ATOM      4  C   UNL d   1     -41.724  14.029  20.891  0.00  0.00     0.085 A 
ATOM      5  C   UNL d   1     -41.909  14.281  20.130  0.00  0.00     0.019 A 
ATOM      6  C   UNL d   1     -40.925  13.948  21.114  0.00  0.00     0.019 A 
ENDROOT
BRANCH   4   7
ATOM      7  N   UNL d   1     -42.334  13.860  21.420  0.00  0.00    -0.207 NA
ATOM      8  C   UNL d   1     -42.807  13.201  21.298  0.00  0.00     0.299 C 
ATOM      9  O   UNL d   1     -42.676  12.709  20.652  0.00  0.00    -0.263 OA
BRANCH   8  10
ATOM     10  C   UNL d   1     -43.424  13.031  21.833  0.00  0.00     0.174 C 
BRANCH  10  11
ATOM     11  N   UNL d   1     -44.147  12.757  21.554  0.00  0.00    -0.152 NA
BRANCH  11  12
ATOM     12  S   UNL d   1     -44.816  12.800  22.035  0.00  0.00     0.285 S 
ATOM     13  O   UNL d   1     -44.451  12.302  22.582  0.00  0.00    -0.198 OA
ATOM     14  O   UNL d   1     -45.174  13.298  21.483  0.00  0.00    -0.198 OA
BRANCH  12  15
ATOM     15  C   UNL d   1     -45.480  12.845  22.507  0.00  0.00     0.106 A 
ATOM     16  C   UNL d   1     -45.782  12.160  22.859  0.00  0.00     0.024 A 
ATOM     17  C   UNL d   1     -46.453  12.205  23.337  0.00  0.00     0.059 A 
ATOM     18 CL   UNL d   1     -46.764  11.512  23.698  0.00  0.00    -0.082 Cl
ATOM     19  C   UNL d   1     -46.829  12.925  23.469  0.00  0.00     0.011 A 
ATOM     20  C   UNL d   1     -46.528  13.611  23.117  0.00  0.00     0.002 A 
ATOM     21  C   UNL d   1     -45.850  13.564  22.635  0.00  0.00     0.013 A 
ENDBRANCH  12  15
ENDBRANCH  11  12
ENDBRANCH  10  11
ENDBRANCH   8  10
ENDBRANCH   4   7
BRANCH   1  22
ATOM     22  C   UNL d   1     -39.922  14.552  19.255  0.00  0.00     0.111 A 
ATOM     23  N   UNL d   1     -39.560  15.286  19.208  0.00  0.00    -0.239 NA
ATOM     24  C   UNL d   1     -39.001  15.265  18.601  0.00  0.00     0.088 A 
ATOM     25  C   UNL d   1     -38.480  15.831  18.308  0.00  0.00     0.020 A 
ATOM     26  C   UNL d   1     -39.019  14.510  18.271  0.00  0.00     0.049 A 
ATOM     27  C   UNL d   1     -37.978  15.641  17.683  0.00  0.00     0.002 A 
ATOM     28  C   UNL d   1     -37.996  14.886  17.353  0.00  0.00     0.001 A 
ATOM     29  C   UNL d   1     -38.517  14.319  17.647  0.00  0.00     0.008 A 
ATOM     30  S   UNL d   1     -39.590  14.069  18.676  0.00  0.00    -0.066 SA
ENDBRANCH   1  22
TORSDOF 6
ENDMDL
MODEL 4
REMARK VINA RESULT:      -4.4      1.797      3.069
REMARK  6 active torsions:
REMARK  status: ('A' for Active; 'I' for Inactive)
REMARK    1  A    between atoms: N_5  and  S_1 
REMARK    2  A    between atoms: C_6  and  S_1 
REMARK    3  A    between atoms: C_2  and  C_11 
REMARK    4  A    between atoms: C_9  and  N_5 
REMARK    5  A    between atoms: C_10  and  C_9 
REMARK       I    between atoms: N_15  and  C_10 
REMARK    6  A    between atoms: C_19  and  N_15 
ROOT
ATOM      1  C   UNL d   1     -44.670  12.675  22.097  0.00  0.00     0.024 A 
ATOM      2  C   UNL d   1     -44.057  12.185  22.354  0.00  0.00     0.004 A 
ATOM      3  C   UNL d   1     -44.533  13.226  21.503  0.00  0.00     0.004 A 
ATOM      4  C   UNL d   1     -43.163  12.802  21.416  0.00  0.00     0.085 A 
ATOM      5  C   UNL d   1     -43.775  13.288  21.162  0.00  0.00     0.019 A 
ATOM      6  C   UNL d   1     -43.305  12.243  22.019  0.00  0.00     0.019 A 
ENDROOT
BRANCH   4   7
ATOM      7  N   UNL d   1     -42.418  12.875  21.069  0.00  0.00    -0.207 NA
ATOM      8  C   UNL d   1     -42.039  13.602  21.072  0.00  0.00     0.299 C 
ATOM      9  O   UNL d   1     -42.396  14.257  21.419  0.00  0.00    -0.263 OA
BRANCH   8  10
ATOM     10  C   UNL d   1     -41.285  13.675  20.721  0.00  0.00     0.174 C 
BRANCH  10  11
ATOM     11  N   UNL d   1     -40.985  14.420  20.543  0.00  0.00    -0.152 NA
BRANCH  11  12
ATOM     12  S   UNL d   1     -40.327  14.491  20.050  0.00  0.00     0.285 S 
ATOM     13  O   UNL d   1     -40.786  14.906  19.504  0.00  0.00    -0.198 OA
ATOM     14  O   UNL d   1     -39.875  14.075  20.602  0.00  0.00    -0.198 OA
BRANCH  12  15
ATOM     15  C   UNL d   1     -39.674  14.560  19.566  0.00  0.00     0.106 A 
ATOM     16  C   UNL d   1     -39.596  14.066  18.907  0.00  0.00     0.024 A 
ATOM     17  C   UNL d   1     -38.936  14.135  18.417  0.00  0.00     0.059 A 
ATOM     18 CL   UNL d   1     -38.852  13.635  17.746  0.00  0.00    -0.082 Cl
ATOM     19  C   UNL d   1     -38.350  14.692  18.575  0.00  0.00     0.011 A 
ATOM     20  C   UNL d   1     -38.428  15.187  19.234  0.00  0.00     0.002 A 
ATOM     21  C   UNL d   1     -39.095  15.116  19.728  0.00  0.00     0.013 A 
ENDBRANCH  12  15
ENDBRANCH  11  12
ENDBRANCH  10  11
ENDBRANCH   8  10
ENDBRANCH   4   7
BRANCH   1  22
ATOM     22  C   UNL d   1     -45.430  12.622  22.429  0.00  0.00     0.111 A 
ATOM     23  N   UNL d   1     -45.687  11.969  22.853  0.00  0.00    -0.239 NA
ATOM     24  C   UNL d   1     -46.464  12.105  23.100  0.00  0.00     0.088 A 
ATOM     25  C   UNL d   1     -46.994  11.651  23.536  0.00  0.00     0.020 A 
ATOM     26  C   UNL d   1     -46.686  12.849  22.824  0.00  0.00     0.049 A 
ATOM     27  C   UNL d   1     -47.747  11.943  23.697  0.00  0.00     0.002 A 
ATOM     28  C   UNL d   1     -47.969  12.687  23.421  0.00  0.00     0.001 A 
ATOM     29  C   UNL d   1     -47.438  13.141  22.984  0.00  0.00     0.008 A 
ATOM     30  S   UNL d   1     -46.045  13.169  22.409  0.00  0.00    -0.066 SA
ENDBRANCH   1  22
TORSDOF 6
ENDMDL
