MODEL 1
REMARK VINA RESULT:      42.1      0.000      0.000
REMARK  7 active torsions:
REMARK  status: ('A' for Active; 'I' for Inactive)
REMARK    1  A    between atoms: N_7  and  C_2 
REMARK    2  A    between atoms: N_9  and  C_3 
REMARK    3  A    between atoms: C_14  and  N_7 
REMARK    4  A    between atoms: C_8  and  C_12 
REMARK    5  A    between atoms: O_19  and  C_8 
REMARK    6  A    between atoms: C_17  and  N_9 
REMARK    7  A    between atoms: C_29  and  O_19 
ROOT
ATOM      1  N   UNL d   1      44.932 -14.733  44.150  0.00  0.00    -0.038 NA
ATOM      2  C   UNL d   1      44.905 -13.938  43.907  0.00  0.00     0.202 A 
ATOM      3  C   UNL d   1      45.531 -14.993  44.660  0.00  0.00     0.753 A 
ATOM      4  N   UNL d   1      46.107 -14.451  44.928  0.00  0.00    -0.038 NA
ATOM      5  C   UNL d   1      45.475 -13.406  44.174  0.00  0.00     0.154 A 
ATOM      6  C   UNL d   1      46.077 -13.664  44.685  0.00  0.00     0.202 A 
ATOM      7  N   UNL d   1      45.435 -12.619  43.924  0.00  0.00    -0.236 NA
ATOM      8  N   UNL d   1      46.642 -13.126  44.947  0.00  0.00    -0.222 NA
ATOM      9  C   UNL d   1      46.012 -12.082  44.194  0.00  0.00     0.120 A 
ATOM     10  C   UNL d   1      46.613 -12.330  44.702  0.00  0.00     0.121 A 
ENDROOT
BRANCH   3  11
ATOM     11  N   UNL d   1      45.557 -15.774  44.898  0.00  0.00    -0.059 NA
BRANCH  11  12
ATOM     12  C   UNL d   1      45.779 -16.364  44.365  0.00  0.00     0.100 A 
ATOM     13  C   UNL d   1      46.208 -17.007  44.606  0.00  0.00     0.020 A 
ATOM     14  C   UNL d   1      46.430 -17.599  44.070  0.00  0.00     0.007 A 
ATOM     15  C   UNL d   1      46.212 -17.535  43.274  0.00  0.00     0.064 A 
ATOM     16  C   UNL d   1      45.773 -16.881  43.018  0.00  0.00     0.007 A 
ATOM     17  C   UNL d   1      45.556 -16.296  43.557  0.00  0.00     0.020 A 
BRANCH  15  18
ATOM     18  C   UNL d   1      46.431 -18.119  42.747  0.00  0.00     0.300 C 
ATOM     19  O   UNL d   1      46.631 -17.917  41.967  0.00  0.00    -0.259 OA
BRANCH  18  20
ATOM     20  O   UNL d   1      46.457 -18.911  42.979  0.00  0.00    -0.271 OA
BRANCH  20  21
ATOM     21  C   UNL d   1      46.037 -19.484  42.559  0.00  0.00     0.126 C 
ATOM     22  C   UNL d   1      46.049 -20.265  42.813  0.00  0.00     0.029 C 
ENDBRANCH  20  21
ENDBRANCH  18  20
ENDBRANCH  15  18
ENDBRANCH  11  12
ENDBRANCH   3  11
BRANCH   2  23
ATOM     23  N   UNL d   1      44.304 -13.680  43.397  0.00  0.00    -0.225 NA
BRANCH  23  24
ATOM     24  C   UNL d   1      44.495 -13.285  42.700  0.00  0.00     0.083 A 
ATOM     25  C   UNL d   1      45.268 -13.332  42.395  0.00  0.00     0.020 A 
ATOM     26  C   UNL d   1      45.454 -12.936  41.698  0.00  0.00     0.013 A 
ATOM     27  C   UNL d   1      44.884 -12.494  41.299  0.00  0.00     0.058 A 
ATOM     28  C   UNL d   1      44.111 -12.447  41.604  0.00  0.00     0.013 A 
ATOM     29 CL   UNL d   1      45.061 -12.095  40.601  0.00  0.00    -0.082 Cl
ATOM     30  C   UNL d   1      43.923 -12.844  42.303  0.00  0.00     0.020 A 
ENDBRANCH  23  24
ENDBRANCH   2  23
TORSDOF 7
ENDMDL
