MODEL 1
REMARK VINA RESULT:      -4.7      0.000      0.000
REMARK  4 active torsions:
REMARK  status: ('A' for Active; 'I' for Inactive)
REMARK    1  A    between atoms: N_14  and  C_2 
REMARK       I    between atoms: C_9  and  N_11 
REMARK    2  A    between atoms: C_13  and  C_9 
REMARK    3  A    between atoms: C_10  and  C_17 
REMARK       I    between atoms: N_12  and  C_10 
REMARK    4  A    between atoms: C_30  and  N_14 
ROOT
ATOM      1  C   UNL d   1      33.070  19.997 -22.675  0.00  0.00     0.057 A 
ATOM      2  C   UNL d   1      33.239  19.327 -22.201  0.00  0.00     0.006 A 
ATOM      3  C   UNL d   1      32.883  19.900 -23.473  0.00  0.00     0.006 A 
ATOM      4  C   UNL d   1      33.029  18.481 -23.339  0.00  0.00     0.084 A 
ATOM      5  C   UNL d   1      33.216  18.577 -22.542  0.00  0.00     0.019 A 
ATOM      6  C   UNL d   1      32.861  19.143 -23.809  0.00  0.00     0.019 A 
ENDROOT
BRANCH   1   7
ATOM      7  C   UNL d   1      33.085  20.768 -22.361  0.00  0.00     0.265 C 
ATOM      8  N   UNL d   1      32.990  20.893 -21.547  0.00  0.00    -0.270 N 
ATOM      9  C   UNL d   1      32.874  20.914 -20.625  0.00  0.00     0.096 A 
ATOM     10  C   UNL d   1      32.927  21.293 -20.829  0.00  0.00     0.096 A 
ATOM     11  C   UNL d   1      32.902  21.705 -20.404  0.00  0.00     0.077 A 
ATOM     12  N   UNL d   1      32.866  22.271 -19.803  0.00  0.00    -0.171 NA
ATOM     13  C   UNL d   1      32.887  23.052 -19.530  0.00  0.00     0.267 C 
ATOM     14  C   UNL d   1      32.954  22.074 -20.600  0.00  0.00     0.077 A 
ATOM     15  O   UNL d   1      32.998  23.669 -20.054  0.00  0.00    -0.271 OA
ATOM     16  O   UNL d   1      33.195  21.416 -22.868  0.00  0.00    -0.267 OA
BRANCH  13  17
ATOM     17  C   UNL d   1      32.796  23.200 -18.726  0.00  0.00     0.151 A 
ATOM     18  O   UNL d   1      33.241  22.879 -18.124  0.00  0.00    -0.301 OA
ATOM     19  C   UNL d   1      32.968  23.173 -17.409  0.00  0.00     0.123 A 
ATOM     20  C   UNL d   1      32.344  23.684 -17.574  0.00  0.00     0.029 A 
ATOM     21  C   UNL d   1      32.236  23.702 -18.384  0.00  0.00     0.031 A 
ENDBRANCH  13  17
ENDBRANCH   1   7
BRANCH   4  22
ATOM     22  N   UNL d   1      33.009  17.720 -23.672  0.00  0.00    -0.221 NA
BRANCH  22  23
ATOM     23  C   UNL d   1      32.281  17.343 -23.803  0.00  0.00     0.194 A 
ATOM     24  S   UNL d   1      32.000  16.717 -23.374  0.00  0.00    -0.046 SA
ATOM     25  C   UNL d   1      31.252  16.508 -23.686  0.00  0.00     0.062 A 
ATOM     26  C   UNL d   1      30.616  15.989 -23.612  0.00  0.00     0.107 A 
ATOM     27  C   UNL d   1      31.087  17.019 -24.309  0.00  0.00     0.102 A 
ATOM     28  S   UNL d   1      30.065  16.179 -24.183  0.00  0.00     0.213 S 
ATOM     29  C   UNL d   1      30.349  16.813 -24.617  0.00  0.00     0.118 A 
ATOM     30  O   UNL d   1      29.675  15.543 -23.821  0.00  0.00    -0.217 OA
ATOM     31  O   UNL d   1      29.429  16.265 -24.710  0.00  0.00    -0.217 OA
ATOM     32  N   UNL d   1      31.727  17.543 -24.386  0.00  0.00    -0.220 NA
ENDBRANCH  22  23
ENDBRANCH   4  22
TORSDOF 4
ENDMDL
