MODEL 1
REMARK VINA RESULT:      -1.7      0.000      0.000
REMARK  8 active torsions:
REMARK  status: ('A' for Active; 'I' for Inactive)
REMARK    1  A    between atoms: C_6  and  C_1 
REMARK    2  A    between atoms: C_8  and  N_3 
REMARK    3  A    between atoms: C_7  and  C_6 
REMARK    4  A    between atoms: C_9  and  C_7 
REMARK    5  A    between atoms: C_14  and  C_8 
REMARK    6  A    between atoms: C_17  and  C_14 
REMARK    7  A    between atoms: C_15  and  C_16 
REMARK    8  A    between atoms: C_16  and  C_17 
ROOT
ATOM      1  C   UNL d   1      57.164  -1.155  31.181  0.00  0.00     0.148 A 
ATOM      2  N   UNL d   1      56.414  -1.422  31.665  0.00  0.00    -0.227 NA
ATOM      3  N   UNL d   1      57.451  -0.355  31.547  0.00  0.00    -0.289 N 
ATOM      4  C   UNL d   1      56.893  -0.124  32.247  0.00  0.00     0.083 A 
ATOM      5  C   UNL d   1      56.237  -0.799  32.322  0.00  0.00     0.099 A 
ATOM      6  C   UNL d   1      56.887   0.604  32.828  0.00  0.00     0.019 A 
ATOM      7  C   UNL d   1      55.595  -0.725  32.975  0.00  0.00     0.021 A 
ATOM      8  C   UNL d   1      56.233   0.653  33.474  0.00  0.00     0.002 A 
ATOM      9  C   UNL d   1      55.576  -0.021  33.548  0.00  0.00     0.002 A 
ENDROOT
BRANCH   1  10
ATOM     10  C   UNL d   1      57.707  -1.221  30.626  0.00  0.00     0.037 C 
BRANCH  10  11
ATOM     11  C   UNL d   1      57.812  -1.887  30.164  0.00  0.00     0.003 C 
BRANCH  11  12
ATOM     12  C   UNL d   1      58.405  -1.959  29.590  0.00  0.00     0.000 A 
ATOM     13  C   UNL d   1      58.560  -1.354  29.062  0.00  0.00     0.000 A 
ATOM     14  C   UNL d   1      59.149  -1.430  28.496  0.00  0.00     0.000 A 
ATOM     15  C   UNL d   1      59.594  -2.133  28.458  0.00  0.00     0.000 A 
ATOM     16  C   UNL d   1      59.438  -2.739  28.988  0.00  0.00     0.000 A 
ATOM     17  C   UNL d   1      58.851  -2.662  29.553  0.00  0.00     0.000 A 
ENDBRANCH  11  12
ENDBRANCH  10  11
ENDBRANCH   1  10
BRANCH   3  18
ATOM     18  C   UNL d   1      57.767   0.339  31.804  0.00  0.00     0.082 C 
BRANCH  18  19
ATOM     19  C   UNL d   1      58.423   0.655  31.430  0.00  0.00     0.019 C 
BRANCH  19  20
ATOM     20  C   UNL d   1      59.154   0.646  31.795  0.00  0.00     0.002 C 
BRANCH  20  21
ATOM     21  C   UNL d   1      59.849   0.670  31.351  0.00  0.00     0.000 C 
BRANCH  21  22
ATOM     22  C   UNL d   1      60.586   0.634  31.713  0.00  0.00     0.000 C 
ATOM     23  C   UNL d   1      61.117   0.026  31.541  0.00  0.00     0.000 C 
ENDBRANCH  21  22
ENDBRANCH  20  21
ENDBRANCH  19  20
ENDBRANCH  18  19
ENDBRANCH   3  18
TORSDOF 8
ENDMDL
MODEL 2
REMARK VINA RESULT:      -0.4      0.888      3.979
REMARK  8 active torsions:
REMARK  status: ('A' for Active; 'I' for Inactive)
REMARK    1  A    between atoms: C_6  and  C_1 
REMARK    2  A    between atoms: C_8  and  N_3 
REMARK    3  A    between atoms: C_7  and  C_6 
REMARK    4  A    between atoms: C_9  and  C_7 
REMARK    5  A    between atoms: C_14  and  C_8 
REMARK    6  A    between atoms: C_17  and  C_14 
REMARK    7  A    between atoms: C_15  and  C_16 
REMARK    8  A    between atoms: C_16  and  C_17 
ROOT
ATOM      1  C   UNL d   1      57.712  -1.163  30.566  0.00  0.00     0.148 A 
ATOM      2  N   UNL d   1      57.594  -2.006  30.186  0.00  0.00    -0.227 NA
ATOM      3  N   UNL d   1      58.470  -0.797  30.180  0.00  0.00    -0.289 N 
ATOM      4  C   UNL d   1      58.821  -1.398  29.571  0.00  0.00     0.083 A 
ATOM      5  C   UNL d   1      58.267  -2.163  29.575  0.00  0.00     0.099 A 
ATOM      6  C   UNL d   1      59.566  -1.359  29.013  0.00  0.00     0.019 A 
ATOM      7  C   UNL d   1      58.474  -2.865  29.020  0.00  0.00     0.021 A 
ATOM      8  C   UNL d   1      59.751  -2.078  28.467  0.00  0.00     0.002 A 
ATOM      9  C   UNL d   1      59.197  -2.842  28.471  0.00  0.00     0.002 A 
ENDROOT
BRANCH   1  10
ATOM     10  C   UNL d   1      57.533  -0.569  31.037  0.00  0.00     0.037 C 
BRANCH  10  11
ATOM     11  C   UNL d   1      56.774  -0.391  31.282  0.00  0.00     0.003 C 
BRANCH  11  12
ATOM     12  C   UNL d   1      56.550  -0.334  32.078  0.00  0.00     0.000 A 
ATOM     13  C   UNL d   1      56.150  -0.943  32.450  0.00  0.00     0.000 A 
ATOM     14  C   UNL d   1      55.930  -0.882  33.238  0.00  0.00     0.000 A 
ATOM     15  C   UNL d   1      56.117  -0.191  33.664  0.00  0.00     0.000 A 
ATOM     16  C   UNL d   1      56.519   0.418  33.289  0.00  0.00     0.000 A 
ATOM     17  C   UNL d   1      56.737   0.357  32.504  0.00  0.00     0.000 A 
ENDBRANCH  11  12
ENDBRANCH  10  11
ENDBRANCH   1  10
BRANCH   3  18
ATOM     18  C   UNL d   1      59.114  -0.406  29.897  0.00  0.00     0.082 C 
BRANCH  18  19
ATOM     19  C   UNL d   1      59.399   0.253  30.288  0.00  0.00     0.019 C 
BRANCH  19  20
ATOM     20  C   UNL d   1      60.125   0.572  30.091  0.00  0.00     0.002 C 
BRANCH  20  21
ATOM     21  C   UNL d   1      60.709   0.682  30.664  0.00  0.00     0.000 C 
BRANCH  21  22
ATOM     22  C   UNL d   1      60.552   0.553  31.461  0.00  0.00     0.000 C 
ATOM     23  C   UNL d   1      61.130   0.682  32.036  0.00  0.00     0.000 C 
ENDBRANCH  21  22
ENDBRANCH  20  21
ENDBRANCH  19  20
ENDBRANCH  18  19
ENDBRANCH   3  18
TORSDOF 8
ENDMDL
