MODEL 1
REMARK VINA RESULT:      -3.5      0.000      0.000
REMARK  4 active torsions:
REMARK  status: ('A' for Active; 'I' for Inactive)
REMARK    1  A    between atoms: N_2  and  C_1 
REMARK       I    between atoms: C_6  and  N_2 
REMARK    2  A    between atoms: C_16  and  N_3 
REMARK    3  A    between atoms: C_8  and  C_6 
REMARK    4  A    between atoms: O_19  and  C_12 
ROOT
ATOM      1  C   UNL d   1     -41.591-121.105 -52.027  0.00  0.00    -0.031 C 
ATOM      2  C   UNL d   1     -41.124-120.537 -51.631  0.00  0.00    -0.008 C 
ATOM      3  C   UNL d   1     -42.056-121.667 -52.419  0.00  0.00     0.133 C 
ENDROOT
BRANCH   3   4
ATOM      4  N   UNL d   1     -41.717-122.396 -52.657  0.00  0.00    -0.276 N 
ATOM      5  C   UNL d   1     -41.392-122.981 -52.163  0.00  0.00     0.183 A 
ATOM      6  S   UNL d   1     -41.130-123.587 -52.617  0.00  0.00    -0.048 SA
ATOM      7  C   UNL d   1     -41.277-123.412 -53.415  0.00  0.00     0.050 A 
ATOM      8  C   UNL d   1     -41.130-123.817 -54.101  0.00  0.00     0.008 A 
ATOM      9  C   UNL d   1     -41.641-122.670 -53.426  0.00  0.00     0.095 A 
ATOM     10  C   UNL d   1     -41.344-123.496 -54.833  0.00  0.00     0.003 A 
ATOM     11  C   UNL d   1     -41.716-122.739 -54.849  0.00  0.00     0.026 A 
ATOM     12  C   UNL d   1     -41.855-122.346 -54.155  0.00  0.00     0.111 A 
BRANCH   5  13
ATOM     13  N   UNL d   1     -41.342-122.951 -51.316  0.00  0.00    -0.183 NA
ATOM     14  C   UNL d   1     -41.889-123.360 -50.866  0.00  0.00     0.287 C 
ATOM     15  O   UNL d   1     -42.488-123.803 -51.224  0.00  0.00    -0.265 OA
BRANCH  14  16
ATOM     16  C   UNL d   1     -41.840-123.330 -50.043  0.00  0.00     0.087 A 
ATOM     17  S   UNL d   1     -42.465-123.162 -49.507  0.00  0.00    -0.082 SA
ATOM     18  C   UNL d   1     -42.169-123.191 -48.747  0.00  0.00     0.036 A 
ATOM     19  C   UNL d   1     -41.370-123.375 -48.790  0.00  0.00     0.008 A 
ATOM     20  C   UNL d   1     -41.169-123.460 -49.580  0.00  0.00     0.012 A 
ENDBRANCH  14  16
ENDBRANCH   5  13
BRANCH  12  21
ATOM     21  O   UNL d   1     -42.227-121.593 -54.184  0.00  0.00    -0.327 OA
ATOM     22  C   UNL d   1     -42.687-121.391 -54.841  0.00  0.00     0.181 C 
ENDBRANCH  12  21
ENDBRANCH   3   4
TORSDOF 4
ENDMDL
MODEL 2
REMARK VINA RESULT:      -1.0      1.664      4.903
REMARK  4 active torsions:
REMARK  status: ('A' for Active; 'I' for Inactive)
REMARK    1  A    between atoms: N_2  and  C_1 
REMARK       I    between atoms: C_6  and  N_2 
REMARK    2  A    between atoms: C_16  and  N_3 
REMARK    3  A    between atoms: C_8  and  C_6 
REMARK    4  A    between atoms: O_19  and  C_12 
ROOT
ATOM      1  C   UNL d   1     -43.715-123.190 -49.790  0.00  0.00    -0.031 C 
ATOM      2  C   UNL d   1     -44.250-122.655 -50.145  0.00  0.00    -0.008 C 
ATOM      3  C   UNL d   1     -43.186-123.721 -49.439  0.00  0.00     0.133 C 
ENDROOT
BRANCH   3   4
ATOM      4  N   UNL d   1     -42.451-123.444 -49.143  0.00  0.00    -0.276 N 
ATOM      5  C   UNL d   1     -41.790-123.209 -49.589  0.00  0.00     0.183 A 
ATOM      6  S   UNL d   1     -41.206-122.984 -49.088  0.00  0.00    -0.048 SA
ATOM      7  C   UNL d   1     -41.473-123.067 -48.307  0.00  0.00     0.050 A 
ATOM      8  C   UNL d   1     -41.123-122.923 -47.591  0.00  0.00     0.008 A 
ATOM      9  C   UNL d   1     -42.247-123.353 -48.355  0.00  0.00     0.095 A 
ATOM     10  C   UNL d   1     -41.534-123.061 -46.886  0.00  0.00     0.003 A 
ATOM     11  C   UNL d   1     -42.324-123.353 -46.930  0.00  0.00     0.026 A 
ATOM     12  C   UNL d   1     -42.661-123.491 -47.654  0.00  0.00     0.111 A 
BRANCH   5  13
ATOM     13  N   UNL d   1     -41.732-123.205 -50.437  0.00  0.00    -0.183 NA
ATOM     14  C   UNL d   1     -41.411-122.555 -50.815  0.00  0.00     0.287 C 
ATOM     15  O   UNL d   1     -41.141-121.903 -50.384  0.00  0.00    -0.265 OA
BRANCH  14  16
ATOM     16  C   UNL d   1     -41.355-122.552 -51.638  0.00  0.00     0.087 A 
ATOM     17  S   UNL d   1     -41.123-123.193 -52.130  0.00  0.00    -0.082 SA
ATOM     18  C   UNL d   1     -41.146-122.944 -52.907  0.00  0.00     0.036 A 
ATOM     19  C   UNL d   1     -41.389-122.160 -52.918  0.00  0.00     0.008 A 
ATOM     20  C   UNL d   1     -41.516-121.921 -52.144  0.00  0.00     0.012 A 
ENDBRANCH  14  16
ENDBRANCH   5  13
BRANCH  12  21
ATOM     21  O   UNL d   1     -43.449-123.782 -47.685  0.00  0.00    -0.327 OA
ATOM     22  C   UNL d   1     -43.898-123.816 -46.991  0.00  0.00     0.181 C 
ENDBRANCH  12  21
ENDBRANCH   3   4
TORSDOF 4
ENDMDL
MODEL 3
REMARK VINA RESULT:      -0.7      1.416      4.462
REMARK  4 active torsions:
REMARK  status: ('A' for Active; 'I' for Inactive)
REMARK    1  A    between atoms: N_2  and  C_1 
REMARK       I    between atoms: C_6  and  N_2 
REMARK    2  A    between atoms: C_16  and  N_3 
REMARK    3  A    between atoms: C_8  and  C_6 
REMARK    4  A    between atoms: O_19  and  C_12 
ROOT
ATOM      1  C   UNL d   1     -43.840-122.283 -50.135  0.00  0.00    -0.031 C 
ATOM      2  C   UNL d   1     -44.228-121.544 -50.114  0.00  0.00    -0.008 C 
ATOM      3  C   UNL d   1     -43.456-123.016 -50.157  0.00  0.00     0.133 C 
ENDROOT
BRANCH   3   4
ATOM      4  N   UNL d   1     -42.653-123.074 -49.922  0.00  0.00    -0.276 N 
ATOM      5  C   UNL d   1     -41.984-122.895 -50.382  0.00  0.00     0.183 A 
ATOM      6  S   UNL d   1     -41.325-123.028 -49.945  0.00  0.00    -0.048 SA
ATOM      7  C   UNL d   1     -41.550-123.296 -49.192  0.00  0.00     0.050 A 
ATOM      8  C   UNL d   1     -41.123-123.511 -48.538  0.00  0.00     0.008 A 
ATOM      9  C   UNL d   1     -42.376-123.321 -49.191  0.00  0.00     0.095 A 
ATOM     10  C   UNL d   1     -41.507-123.762 -47.849  0.00  0.00     0.003 A 
ATOM     11  C   UNL d   1     -42.350-123.788 -47.843  0.00  0.00     0.026 A 
ATOM     12  C   UNL d   1     -42.762-123.570 -48.506  0.00  0.00     0.111 A 
BRANCH   5  13
ATOM     13  N   UNL d   1     -41.987-122.616 -51.185  0.00  0.00    -0.183 NA
ATOM     14  C   UNL d   1     -41.562-123.023 -51.753  0.00  0.00     0.287 C 
ATOM     15  O   UNL d   1     -41.130-123.700 -51.558  0.00  0.00    -0.265 OA
BRANCH  14  16
ATOM     16  C   UNL d   1     -41.566-122.751 -52.532  0.00  0.00     0.087 A 
ATOM     17  S   UNL d   1     -41.707-123.207 -53.224  0.00  0.00    -0.082 SA
ATOM     18  C   UNL d   1     -41.657-122.715 -53.873  0.00  0.00     0.036 A 
ATOM     19  C   UNL d   1     -41.488-121.957 -53.608  0.00  0.00     0.008 A 
ATOM     20  C   UNL d   1     -41.432-121.979 -52.790  0.00  0.00     0.012 A 
ENDBRANCH  14  16
ENDBRANCH   5  13
BRANCH  12  21
ATOM     21  O   UNL d   1     -43.602-123.601 -48.488  0.00  0.00    -0.327 OA
ATOM     22  C   UNL d   1     -43.987-123.817 -47.788  0.00  0.00     0.181 C 
ENDBRANCH  12  21
ENDBRANCH   3   4
TORSDOF 4
ENDMDL
