MODEL 1
REMARK VINA RESULT:      -1.3      0.000      0.000
REMARK  5 active torsions:
REMARK  status: ('A' for Active; 'I' for Inactive)
REMARK    1  A    between atoms: C_16  and  N_2 
REMARK    2  A    between atoms: S_9  and  C_4 
REMARK    3  A    between atoms: C_17  and  S_9 
REMARK    4  A    between atoms: C_10  and  C_17 
REMARK       I    between atoms: N_12  and  C_10 
REMARK    5  A    between atoms: C_14  and  N_12 
ROOT
ATOM      1  C   UNL d   1     -42.259-123.401 -48.954  0.00  0.00     0.104 A 
ATOM      2  N   UNL d   1     -42.482-123.445 -50.362  0.00  0.00    -0.252 N 
ATOM      3  C   UNL d   1     -42.754-123.554 -49.582  0.00  0.00     0.274 A 
ATOM      4  C   UNL d   1     -41.711-123.182 -50.492  0.00  0.00     0.182 A 
ATOM      5  C   UNL d   1     -41.488-123.139 -49.085  0.00  0.00     0.095 A 
ATOM      6  N   UNL d   1     -41.212-123.028 -49.843  0.00  0.00    -0.222 NA
ATOM      7  S   UNL d   1     -42.371-123.458 -48.141  0.00  0.00    -0.081 SA
ATOM      8  C   UNL d   1     -41.125-123.033 -48.352  0.00  0.00     0.026 A 
ATOM      9  O   UNL d   1     -43.525-123.817 -49.451  0.00  0.00    -0.266 OA
ATOM     10  C   UNL d   1     -41.666-123.229 -47.772  0.00  0.00     0.031 A 
ATOM     11  C   UNL d   1     -41.523-123.199 -46.960  0.00  0.00     0.007 C 
ENDROOT
BRANCH   4  12
ATOM     12  S   UNL d   1     -41.430-123.069 -51.269  0.00  0.00    -0.044 SA
BRANCH  12  13
ATOM     13  C   UNL d   1     -41.772-122.489 -51.746  0.00  0.00     0.101 C 
BRANCH  13  14
ATOM     14  C   UNL d   1     -41.364-121.788 -51.901  0.00  0.00     0.286 C 
ATOM     15  N   UNL d   1     -41.196-121.571 -52.679  0.00  0.00    -0.208 NA
ATOM     16  O   UNL d   1     -41.123-121.304 -51.276  0.00  0.00    -0.265 OA
BRANCH  15  17
ATOM     17  C   UNL d   1     -41.436-122.055 -53.303  0.00  0.00     0.085 A 
ATOM     18  C   UNL d   1     -41.984-121.779 -53.843  0.00  0.00     0.019 A 
ATOM     19  C   UNL d   1     -42.224-122.263 -54.466  0.00  0.00     0.002 A 
ATOM     20  C   UNL d   1     -42.786-121.981 -55.021  0.00  0.00     0.000 C 
ATOM     21  C   UNL d   1     -41.913-123.019 -54.541  0.00  0.00     0.000 A 
ATOM     22  C   UNL d   1     -41.361-123.294 -53.994  0.00  0.00     0.002 A 
ATOM     23  C   UNL d   1     -41.125-122.811 -53.378  0.00  0.00     0.019 A 
ENDBRANCH  15  17
ENDBRANCH  13  14
ENDBRANCH  12  13
ENDBRANCH   4  12
BRANCH   2  24
ATOM     24  C   UNL d   1     -42.985-123.599 -51.005  0.00  0.00     0.085 C 
ATOM     25  C   UNL d   1     -43.804-123.558 -50.907  0.00  0.00     0.021 C 
ENDBRANCH   2  24
TORSDOF 5
ENDMDL
MODEL 2
REMARK VINA RESULT:      -0.0      1.246      1.989
REMARK  5 active torsions:
REMARK  status: ('A' for Active; 'I' for Inactive)
REMARK    1  A    between atoms: C_16  and  N_2 
REMARK    2  A    between atoms: S_9  and  C_4 
REMARK    3  A    between atoms: C_17  and  S_9 
REMARK    4  A    between atoms: C_10  and  C_17 
REMARK       I    between atoms: N_12  and  C_10 
REMARK    5  A    between atoms: C_14  and  N_12 
ROOT
ATOM      1  C   UNL d   1     -43.247-122.545 -50.032  0.00  0.00     0.104 A 
ATOM      2  N   UNL d   1     -41.916-122.806 -50.474  0.00  0.00    -0.252 N 
ATOM      3  C   UNL d   1     -42.541-122.940 -49.940  0.00  0.00     0.274 A 
ATOM      4  C   UNL d   1     -42.018-122.272 -51.095  0.00  0.00     0.182 A 
ATOM      5  C   UNL d   1     -43.348-122.011 -50.652  0.00  0.00     0.095 A 
ATOM      6  N   UNL d   1     -42.744-121.872 -51.180  0.00  0.00    -0.222 NA
ATOM      7  S   UNL d   1     -43.946-122.565 -49.599  0.00  0.00    -0.081 SA
ATOM      8  C   UNL d   1     -44.110-121.701 -50.602  0.00  0.00     0.026 A 
ATOM      9  O   UNL d   1     -42.439-123.474 -49.319  0.00  0.00    -0.266 OA
ATOM     10  C   UNL d   1     -44.479-122.040 -49.956  0.00  0.00     0.031 A 
ATOM     11  C   UNL d   1     -45.250-121.880 -49.711  0.00  0.00     0.007 C 
ENDROOT
BRANCH   4  12
ATOM     12  S   UNL d   1     -41.399-122.130 -51.635  0.00  0.00    -0.044 SA
BRANCH  12  13
ATOM     13  C   UNL d   1     -41.572-122.039 -52.437  0.00  0.00     0.101 C 
BRANCH  13  14
ATOM     14  C   UNL d   1     -41.334-121.356 -52.835  0.00  0.00     0.286 C 
ATOM     15  N   UNL d   1     -41.309-121.346 -53.660  0.00  0.00    -0.208 NA
ATOM     16  O   UNL d   1     -41.123-120.681 -52.408  0.00  0.00    -0.265 OA
BRANCH  15  17
ATOM     17  C   UNL d   1     -41.520-122.021 -54.086  0.00  0.00     0.085 A 
ATOM     18  C   UNL d   1     -42.125-121.981 -54.635  0.00  0.00     0.019 A 
ATOM     19  C   UNL d   1     -42.335-122.655 -55.061  0.00  0.00     0.002 A 
ATOM     20  C   UNL d   1     -42.955-122.616 -55.624  0.00  0.00     0.000 C 
ATOM     21  C   UNL d   1     -41.938-123.362 -54.933  0.00  0.00     0.000 A 
ATOM     22  C   UNL d   1     -41.329-123.398 -54.379  0.00  0.00     0.002 A 
ATOM     23  C   UNL d   1     -41.123-122.728 -53.959  0.00  0.00     0.019 A 
ENDBRANCH  15  17
ENDBRANCH  13  14
ENDBRANCH  12  13
ENDBRANCH   4  12
BRANCH   2  24
ATOM     24  C   UNL d   1     -41.194-123.208 -50.384  0.00  0.00     0.085 C 
ATOM     25  C   UNL d   1     -41.125-123.806 -49.820  0.00  0.00     0.021 C 
ENDBRANCH   2  24
TORSDOF 5
ENDMDL
