MODEL 1
REMARK VINA RESULT:      29.7      0.000      0.000
REMARK  2 active torsions:
REMARK  status: ('A' for Active; 'I' for Inactive)
REMARK       I    between atoms: C_2  and  N_4 
REMARK       I    between atoms: N_7  and  C_2 
REMARK    1  A    between atoms: N_4  and  C_8 
REMARK    2  A    between atoms: C_12  and  N_7 
ROOT
ATOM      1  C   UNL d   1      58.850  49.620  50.282  0.00  0.00     0.369 C 
ATOM      2  N   UNL d   1      58.327  49.675  49.653  0.00  0.00    -0.190 NA
ATOM      3  N   UNL d   1      59.658  49.707  50.159  0.00  0.00    -0.191 NA
ATOM      4  O   UNL d   1      58.559  49.477  51.040  0.00  0.00    -0.242 OA
ENDROOT
BRANCH   2   5
ATOM      5  C   UNL d   1      57.523  49.589  49.772  0.00  0.00     0.098 A 
ATOM      6  C   UNL d   1      57.570  48.860  49.380  0.00  0.00     0.118 A 
ATOM      7  S   UNL d   1      56.813  48.530  49.361  0.00  0.00     0.213 S 
ATOM      8  O   UNL d   1      57.397  48.077  49.004  0.00  0.00    -0.217 OA
ATOM      9  O   UNL d   1      56.033  48.267  49.382  0.00  0.00    -0.217 OA
ATOM     10  C   UNL d   1      56.296  49.049  49.739  0.00  0.00     0.100 A 
ATOM     11  C   UNL d   1      56.732  49.706  49.995  0.00  0.00     0.032 A 
ENDBRANCH   2   5
BRANCH   3  12
ATOM     12  C   UNL d   1      60.179  49.652  50.793  0.00  0.00     0.086 A 
ATOM     13  C   UNL d   1      60.985  49.546  50.653  0.00  0.00     0.019 A 
ATOM     14  C   UNL d   1      61.502  49.491  51.278  0.00  0.00     0.002 A 
ATOM     15  C   UNL d   1      61.225  49.541  52.053  0.00  0.00     0.000 A 
ATOM     16  C   UNL d   1      60.419  49.647  52.194  0.00  0.00     0.002 A 
ATOM     17  C   UNL d   1      59.899  49.702  51.560  0.00  0.00     0.019 A 
ENDBRANCH   3  12
TORSDOF 2
ENDMDL
