MODEL 1
REMARK VINA RESULT:      56.7      0.000      0.000
REMARK  1 active torsions:
REMARK  status: ('A' for Active; 'I' for Inactive)
REMARK       I    between atoms: N_2  and  C_1 
REMARK       I    between atoms: N_4  and  C_1 
REMARK    1  A    between atoms: C_5  and  N_3 
ROOT
ATOM      1  C   UNL d   1      61.272  49.404  51.732  0.00  0.00     0.339 C 
ATOM      2  N   UNL d   1      60.528  49.412  51.378  0.00  0.00    -0.254 N 
ATOM      3  N   UNL d   1      59.054  49.429  50.675  0.00  0.00    -0.301 N 
ATOM      4  N   UNL d   1      61.346  49.452  52.552  0.00  0.00    -0.258 N 
ATOM      5  O   UNL d   1      61.947  49.347  51.260  0.00  0.00    -0.245 OA
ATOM      6  C   UNL d   1      60.460  49.364  50.564  0.00  0.00     0.104 A 
ATOM      7  C   UNL d   1      59.845  49.470  51.855  0.00  0.00     0.104 A 
ATOM      8  C   UNL d   1      59.110  49.478  51.505  0.00  0.00     0.100 A 
ATOM      9  C   UNL d   1      59.724  49.373  50.213  0.00  0.00     0.100 A 
ATOM     10  C   UNL d   1      62.047  49.450  52.974  0.00  0.00     0.085 A 
ATOM     11  C   UNL d   1      60.723  49.511  53.087  0.00  0.00     0.085 A 
ATOM     12  C   UNL d   1      61.042  49.545  53.840  0.00  0.00     0.021 A 
ATOM     13  C   UNL d   1      61.859  49.508  53.776  0.00  0.00     0.021 A 
ENDROOT
BRANCH   3  14
ATOM     14  C   UNL d   1      58.300  49.437  50.316  0.00  0.00     0.064 A 
ATOM     15  C   UNL d   1      57.624  49.551  50.780  0.00  0.00     0.018 A 
ATOM     16  C   UNL d   1      56.868  49.560  50.425  0.00  0.00     0.001 A 
ATOM     17  C   UNL d   1      56.195  49.672  50.882  0.00  0.00     0.000 C 
ATOM     18  C   UNL d   1      56.794  49.454  49.593  0.00  0.00     0.000 A 
ATOM     19  C   UNL d   1      57.483  49.340  49.130  0.00  0.00     0.002 A 
ATOM     20  C   UNL d   1      56.051  49.462  49.239  0.00  0.00     0.000 C 
ATOM     21  C   UNL d   1      58.233  49.331  49.487  0.00  0.00     0.018 A 
ENDBRANCH   3  14
TORSDOF 1
ENDMDL
