MODEL 1
REMARK VINA RESULT:      25.4      0.000      0.000
REMARK  4 active torsions:
REMARK  status: ('A' for Active; 'I' for Inactive)
REMARK       I    between atoms: C_2  and  N_1 
REMARK       I    between atoms: N_8  and  C_2 
REMARK    1  A    between atoms: C_14  and  N_8 
REMARK    2  A    between atoms: C_15  and  N_8 
REMARK    3  A    between atoms: C_17  and  C_14 
REMARK    4  A    between atoms: C_16  and  C_15 
ROOT
ATOM      1  N   UNL d   1     -51.945  24.890  33.307  0.00  0.00    -0.259 N 
ATOM      2  C   UNL d   1     -51.948  25.714  33.307  0.00  0.00     0.339 C 
ATOM      3  S   UNL d   1     -51.932  23.233  33.307  0.00  0.00    -0.084 SA
ATOM      4  C   UNL d   1     -52.652  24.467  33.307  0.00  0.00     0.074 A 
ATOM      5  C   UNL d   1     -51.221  24.482  33.307  0.00  0.00     0.074 A 
ATOM      6  C   UNL d   1     -52.657  23.643  33.307  0.00  0.00     0.046 A 
ATOM      7  C   UNL d   1     -51.224  23.654  33.307  0.00  0.00     0.046 A 
ATOM      8  N   UNL d   1     -51.239  26.137  33.307  0.00  0.00    -0.258 N 
ATOM      9  O   UNL d   1     -52.669  26.125  33.308  0.00  0.00    -0.245 OA
ATOM     10  C   UNL d   1     -53.375  24.877  33.307  0.00  0.00     0.018 A 
ATOM     11  C   UNL d   1     -50.516  24.893  33.307  0.00  0.00     0.018 A 
ATOM     12  C   UNL d   1     -50.508  23.243  33.306  0.00  0.00     0.008 A 
ATOM     13  C   UNL d   1     -53.356  23.215  33.307  0.00  0.00     0.008 A 
ATOM     14  C   UNL d   1     -49.794  24.484  33.307  0.00  0.00     0.002 A 
ATOM     15  C   UNL d   1     -54.076  24.450  33.307  0.00  0.00     0.002 A 
ATOM     16  C   UNL d   1     -54.074  23.635  33.307  0.00  0.00     0.001 A 
ATOM     17  C   UNL d   1     -49.799  23.665  33.307  0.00  0.00     0.001 A 
ENDROOT
BRANCH   8  18
ATOM     18  C   UNL d   1     -50.515  25.727  33.307  0.00  0.00     0.085 C 
BRANCH  18  19
ATOM     19  C   UNL d   1     -49.836  26.129  33.500  0.00  0.00     0.019 C 
ATOM     20  C   UNL d   1     -49.821  26.949  33.402  0.00  0.00     0.002 C 
ENDBRANCH  18  19
ENDBRANCH   8  18
BRANCH   8  21
ATOM     21  C   UNL d   1     -51.251  26.960  33.308  0.00  0.00     0.085 C 
BRANCH  21  22
ATOM     22  C   UNL d   1     -51.949  27.369  33.499  0.00  0.00     0.019 C 
ATOM     23  C   UNL d   1     -51.960  28.183  33.517  0.00  0.00     0.002 C 
ENDBRANCH  21  22
ENDBRANCH   8  21
TORSDOF 4
ENDMDL
