MODEL 1
REMARK VINA RESULT:      21.1      0.000      0.000
REMARK  3 active torsions:
REMARK  status: ('A' for Active; 'I' for Inactive)
REMARK    1  A    between atoms: C_2  and  S_1 
REMARK    2  A    between atoms: N_6  and  S_1 
REMARK    3  A    between atoms: N_3  and  C_5 
ROOT
ATOM      1  C   UNL d   1      58.653  49.682  50.736  0.00  0.00     0.106 A 
ATOM      2  C   UNL d   1      59.362  49.670  50.313  0.00  0.00     0.036 A 
ATOM      3  C   UNL d   1      60.081  49.673  50.718  0.00  0.00     0.127 A 
ATOM      4  C   UNL d   1      58.664  49.696  51.562  0.00  0.00     0.012 A 
ATOM      5  C   UNL d   1      60.092  49.687  51.544  0.00  0.00     0.024 A 
ATOM      6  C   UNL d   1      59.383  49.699  51.967  0.00  0.00     0.002 A 
ATOM      7  C   UNL d   1      57.947  49.708  51.989  0.00  0.00     0.001 C 
ENDROOT
BRANCH   1   8
ATOM      8  S   UNL d   1      57.922  49.679  50.332  0.00  0.00     0.272 S 
ATOM      9  O   UNL d   1      57.217  49.649  50.761  0.00  0.00    -0.200 OA
ATOM     10  O   UNL d   1      57.904  49.707  49.507  0.00  0.00    -0.200 OA
BRANCH   8  11
ATOM     11  N   UNL d   1      57.325  49.685  49.761  0.00  0.00    -0.226 N 
ATOM     12  C   UNL d   1      56.528  49.692  49.992  0.00  0.00     0.111 C 
ATOM     13  C   UNL d   1      57.526  49.685  48.959  0.00  0.00     0.111 C 
ENDBRANCH   8  11
ENDBRANCH   1   8
BRANCH   3  14
ATOM     14  N   UNL d   1      60.790  49.661  50.295  0.00  0.00    -0.114 N 
ATOM     15  O   UNL d   1      60.775  49.603  49.472  0.00  0.00    -0.532 OA
ATOM     16  O   UNL d   1      61.511  49.707  50.695  0.00  0.00    -0.532 OA
ENDBRANCH   3  14
TORSDOF 3
ENDMDL
