MODEL 1
REMARK VINA RESULT:      -8.2      0.000      0.000
REMARK  4 active torsions:
REMARK  status: ('A' for Active; 'I' for Inactive)
REMARK    1  A    between atoms: C_11  and  N_2 
REMARK    2  A    between atoms: N_3  and  C_14 
REMARK    3  A    between atoms: C_16  and  C_11 
REMARK    4  A    between atoms: C_14  and  C_16 
ROOT
ATOM      1  C   UNL d   1     -48.106  13.075  22.534  0.00  0.00     0.231 C 
ATOM      2  O   UNL d   1     -47.996  12.957  21.723  0.00  0.00    -0.283 OA
ENDROOT
BRANCH   1   3
ATOM      3  C   UNL d   1     -48.863  13.021  22.862  0.00  0.00     0.124 C 
BRANCH   3   4
ATOM      4  N   UNL d   1     -49.483  13.469  22.545  0.00  0.00    -0.303 N 
ATOM      5  C   UNL d   1     -49.946  13.268  21.879  0.00  0.00     0.064 A 
ATOM      6  C   UNL d   1     -50.497  13.875  21.764  0.00  0.00     0.018 A 
ATOM      7  C   UNL d   1     -49.866  12.586  21.421  0.00  0.00     0.019 C 
ATOM      8  C   UNL d   1     -51.064  13.902  21.168  0.00  0.00     0.002 C 
ATOM      9  C   UNL d   1     -50.381  14.449  22.350  0.00  0.00     0.018 A 
ATOM     10  C   UNL d   1     -49.751  14.197  22.835  0.00  0.00     0.064 A 
ATOM     11  C   UNL d   1     -50.762  15.170  22.511  0.00  0.00     0.002 A 
ATOM     12  C   UNL d   1     -49.509  14.668  23.475  0.00  0.00     0.018 A 
ATOM     13  C   UNL d   1     -49.889  15.381  23.631  0.00  0.00     0.002 A 
ATOM     14  C   UNL d   1     -50.513  15.631  23.151  0.00  0.00     0.000 A 
ENDBRANCH   3   4
ENDBRANCH   1   3
BRANCH   1  15
ATOM     15  C   UNL d   1     -47.464  13.247  23.012  0.00  0.00     0.138 C 
BRANCH  15  16
ATOM     16  N   UNL d   1     -46.838  12.707  23.084  0.00  0.00    -0.194 N 
ATOM     17  S   UNL d   1     -46.057  12.834  22.853  0.00  0.00     0.274 S 
ATOM     18  C   UNL d   1     -45.629  12.152  23.027  0.00  0.00     0.109 A 
ATOM     19  O   UNL d   1     -46.297  13.584  22.608  0.00  0.00    -0.200 OA
ATOM     20  O   UNL d   1     -45.251  12.793  22.683  0.00  0.00    -0.200 OA
ATOM     21  C   UNL d   1     -46.146  11.606  23.365  0.00  0.00     0.069 A 
ATOM     22  C   UNL d   1     -44.841  11.953  22.925  0.00  0.00     0.013 A 
ATOM     23  C   UNL d   1     -45.875  10.869  23.597  0.00  0.00     0.005 A 
ATOM     24  C   UNL d   1     -46.894  11.950  23.400  0.00  0.00     0.275 A 
ATOM     25  C   UNL d   1     -45.086  10.675  23.493  0.00  0.00     0.000 A 
ATOM     26  C   UNL d   1     -44.570  11.220  23.156  0.00  0.00     0.001 A 
ATOM     27  O   UNL d   1     -47.577  11.598  23.698  0.00  0.00    -0.266 OA
ENDBRANCH  15  16
ENDBRANCH   1  15
TORSDOF 4
ENDMDL
MODEL 2
REMARK VINA RESULT:      -6.8      1.194      4.953
REMARK  4 active torsions:
REMARK  status: ('A' for Active; 'I' for Inactive)
REMARK    1  A    between atoms: C_11  and  N_2 
REMARK    2  A    between atoms: N_3  and  C_14 
REMARK    3  A    between atoms: C_16  and  C_11 
REMARK    4  A    between atoms: C_14  and  C_16 
ROOT
ATOM      1  C   UNL d   1     -47.363  12.749  22.538  0.00  0.00     0.231 C 
ATOM      2  O   UNL d   1     -47.772  12.066  22.760  0.00  0.00    -0.283 OA
ENDROOT
BRANCH   1   3
ATOM      3  C   UNL d   1     -46.662  12.958  22.924  0.00  0.00     0.124 C 
BRANCH   3   4
ATOM      4  N   UNL d   1     -46.010  12.448  22.896  0.00  0.00    -0.303 N 
ATOM      5  C   UNL d   1     -45.959  11.694  23.252  0.00  0.00     0.064 A 
ATOM      6  C   UNL d   1     -45.209  11.386  23.081  0.00  0.00     0.018 A 
ATOM      7  C   UNL d   1     -46.551  11.324  23.694  0.00  0.00     0.019 C 
ATOM      8  C   UNL d   1     -44.924  10.653  23.324  0.00  0.00     0.002 C 
ATOM      9  C   UNL d   1     -44.797  11.940  22.624  0.00  0.00     0.018 A 
ATOM     10  C   UNL d   1     -45.294  12.600  22.510  0.00  0.00     0.064 A 
ATOM     11  C   UNL d   1     -44.033  11.937  22.295  0.00  0.00     0.002 A 
ATOM     12  C   UNL d   1     -45.022  13.249  22.067  0.00  0.00     0.018 A 
ATOM     13  C   UNL d   1     -44.266  13.242  21.743  0.00  0.00     0.002 A 
ATOM     14  C   UNL d   1     -43.774  12.589  21.856  0.00  0.00     0.000 A 
ENDBRANCH   3   4
ENDBRANCH   1   3
BRANCH   1  15
ATOM     15  C   UNL d   1     -47.654  13.220  21.934  0.00  0.00     0.138 C 
BRANCH  15  16
ATOM     16  N   UNL d   1     -48.438  13.490  21.953  0.00  0.00    -0.194 N 
ATOM     17  S   UNL d   1     -49.049  13.247  21.456  0.00  0.00     0.274 S 
ATOM     18  C   UNL d   1     -49.729  13.659  21.672  0.00  0.00     0.109 A 
ATOM     19  O   UNL d   1     -48.498  12.750  21.095  0.00  0.00    -0.200 OA
ATOM     20  O   UNL d   1     -49.758  13.120  21.054  0.00  0.00    -0.200 OA
ATOM     21  C   UNL d   1     -49.537  14.154  22.302  0.00  0.00     0.069 A 
ATOM     22  C   UNL d   1     -50.495  13.650  21.382  0.00  0.00     0.013 A 
ATOM     23  C   UNL d   1     -50.108  14.636  22.637  0.00  0.00     0.005 A 
ATOM     24  C   UNL d   1     -48.738  14.050  22.476  0.00  0.00     0.275 A 
ATOM     25  C   UNL d   1     -50.873  14.624  22.344  0.00  0.00     0.000 A 
ATOM     26  C   UNL d   1     -51.064  14.129  21.715  0.00  0.00     0.001 A 
ATOM     27  O   UNL d   1     -48.315  14.437  23.067  0.00  0.00    -0.266 OA
ENDBRANCH  15  16
ENDBRANCH   1  15
TORSDOF 4
ENDMDL
MODEL 3
REMARK VINA RESULT:      -6.7      1.151      4.983
REMARK  4 active torsions:
REMARK  status: ('A' for Active; 'I' for Inactive)
REMARK    1  A    between atoms: C_11  and  N_2 
REMARK    2  A    between atoms: N_3  and  C_14 
REMARK    3  A    between atoms: C_16  and  C_11 
REMARK    4  A    between atoms: C_14  and  C_16 
ROOT
ATOM      1  C   UNL d   1     -47.438  12.738  22.536  0.00  0.00     0.231 C 
ATOM      2  O   UNL d   1     -47.260  12.936  21.754  0.00  0.00    -0.283 OA
ENDROOT
BRANCH   1   3
ATOM      3  C   UNL d   1     -46.850  12.770  23.117  0.00  0.00     0.124 C 
BRANCH   3   4
ATOM      4  N   UNL d   1     -46.083  12.512  22.941  0.00  0.00    -0.303 N 
ATOM      5  C   UNL d   1     -45.503  12.942  22.520  0.00  0.00     0.064 A 
ATOM      6  C   UNL d   1     -44.824  12.470  22.476  0.00  0.00     0.018 A 
ATOM      7  C   UNL d   1     -45.593  13.700  22.206  0.00  0.00     0.019 C 
ATOM      8  C   UNL d   1     -44.117  12.678  22.109  0.00  0.00     0.002 C 
ATOM      9  C   UNL d   1     -44.977  11.754  22.864  0.00  0.00     0.018 A 
ATOM     10  C   UNL d   1     -45.759  11.780  23.153  0.00  0.00     0.064 A 
ATOM     11  C   UNL d   1     -44.510  11.078  22.996  0.00  0.00     0.002 A 
ATOM     12  C   UNL d   1     -46.066  11.130  23.570  0.00  0.00     0.018 A 
ATOM     13  C   UNL d   1     -45.602  10.463  23.698  0.00  0.00     0.002 A 
ATOM     14  C   UNL d   1     -44.827  10.437  23.412  0.00  0.00     0.000 A 
ENDBRANCH   3   4
ENDBRANCH   1   3
BRANCH   1  15
ATOM     15  C   UNL d   1     -48.199  12.509  22.735  0.00  0.00     0.138 C 
BRANCH  15  16
ATOM     16  N   UNL d   1     -48.848  12.979  22.523  0.00  0.00    -0.194 N 
ATOM     17  S   UNL d   1     -49.411  12.800  21.949  0.00  0.00     0.274 S 
ATOM     18  C   UNL d   1     -49.952  13.421  21.924  0.00  0.00     0.109 A 
ATOM     19  O   UNL d   1     -48.995  12.099  21.820  0.00  0.00    -0.200 OA
ATOM     20  O   UNL d   1     -50.046  12.779  21.422  0.00  0.00    -0.200 OA
ATOM     21  C   UNL d   1     -49.721  13.982  22.483  0.00  0.00     0.069 A 
ATOM     22  C   UNL d   1     -50.621  13.553  21.471  0.00  0.00     0.013 A 
ATOM     23  C   UNL d   1     -50.158  14.667  22.585  0.00  0.00     0.005 A 
ATOM     24  C   UNL d   1     -49.038  13.708  22.853  0.00  0.00     0.275 A 
ATOM     25  C   UNL d   1     -50.827  14.794  22.129  0.00  0.00     0.000 A 
ATOM     26  C   UNL d   1     -51.057  14.235  21.572  0.00  0.00     0.001 A 
ATOM     27  O   UNL d   1     -48.620  14.095  23.448  0.00  0.00    -0.266 OA
ENDBRANCH  15  16
ENDBRANCH   1  15
TORSDOF 4
ENDMDL
MODEL 4
REMARK VINA RESULT:      -6.5      1.180      2.034
REMARK  4 active torsions:
REMARK  status: ('A' for Active; 'I' for Inactive)
REMARK    1  A    between atoms: C_11  and  N_2 
REMARK    2  A    between atoms: N_3  and  C_14 
REMARK    3  A    between atoms: C_16  and  C_11 
REMARK    4  A    between atoms: C_14  and  C_16 
ROOT
ATOM      1  C   UNL d   1     -47.390  13.377  22.900  0.00  0.00     0.231 C 
ATOM      2  O   UNL d   1     -47.080  13.981  23.371  0.00  0.00    -0.283 OA
ENDROOT
BRANCH   1   3
ATOM      3  C   UNL d   1     -48.054  13.518  22.428  0.00  0.00     0.124 C 
BRANCH   3   4
ATOM      4  N   UNL d   1     -48.754  13.792  22.774  0.00  0.00    -0.303 N 
ATOM      5  C   UNL d   1     -48.961  14.591  22.901  0.00  0.00     0.064 A 
ATOM      6  C   UNL d   1     -49.707  14.604  23.260  0.00  0.00     0.018 A 
ATOM      7  C   UNL d   1     -48.502  15.249  22.703  0.00  0.00     0.019 C 
ATOM      8  C   UNL d   1     -50.122  15.279  23.483  0.00  0.00     0.002 C 
ATOM      9  C   UNL d   1     -49.964  13.822  23.357  0.00  0.00     0.018 A 
ATOM     10  C   UNL d   1     -49.372  13.318  23.055  0.00  0.00     0.064 A 
ATOM     11  C   UNL d   1     -50.659  13.497  23.679  0.00  0.00     0.002 A 
ATOM     12  C   UNL d   1     -49.481  12.494  23.079  0.00  0.00     0.018 A 
ATOM     13  C   UNL d   1     -50.170  12.177  23.398  0.00  0.00     0.002 A 
ATOM     14  C   UNL d   1     -50.756  12.676  23.697  0.00  0.00     0.000 A 
ENDBRANCH   3   4
ENDBRANCH   1   3
BRANCH   1  15
ATOM     15  C   UNL d   1     -47.037  12.637  22.902  0.00  0.00     0.138 C 
BRANCH  15  16
ATOM     16  N   UNL d   1     -46.236  12.553  22.703  0.00  0.00    -0.194 N 
ATOM     17  S   UNL d   1     -45.694  12.053  23.069  0.00  0.00     0.274 S 
ATOM     18  C   UNL d   1     -44.967  12.150  22.693  0.00  0.00     0.109 A 
ATOM     19  O   UNL d   1     -46.311  11.817  23.563  0.00  0.00    -0.200 OA
ATOM     20  O   UNL d   1     -45.035  11.622  23.316  0.00  0.00    -0.200 OA
ATOM     21  C   UNL d   1     -45.063  12.710  22.095  0.00  0.00     0.069 A 
ATOM     22  C   UNL d   1     -44.233  11.807  22.812  0.00  0.00     0.013 A 
ATOM     23  C   UNL d   1     -44.429  12.922  21.623  0.00  0.00     0.005 A 
ATOM     24  C   UNL d   1     -45.849  12.959  22.102  0.00  0.00     0.275 A 
ATOM     25  C   UNL d   1     -43.697  12.576  21.746  0.00  0.00     0.000 A 
ATOM     26  C   UNL d   1     -43.601  12.018  22.342  0.00  0.00     0.001 A 
ATOM     27  O   UNL d   1     -46.186  13.516  21.596  0.00  0.00    -0.266 OA
ENDBRANCH  15  16
ENDBRANCH   1  15
TORSDOF 4
ENDMDL
MODEL 5
REMARK VINA RESULT:      -6.2      8.266     10.544
REMARK  4 active torsions:
REMARK  status: ('A' for Active; 'I' for Inactive)
REMARK    1  A    between atoms: C_11  and  N_2 
REMARK    2  A    between atoms: N_3  and  C_14 
REMARK    3  A    between atoms: C_16  and  C_11 
REMARK    4  A    between atoms: C_14  and  C_16 
ROOT
ATOM      1  C   UNL d   1     -39.216  14.513  18.542  0.00  0.00     0.231 C 
ATOM      2  O   UNL d   1     -39.962  14.388  18.210  0.00  0.00    -0.283 OA
ENDROOT
BRANCH   1   3
ATOM      3  C   UNL d   1     -39.127  15.025  19.185  0.00  0.00     0.124 C 
BRANCH   3   4
ATOM      4  N   UNL d   1     -39.597  14.924  19.859  0.00  0.00    -0.303 N 
ATOM      5  C   UNL d   1     -40.367  15.227  19.974  0.00  0.00     0.064 A 
ATOM      6  C   UNL d   1     -40.621  14.989  20.726  0.00  0.00     0.018 A 
ATOM      7  C   UNL d   1     -40.795  15.682  19.434  0.00  0.00     0.019 C 
ATOM      8  C   UNL d   1     -41.350  15.167  21.064  0.00  0.00     0.002 C 
ATOM      9  C   UNL d   1     -40.018  14.543  21.077  0.00  0.00     0.018 A 
ATOM     10  C   UNL d   1     -39.382  14.502  20.539  0.00  0.00     0.064 A 
ATOM     11  C   UNL d   1     -39.959  14.165  21.815  0.00  0.00     0.002 A 
ATOM     12  C   UNL d   1     -38.694  14.084  20.745  0.00  0.00     0.018 A 
ATOM     13  C   UNL d   1     -38.639  13.712  21.477  0.00  0.00     0.002 A 
ATOM     14  C   UNL d   1     -39.269  13.752  22.010  0.00  0.00     0.000 A 
ENDBRANCH   3   4
ENDBRANCH   1   3
BRANCH   1  15
ATOM     15  C   UNL d   1     -38.562  14.128  18.232  0.00  0.00     0.138 C 
BRANCH  15  16
ATOM     16  N   UNL d   1     -38.415  14.139  17.416  0.00  0.00    -0.194 N 
ATOM     17  S   UNL d   1     -38.328  13.481  16.928  0.00  0.00     0.274 S 
ATOM     18  C   UNL d   1     -38.190  13.752  16.162  0.00  0.00     0.109 A 
ATOM     19  O   UNL d   1     -38.449  13.019  17.601  0.00  0.00    -0.200 OA
ATOM     20  O   UNL d   1     -38.217  12.946  16.310  0.00  0.00    -0.200 OA
ATOM     21  C   UNL d   1     -38.193  14.576  16.179  0.00  0.00     0.069 A 
ATOM     22  C   UNL d   1     -38.063  13.362  15.453  0.00  0.00     0.013 A 
ATOM     23  C   UNL d   1     -38.069  15.003  15.492  0.00  0.00     0.005 A 
ATOM     24  C   UNL d   1     -38.332  14.815  16.956  0.00  0.00     0.275 A 
ATOM     25  C   UNL d   1     -37.942  14.609  14.785  0.00  0.00     0.000 A 
ATOM     26  C   UNL d   1     -37.940  13.787  14.768  0.00  0.00     0.001 A 
ATOM     27  O   UNL d   1     -38.380  15.593  17.223  0.00  0.00    -0.266 OA
ENDBRANCH  15  16
ENDBRANCH   1  15
TORSDOF 4
ENDMDL
