MODEL 1
REMARK VINA RESULT:      67.6      0.000      0.000
REMARK  3 active torsions:
REMARK  status: ('A' for Active; 'I' for Inactive)
REMARK    1  A    between atoms: C_9  and  C_3 
REMARK    2  A    between atoms: N_10  and  C_9 
REMARK    3  A    between atoms: C_11  and  C_9 
ROOT
ATOM      1  C   UNL d   1     -51.107  25.516  33.646  0.00  0.00     0.075 C 
ENDROOT
BRANCH   1   2
ATOM      2  C   UNL d   1     -50.601  26.137  33.838  0.00  0.00     0.106 A 
ATOM      3  C   UNL d   1     -50.395  26.382  34.607  0.00  0.00     0.289 A 
ATOM      4  N   UNL d   1     -49.879  27.018  34.543  0.00  0.00    -0.169 N 
ATOM      5  O   UNL d   1     -50.664  26.041  35.309  0.00  0.00    -0.265 OA
ATOM      6  C   UNL d   1     -49.763  27.171  33.740  0.00  0.00     0.200 A 
ATOM      7  N   UNL d   1     -49.435  27.560  34.967  0.00  0.00    -0.141 NA
ATOM      8  S   UNL d   1     -50.205  26.631  33.306  0.00  0.00    -0.042 SA
ATOM      9  N   UNL d   1     -49.246  27.808  33.675  0.00  0.00    -0.200 NA
ATOM     10  C   UNL d   1     -49.043  28.050  34.435  0.00  0.00     0.184 A 
ATOM     11  C   UNL d   1     -48.537  28.670  34.635  0.00  0.00     0.044 C 
ENDBRANCH   1   2
BRANCH   1  12
ATOM     12  N   UNL d   1     -50.796  24.763  33.535  0.00  0.00    -0.300 N 
ATOM     13  C   UNL d   1     -51.292  24.115  33.504  0.00  0.00     0.107 A 
ATOM     14  C   UNL d   1     -50.970  23.356  33.391  0.00  0.00     0.142 A 
ATOM     15  O   UNL d   1     -50.156  23.256  33.311  0.00  0.00    -0.300 OA
ATOM     16  C   UNL d   1     -49.670  23.922  33.346  0.00  0.00     0.142 A 
ATOM     17  C   UNL d   1     -49.985  24.675  33.457  0.00  0.00     0.107 A 
ENDBRANCH   1  12
BRANCH   1  18
ATOM     18  C   UNL d   1     -51.911  25.651  33.567  0.00  0.00     0.017 A 
ATOM     19  C   UNL d   1     -52.185  26.411  33.399  0.00  0.00     0.002 A 
ATOM     20  C   UNL d   1     -53.000  26.550  33.319  0.00  0.00     0.000 A 
ATOM     21  C   UNL d   1     -53.519  25.933  33.407  0.00  0.00     0.000 A 
ATOM     22  C   UNL d   1     -53.235  25.172  33.576  0.00  0.00     0.000 A 
ATOM     23  C   UNL d   1     -54.346  26.058  33.329  0.00  0.00     0.000 C 
ATOM     24  C   UNL d   1     -52.442  25.039  33.654  0.00  0.00     0.002 A 
ENDBRANCH   1  18
TORSDOF 3
ENDMDL
