MODEL 1
REMARK VINA RESULT:      -7.5      0.000      0.000
REMARK  3 active torsions:
REMARK  status: ('A' for Active; 'I' for Inactive)
REMARK    1  A    between atoms: N_3  and  C_1 
REMARK       I    between atoms: C_5  and  N_3 
REMARK    2  A    between atoms: C_4  and  C_5 
REMARK    3  A    between atoms: C_12  and  C_6 
ROOT
ATOM      1  C   UNL d   1     -41.574-122.361 -52.217  0.00  0.00     0.249 A 
ATOM      2  N   UNL d   1     -41.920-122.829 -51.629  0.00  0.00    -0.210 NA
ATOM      3  C   UNL d   1     -41.694-122.518 -50.888  0.00  0.00     0.091 A 
ATOM      4  S   UNL d   1     -41.135-121.763 -51.859  0.00  0.00    -0.033 SA
ATOM      5  C   UNL d   1     -41.211-121.863 -51.026  0.00  0.00     0.059 A 
ENDROOT
BRANCH   1   6
ATOM      6  N   UNL d   1     -41.656-122.476 -53.029  0.00  0.00    -0.337 NA
ATOM      7  C   UNL d   1     -41.612-122.811 -53.782  0.00  0.00     0.355 C 
ATOM      8  O   UNL d   1     -41.243-123.547 -53.891  0.00  0.00    -0.249 OA
BRANCH   7   9
ATOM      9  C   UNL d   1     -41.936-122.413 -54.435  0.00  0.00     0.197 A 
ATOM     10  O   UNL d   1     -42.725-122.143 -54.510  0.00  0.00    -0.205 OA
ATOM     11  N   UNL d   1     -42.800-121.779 -55.251  0.00  0.00    -0.124 NA
ATOM     12  C   UNL d   1     -42.066-121.822 -55.634  0.00  0.00     0.130 A 
ATOM     13  C   UNL d   1     -41.529-122.212 -55.136  0.00  0.00     0.056 A 
ENDBRANCH   7   9
ENDBRANCH   1   6
BRANCH   3  14
ATOM     14  C   UNL d   1     -41.912-122.811 -50.154  0.00  0.00     0.018 A 
ATOM     15  C   UNL d   1     -42.662-122.669 -49.861  0.00  0.00     0.002 A 
ATOM     16  C   UNL d   1     -42.883-122.963 -49.124  0.00  0.00     0.000 A 
ATOM     17  C   UNL d   1     -42.341-123.401 -48.683  0.00  0.00     0.000 A 
ATOM     18  C   UNL d   1     -41.583-123.547 -48.972  0.00  0.00     0.000 A 
ATOM     19  C   UNL d   1     -42.558-123.699 -47.940  0.00  0.00     0.000 C 
ATOM     20  C   UNL d   1     -41.367-123.249 -49.715  0.00  0.00     0.002 A 
ENDBRANCH   3  14
TORSDOF 3
ENDMDL
MODEL 2
REMARK VINA RESULT:      -5.8      1.758      4.947
REMARK  3 active torsions:
REMARK  status: ('A' for Active; 'I' for Inactive)
REMARK    1  A    between atoms: N_3  and  C_1 
REMARK       I    between atoms: C_5  and  N_3 
REMARK    2  A    between atoms: C_4  and  C_5 
REMARK    3  A    between atoms: C_12  and  C_6 
ROOT
ATOM      1  C   UNL d   1     -41.563-123.194 -51.777  0.00  0.00     0.249 A 
ATOM      2  N   UNL d   1     -41.832-122.695 -52.380  0.00  0.00    -0.210 NA
ATOM      3  C   UNL d   1     -41.557-123.000 -53.107  0.00  0.00     0.091 A 
ATOM      4  S   UNL d   1     -41.125-123.806 -52.112  0.00  0.00    -0.033 SA
ATOM      5  C   UNL d   1     -41.123-123.683 -52.946  0.00  0.00     0.059 A 
ENDROOT
BRANCH   1   6
ATOM      6  N   UNL d   1     -41.710-123.093 -50.973  0.00  0.00    -0.337 NA
ATOM      7  C   UNL d   1     -41.670-122.814 -50.197  0.00  0.00     0.355 C 
ATOM      8  O   UNL d   1     -41.132-122.214 -49.996  0.00  0.00    -0.249 OA
BRANCH   7   9
ATOM      9  C   UNL d   1     -42.169-123.131 -49.614  0.00  0.00     0.197 A 
ATOM     10  O   UNL d   1     -43.005-123.137 -49.625  0.00  0.00    -0.205 OA
ATOM     11  N   UNL d   1     -43.267-123.509 -48.932  0.00  0.00    -0.124 NA
ATOM     12  C   UNL d   1     -42.601-123.734 -48.493  0.00  0.00     0.130 A 
ATOM     13  C   UNL d   1     -41.920-123.503 -48.908  0.00  0.00     0.056 A 
ENDBRANCH   7   9
ENDBRANCH   1   6
BRANCH   3  14
ATOM     14  C   UNL d   1     -41.694-122.680 -53.849  0.00  0.00     0.018 A 
ATOM     15  C   UNL d   1     -41.370-123.030 -54.514  0.00  0.00     0.002 A 
ATOM     16  C   UNL d   1     -41.507-122.709 -55.261  0.00  0.00     0.000 A 
ATOM     17  C   UNL d   1     -41.972-122.033 -55.332  0.00  0.00     0.000 A 
ATOM     18  C   UNL d   1     -42.301-121.675 -54.666  0.00  0.00     0.000 A 
ATOM     19  C   UNL d   1     -42.113-121.705 -56.081  0.00  0.00     0.000 C 
ATOM     20  C   UNL d   1     -42.160-122.002 -53.917  0.00  0.00     0.002 A 
ENDBRANCH   3  14
TORSDOF 3
ENDMDL
MODEL 3
REMARK VINA RESULT:      -5.8      1.822      4.927
REMARK  3 active torsions:
REMARK  status: ('A' for Active; 'I' for Inactive)
REMARK    1  A    between atoms: N_3  and  C_1 
REMARK       I    between atoms: C_5  and  N_3 
REMARK    2  A    between atoms: C_4  and  C_5 
REMARK    3  A    between atoms: C_12  and  C_6 
ROOT
ATOM      1  C   UNL d   1     -41.713-122.503 -51.135  0.00  0.00     0.249 A 
ATOM      2  N   UNL d   1     -41.974-122.725 -51.889  0.00  0.00    -0.210 NA
ATOM      3  C   UNL d   1     -41.606-122.224 -52.446  0.00  0.00     0.091 A 
ATOM      4  S   UNL d   1     -41.189-121.872 -51.210  0.00  0.00    -0.033 SA
ATOM      5  C   UNL d   1     -41.123-121.699 -52.032  0.00  0.00     0.059 A 
ENDROOT
BRANCH   1   6
ATOM      6  N   UNL d   1     -41.942-122.856 -50.427  0.00  0.00    -0.337 NA
ATOM      7  C   UNL d   1     -42.342-123.324 -49.878  0.00  0.00     0.355 C 
ATOM      8  O   UNL d   1     -42.964-123.818 -50.123  0.00  0.00    -0.249 OA
BRANCH   7   9
ATOM      9  C   UNL d   1     -42.124-123.306 -49.077  0.00  0.00     0.197 A 
ATOM     10  O   UNL d   1     -41.472-123.699 -48.731  0.00  0.00    -0.205 OA
ATOM     11  N   UNL d   1     -41.469-123.524 -47.920  0.00  0.00    -0.124 NA
ATOM     12  C   UNL d   1     -42.113-123.026 -47.762  0.00  0.00     0.130 A 
ATOM     13  C   UNL d   1     -42.521-122.887 -48.472  0.00  0.00     0.056 A 
ENDBRANCH   7   9
ENDBRANCH   1   6
BRANCH   3  14
ATOM     14  C   UNL d   1     -41.706-122.249 -53.259  0.00  0.00     0.018 A 
ATOM     15  C   UNL d   1     -42.293-121.804 -53.615  0.00  0.00     0.002 A 
ATOM     16  C   UNL d   1     -42.395-121.827 -54.432  0.00  0.00     0.000 A 
ATOM     17  C   UNL d   1     -41.901-122.303 -54.888  0.00  0.00     0.000 A 
ATOM     18  C   UNL d   1     -41.308-122.755 -54.536  0.00  0.00     0.000 A 
ATOM     19  C   UNL d   1     -41.999-122.331 -55.711  0.00  0.00     0.000 C 
ATOM     20  C   UNL d   1     -41.210-122.727 -53.713  0.00  0.00     0.002 A 
ENDBRANCH   3  14
TORSDOF 3
ENDMDL
