MODEL 1
REMARK VINA RESULT:      -3.3      0.000      0.000
REMARK  5 active torsions:
REMARK  status: ('A' for Active; 'I' for Inactive)
REMARK    1  A    between atoms: N_2  and  S_1 
REMARK    2  A    between atoms: C_3  and  S_1 
REMARK    3  A    between atoms: C_13  and  N_2 
REMARK       I    between atoms: C_6  and  N_7 
REMARK    4  A    between atoms: N_7  and  C_14 
REMARK    5  A    between atoms: C_12  and  C_13 
ROOT
ATOM      1  S   UNL d   1      33.216  19.303 -22.485  0.00  0.00     0.285 S 
ATOM      2  O   UNL d   1      33.198  18.929 -21.745  0.00  0.00    -0.198 OA
ATOM      3  O   UNL d   1      33.234  19.702 -23.226  0.00  0.00    -0.198 OA
ENDROOT
BRANCH   1   4
ATOM      4  N   UNL d   1      33.241  18.577 -22.862  0.00  0.00    -0.157 NA
BRANCH   4   5
ATOM      5  C   UNL d   1      32.588  18.332 -23.326  0.00  0.00     0.114 C 
BRANCH   5   6
ATOM      6  C   UNL d   1      32.567  17.560 -23.586  0.00  0.00     0.039 A 
ATOM      7  C   UNL d   1      33.238  17.190 -23.879  0.00  0.00     0.101 A 
ATOM      8  N   UNL d   1      33.180  16.397 -24.138  0.00  0.00    -0.242 NA
ATOM      9  C   UNL d   1      32.461  15.980 -24.105  0.00  0.00     0.099 A 
ATOM     10  C   UNL d   1      31.785  16.368 -23.804  0.00  0.00     0.021 A 
ATOM     11  C   UNL d   1      31.836  17.139 -23.551  0.00  0.00     0.005 A 
ENDBRANCH   5   6
ENDBRANCH   4   5
ENDBRANCH   1   4
BRANCH   1  12
ATOM     12  C   UNL d   1      33.191  20.060 -22.092  0.00  0.00     0.105 A 
ATOM     13  C   UNL d   1      33.217  20.761 -22.536  0.00  0.00     0.015 A 
ATOM     14  C   UNL d   1      33.193  21.488 -22.164  0.00  0.00     0.020 A 
ATOM     15  C   UNL d   1      33.142  21.511 -21.327  0.00  0.00     0.085 A 
ATOM     16  C   UNL d   1      33.117  20.820 -20.896  0.00  0.00     0.020 A 
ATOM     17  C   UNL d   1      33.142  20.085 -21.283  0.00  0.00     0.015 A 
BRANCH  15  18
ATOM     18  N   UNL d   1      33.117  22.254 -20.931  0.00  0.00    -0.208 NA
ATOM     19  C   UNL d   1      32.366  22.592 -20.731  0.00  0.00     0.279 C 
ATOM     20  O   UNL d   1      31.662  22.187 -20.927  0.00  0.00    -0.265 OA
ATOM     21  C   UNL d   1      32.335  23.303 -20.351  0.00  0.00     0.068 C 
ENDBRANCH  15  18
ENDBRANCH   1  12
TORSDOF 5
ENDMDL
MODEL 2
REMARK VINA RESULT:      -3.3      1.139      5.048
REMARK  5 active torsions:
REMARK  status: ('A' for Active; 'I' for Inactive)
REMARK    1  A    between atoms: N_2  and  S_1 
REMARK    2  A    between atoms: C_3  and  S_1 
REMARK    3  A    between atoms: C_13  and  N_2 
REMARK       I    between atoms: C_6  and  N_7 
REMARK    4  A    between atoms: N_7  and  C_14 
REMARK    5  A    between atoms: C_12  and  C_13 
ROOT
ATOM      1  S   UNL d   1      33.215  20.541 -21.940  0.00  0.00     0.285 S 
ATOM      2  O   UNL d   1      33.205  20.076 -21.254  0.00  0.00    -0.198 OA
ATOM      3  O   UNL d   1      33.226  20.995 -22.650  0.00  0.00    -0.198 OA
ENDROOT
BRANCH   1   4
ATOM      4  N   UNL d   1      33.209  21.225 -21.490  0.00  0.00    -0.157 NA
BRANCH   4   5
ATOM      5  C   UNL d   1      32.481  21.524 -21.207  0.00  0.00     0.114 C 
BRANCH   5   6
ATOM      6  C   UNL d   1      32.485  22.229 -20.797  0.00  0.00     0.039 A 
ATOM      7  C   UNL d   1      32.807  22.282 -20.044  0.00  0.00     0.101 A 
ATOM      8  N   UNL d   1      32.795  23.019 -19.651  0.00  0.00    -0.242 NA
ATOM      9  C   UNL d   1      32.465  23.696 -20.007  0.00  0.00     0.099 A 
ATOM     10  C   UNL d   1      32.140  23.629 -20.773  0.00  0.00     0.021 A 
ATOM     11  C   UNL d   1      32.150  22.913 -21.159  0.00  0.00     0.005 A 
ENDBRANCH   5   6
ENDBRANCH   4   5
ENDBRANCH   1   4
BRANCH   1  12
ATOM     12  C   UNL d   1      33.222  19.829 -22.411  0.00  0.00     0.105 A 
ATOM     13  C   UNL d   1      33.233  19.086 -22.043  0.00  0.00     0.015 A 
ATOM     14  C   UNL d   1      33.240  18.402 -22.490  0.00  0.00     0.020 A 
ATOM     15  C   UNL d   1      33.235  18.467 -23.326  0.00  0.00     0.085 A 
ATOM     16  C   UNL d   1      33.223  19.200 -23.682  0.00  0.00     0.020 A 
ATOM     17  C   UNL d   1      33.217  19.890 -23.220  0.00  0.00     0.015 A 
BRANCH  15  18
ATOM     18  N   UNL d   1      33.241  17.770 -23.799  0.00  0.00    -0.208 NA
ATOM     19  C   UNL d   1      32.511  17.471 -24.107  0.00  0.00     0.279 C 
ATOM     20  O   UNL d   1      31.795  17.870 -23.941  0.00  0.00    -0.265 OA
ATOM     21  C   UNL d   1      32.510  16.804 -24.560  0.00  0.00     0.068 C 
ENDBRANCH  15  18
ENDBRANCH   1  12
TORSDOF 5
ENDMDL
MODEL 3
REMARK VINA RESULT:      -1.4      3.444      5.714
REMARK  5 active torsions:
REMARK  status: ('A' for Active; 'I' for Inactive)
REMARK    1  A    between atoms: N_2  and  S_1 
REMARK    2  A    between atoms: C_3  and  S_1 
REMARK    3  A    between atoms: C_13  and  N_2 
REMARK       I    between atoms: C_6  and  N_7 
REMARK    4  A    between atoms: N_7  and  C_14 
REMARK    5  A    between atoms: C_12  and  C_13 
ROOT
ATOM      1  S   UNL d   1      32.627  22.557 -20.340  0.00  0.00     0.285 S 
ATOM      2  O   UNL d   1      33.239  23.116 -20.303  0.00  0.00    -0.198 OA
ATOM      3  O   UNL d   1      32.009  21.988 -20.400  0.00  0.00    -0.198 OA
ENDROOT
BRANCH   1   4
ATOM      4  N   UNL d   1      32.504  22.623 -19.533  0.00  0.00    -0.157 NA
BRANCH   4   5
ATOM      5  C   UNL d   1      33.098  22.965 -19.053  0.00  0.00     0.114 C 
BRANCH   5   6
ATOM      6  C   UNL d   1      32.977  22.991 -18.247  0.00  0.00     0.039 A 
ATOM      7  C   UNL d   1      32.640  23.647 -17.887  0.00  0.00     0.101 A 
ATOM      8  N   UNL d   1      32.531  23.641 -17.059  0.00  0.00    -0.242 NA
ATOM      9  C   UNL d   1      32.755  22.986 -16.596  0.00  0.00     0.099 A 
ATOM     10  C   UNL d   1      33.097  22.325 -16.974  0.00  0.00     0.021 A 
ATOM     11  C   UNL d   1      33.205  22.327 -17.780  0.00  0.00     0.005 A 
ENDBRANCH   5   6
ENDBRANCH   4   5
ENDBRANCH   1   4
BRANCH   1  12
ATOM     12  C   UNL d   1      32.755  22.488 -21.181  0.00  0.00     0.105 A 
ATOM     13  C   UNL d   1      32.879  23.167 -21.641  0.00  0.00     0.015 A 
ATOM     14  C   UNL d   1      33.002  23.104 -22.447  0.00  0.00     0.020 A 
ATOM     15  C   UNL d   1      33.000  22.342 -22.797  0.00  0.00     0.085 A 
ATOM     16  C   UNL d   1      32.877  21.679 -22.340  0.00  0.00     0.020 A 
ATOM     17  C   UNL d   1      32.753  21.752 -21.521  0.00  0.00     0.015 A 
BRANCH  15  18
ATOM     18  N   UNL d   1      33.125  22.263 -23.626  0.00  0.00    -0.208 NA
ATOM     19  C   UNL d   1      32.886  22.891 -24.143  0.00  0.00     0.279 C 
ATOM     20  O   UNL d   1      32.530  23.578 -23.826  0.00  0.00    -0.265 OA
ATOM     21  C   UNL d   1      33.003  22.822 -24.938  0.00  0.00     0.068 C 
ENDBRANCH  15  18
ENDBRANCH   1  12
TORSDOF 5
ENDMDL
MODEL 4
REMARK VINA RESULT:      -0.9      1.209      5.044
REMARK  5 active torsions:
REMARK  status: ('A' for Active; 'I' for Inactive)
REMARK    1  A    between atoms: N_2  and  S_1 
REMARK    2  A    between atoms: C_3  and  S_1 
REMARK    3  A    between atoms: C_13  and  N_2 
REMARK       I    between atoms: C_6  and  N_7 
REMARK    4  A    between atoms: N_7  and  C_14 
REMARK    5  A    between atoms: C_12  and  C_13 
ROOT
ATOM      1  S   UNL d   1      33.111  20.296 -21.759  0.00  0.00     0.285 S 
ATOM      2  O   UNL d   1      33.154  20.804 -22.413  0.00  0.00    -0.198 OA
ATOM      3  O   UNL d   1      33.067  19.762 -21.109  0.00  0.00    -0.198 OA
ENDROOT
BRANCH   1   4
ATOM      4  N   UNL d   1      33.122  20.936 -21.248  0.00  0.00    -0.157 NA
BRANCH   4   5
ATOM      5  C   UNL d   1      32.954  21.700 -21.543  0.00  0.00     0.114 C 
BRANCH   5   6
ATOM      6  C   UNL d   1      32.921  22.321 -21.015  0.00  0.00     0.039 A 
ATOM      7  C   UNL d   1      32.787  23.090 -21.269  0.00  0.00     0.101 A 
ATOM      8  N   UNL d   1      32.759  23.702 -20.700  0.00  0.00    -0.242 NA
ATOM      9  C   UNL d   1      32.863  23.548 -19.889  0.00  0.00     0.099 A 
ATOM     10  C   UNL d   1      32.999  22.760 -19.644  0.00  0.00     0.021 A 
ATOM     11  C   UNL d   1      33.027  22.161 -20.193  0.00  0.00     0.005 A 
ENDBRANCH   5   6
ENDBRANCH   4   5
ENDBRANCH   1   4
BRANCH   1  12
ATOM     12  C   UNL d   1      33.099  19.629 -22.291  0.00  0.00     0.105 A 
ATOM     13  C   UNL d   1      32.946  19.742 -23.099  0.00  0.00     0.015 A 
ATOM     14  C   UNL d   1      32.934  19.105 -23.611  0.00  0.00     0.020 A 
ATOM     15  C   UNL d   1      33.079  18.338 -23.304  0.00  0.00     0.085 A 
ATOM     16  C   UNL d   1      33.228  18.233 -22.510  0.00  0.00     0.020 A 
ATOM     17  C   UNL d   1      33.239  18.886 -21.997  0.00  0.00     0.015 A 
BRANCH  15  18
ATOM     18  N   UNL d   1      33.069  17.673 -23.822  0.00  0.00    -0.208 NA
ATOM     19  C   UNL d   1      32.605  17.706 -24.530  0.00  0.00     0.279 C 
ATOM     20  O   UNL d   1      32.164  18.394 -24.707  0.00  0.00    -0.265 OA
ATOM     21  C   UNL d   1      32.592  17.073 -25.030  0.00  0.00     0.068 C 
ENDBRANCH  15  18
ENDBRANCH   1  12
TORSDOF 5
ENDMDL
