MODEL 1
REMARK VINA RESULT:      -6.0      0.000      0.000
REMARK  1 active torsions:
REMARK  status: ('A' for Active; 'I' for Inactive)
REMARK    1  A    between atoms: C_2  and  S_1 
ROOT
ATOM      1  C   UNL d   1     -47.076  12.823  23.106  0.00  0.00     0.107 A 
ATOM      2  C   UNL d   1     -46.945  12.091  23.461  0.00  0.00     0.014 A 
ATOM      3  C   UNL d   1     -47.834  13.081  22.953  0.00  0.00     0.014 A 
ATOM      4  C   UNL d   1     -48.356  11.883  23.503  0.00  0.00     0.058 A 
ATOM      5  C   UNL d   1     -48.483  12.604  23.154  0.00  0.00     0.012 A 
ATOM      6  C   UNL d   1     -47.585  11.611  23.664  0.00  0.00     0.012 A 
ATOM      7 CL   UNL d   1     -49.012  11.422  23.696  0.00  0.00    -0.082 Cl
ENDROOT
BRANCH   1   8
ATOM      8  S   UNL d   1     -46.430  13.296  22.907  0.00  0.00     0.302 S 
ATOM      9  O   UNL d   1     -46.668  13.275  22.117  0.00  0.00    -0.197 OA
ATOM     10  O   UNL d   1     -46.194  13.318  23.685  0.00  0.00    -0.197 OA
ATOM     11  N   UNL d   1     -45.790  13.767  22.701  0.00  0.00    -0.043 N 
ENDBRANCH   1   8
TORSDOF 1
ENDMDL
MODEL 2
REMARK VINA RESULT:      -5.9      1.747      2.102
REMARK  1 active torsions:
REMARK  status: ('A' for Active; 'I' for Inactive)
REMARK    1  A    between atoms: C_2  and  S_1 
ROOT
ATOM      1  C   UNL d   1     -47.058  12.692  23.263  0.00  0.00     0.107 A 
ATOM      2  C   UNL d   1     -46.552  13.336  23.167  0.00  0.00     0.014 A 
ATOM      3  C   UNL d   1     -47.861  12.774  23.146  0.00  0.00     0.014 A 
ATOM      4  C   UNL d   1     -47.679  14.144  22.832  0.00  0.00     0.058 A 
ATOM      5  C   UNL d   1     -48.176  13.510  22.927  0.00  0.00     0.012 A 
ATOM      6  C   UNL d   1     -46.857  14.071  22.950  0.00  0.00     0.012 A 
ATOM      7 CL   UNL d   1     -48.008  14.869  22.615  0.00  0.00    -0.082 Cl
ENDROOT
BRANCH   1   8
ATOM      8  S   UNL d   1     -46.745  11.961  23.480  0.00  0.00     0.302 S 
ATOM      9  O   UNL d   1     -46.042  12.335  23.697  0.00  0.00    -0.197 OA
ATOM     10  O   UNL d   1     -47.436  11.591  23.266  0.00  0.00    -0.197 OA
ATOM     11  N   UNL d   1     -46.426  11.236  23.698  0.00  0.00    -0.043 N 
ENDBRANCH   1   8
TORSDOF 1
ENDMDL
MODEL 3
REMARK VINA RESULT:      -5.7      2.327      2.513
REMARK  1 active torsions:
REMARK  status: ('A' for Active; 'I' for Inactive)
REMARK    1  A    between atoms: C_2  and  S_1 
ROOT
ATOM      1  C   UNL d   1     -47.950  12.282  23.219  0.00  0.00     0.107 A 
ATOM      2  C   UNL d   1     -47.241  12.146  23.616  0.00  0.00     0.014 A 
ATOM      3  C   UNL d   1     -47.993  12.836  22.622  0.00  0.00     0.014 A 
ATOM      4  C   UNL d   1     -46.619  13.137  22.799  0.00  0.00     0.058 A 
ATOM      5  C   UNL d   1     -47.318  13.269  22.409  0.00  0.00     0.012 A 
ATOM      6  C   UNL d   1     -46.565  12.573  23.410  0.00  0.00     0.012 A 
ATOM      7 CL   UNL d   1     -45.958  13.577  22.575  0.00  0.00    -0.082 Cl
ENDROOT
BRANCH   1   8
ATOM      8  S   UNL d   1     -48.621  11.850  23.431  0.00  0.00     0.302 S 
ATOM      9  O   UNL d   1     -48.974  12.547  23.698  0.00  0.00    -0.197 OA
ATOM     10  O   UNL d   1     -48.273  11.164  23.168  0.00  0.00    -0.197 OA
ATOM     11  N   UNL d   1     -49.292  11.428  23.645  0.00  0.00    -0.043 N 
ENDBRANCH   1   8
TORSDOF 1
ENDMDL
MODEL 4
REMARK VINA RESULT:      -5.7      2.123      2.462
REMARK  1 active torsions:
REMARK  status: ('A' for Active; 'I' for Inactive)
REMARK    1  A    between atoms: C_2  and  S_1 
ROOT
ATOM      1  C   UNL d   1     -48.690  11.968  22.791  0.00  0.00     0.107 A 
ATOM      2  C   UNL d   1     -49.463  11.887  23.067  0.00  0.00     0.014 A 
ATOM      3  C   UNL d   1     -48.539  12.336  22.079  0.00  0.00     0.014 A 
ATOM      4  C   UNL d   1     -49.927  12.554  21.893  0.00  0.00     0.058 A 
ATOM      5  C   UNL d   1     -49.166  12.632  21.624  0.00  0.00     0.012 A 
ATOM      6  C   UNL d   1     -50.092  12.179  22.620  0.00  0.00     0.012 A 
ATOM      7 CL   UNL d   1     -50.539  12.854  21.429  0.00  0.00    -0.082 Cl
ENDROOT
BRANCH   1   8
ATOM      8  S   UNL d   1     -48.067  11.673  23.244  0.00  0.00     0.302 S 
ATOM      9  O   UNL d   1     -47.907  12.438  23.508  0.00  0.00    -0.197 OA
ATOM     10  O   UNL d   1     -48.223  10.918  22.984  0.00  0.00    -0.197 OA
ATOM     11  N   UNL d   1     -47.445  11.386  23.697  0.00  0.00    -0.043 N 
ENDBRANCH   1   8
TORSDOF 1
ENDMDL
MODEL 5
REMARK VINA RESULT:      -5.5      1.721      1.944
REMARK  1 active torsions:
REMARK  status: ('A' for Active; 'I' for Inactive)
REMARK    1  A    between atoms: C_2  and  S_1 
ROOT
ATOM      1  C   UNL d   1     -47.848  13.513  22.786  0.00  0.00     0.107 A 
ATOM      2  C   UNL d   1     -47.034  13.635  22.830  0.00  0.00     0.014 A 
ATOM      3  C   UNL d   1     -48.177  12.811  23.039  0.00  0.00     0.014 A 
ATOM      4  C   UNL d   1     -46.891  12.330  23.389  0.00  0.00     0.058 A 
ATOM      5  C   UNL d   1     -47.692  12.212  23.344  0.00  0.00     0.012 A 
ATOM      6  C   UNL d   1     -46.545  13.044  23.132  0.00  0.00     0.012 A 
ATOM      7 CL   UNL d   1     -46.423  11.723  23.695  0.00  0.00    -0.082 Cl
ENDROOT
BRANCH   1   8
ATOM      8  S   UNL d   1     -48.330  14.110  22.482  0.00  0.00     0.302 S 
ATOM      9  O   UNL d   1     -48.383  13.694  21.771  0.00  0.00    -0.197 OA
ATOM     10  O   UNL d   1     -48.278  14.521  23.182  0.00  0.00    -0.197 OA
ATOM     11  N   UNL d   1     -48.810  14.700  22.172  0.00  0.00    -0.043 N 
ENDBRANCH   1   8
TORSDOF 1
ENDMDL
