MODEL 1
REMARK VINA RESULT:      -6.4      0.000      0.000
REMARK  0 active torsions:
REMARK  status: ('A' for Active; 'I' for Inactive)
ROOT
ATOM      1  C   UNL d   1     -41.495-122.601 -53.201  0.00  0.00     0.062 A 
ATOM      2  C   UNL d   1     -41.304-123.405 -53.228  0.00  0.00     0.116 A 
ATOM      3  C   UNL d   1     -41.713-122.204 -53.913  0.00  0.00     0.192 A 
ATOM      4  N   UNL d   1     -41.729-122.638 -54.627  0.00  0.00    -0.171 N 
ATOM      5  N   UNL d   1     -41.327-123.816 -53.945  0.00  0.00    -0.217 NA
ATOM      6  S   UNL d   1     -41.123-123.601 -52.444  0.00  0.00    -0.068 SA
ATOM      7  C   UNL d   1     -41.434-122.318 -52.445  0.00  0.00     0.011 A 
ATOM      8  N   UNL d   1     -42.076-121.402 -54.904  0.00  0.00    -0.022 NA
ATOM      9  N   UNL d   1     -41.961-122.124 -55.256  0.00  0.00    -0.037 NA
ATOM     10  N   UNL d   1     -41.925-121.444 -54.079  0.00  0.00    -0.108 NA
ATOM     11  C   UNL d   1     -41.198-122.961 -51.974  0.00  0.00     0.031 A 
ATOM     12  C   UNL d   1     -41.535-123.440 -54.630  0.00  0.00     0.204 A 
ATOM     13  C   UNL d   1     -41.497-121.688 -51.915  0.00  0.00     0.001 A 
ATOM     14  C   UNL d   1     -41.123-122.728 -51.202  0.00  0.00     0.006 A 
ATOM     15  C   UNL d   1     -41.306-121.947 -51.168  0.00  0.00     0.001 A 
ENDROOT
TORSDOF 0
ENDMDL
MODEL 2
REMARK VINA RESULT:      -5.9      1.501      2.646
REMARK  0 active torsions:
REMARK  status: ('A' for Active; 'I' for Inactive)
ROOT
ATOM      1  C   UNL d   1     -41.516-122.580 -53.321  0.00  0.00     0.062 A 
ATOM      2  C   UNL d   1     -41.424-123.401 -53.341  0.00  0.00     0.116 A 
ATOM      3  C   UNL d   1     -41.408-122.170 -52.592  0.00  0.00     0.192 A 
ATOM      4  N   UNL d   1     -41.211-122.609 -51.909  0.00  0.00    -0.171 N 
ATOM      5  N   UNL d   1     -41.229-123.816 -52.654  0.00  0.00    -0.217 NA
ATOM      6  S   UNL d   1     -41.568-123.607 -54.131  0.00  0.00    -0.068 SA
ATOM      7  C   UNL d   1     -41.705-122.295 -54.055  0.00  0.00     0.011 A 
ATOM      8  N   UNL d   1     -41.285-121.344 -51.562  0.00  0.00    -0.022 NA
ATOM      9  N   UNL d   1     -41.133-122.080 -51.255  0.00  0.00    -0.037 NA
ATOM     10  N   UNL d   1     -41.454-121.392 -52.383  0.00  0.00    -0.108 NA
ATOM     11  C   UNL d   1     -41.736-122.955 -54.560  0.00  0.00     0.031 A 
ATOM     12  C   UNL d   1     -41.124-123.428 -51.953  0.00  0.00     0.204 A 
ATOM     13  C   UNL d   1     -41.885-121.655 -54.545  0.00  0.00     0.001 A 
ATOM     14  C   UNL d   1     -41.924-122.722 -55.313  0.00  0.00     0.006 A 
ATOM     15  C   UNL d   1     -42.015-121.924 -55.301  0.00  0.00     0.001 A 
ENDROOT
TORSDOF 0
ENDMDL
MODEL 3
REMARK VINA RESULT:      -5.2      1.098      1.899
REMARK  0 active torsions:
REMARK  status: ('A' for Active; 'I' for Inactive)
ROOT
ATOM      1  C   UNL d   1     -41.376-122.758 -52.075  0.00  0.00     0.062 A 
ATOM      2  C   UNL d   1     -41.225-121.949 -51.990  0.00  0.00     0.116 A 
ATOM      3  C   UNL d   1     -41.509-123.074 -52.844  0.00  0.00     0.192 A 
ATOM      4  N   UNL d   1     -41.484-122.559 -53.502  0.00  0.00    -0.171 N 
ATOM      5  N   UNL d   1     -41.205-121.457 -52.654  0.00  0.00    -0.217 NA
ATOM      6  S   UNL d   1     -41.124-121.840 -51.175  0.00  0.00    -0.068 SA
ATOM      7  C   UNL d   1     -41.368-123.126 -51.354  0.00  0.00     0.011 A 
ATOM      8  N   UNL d   1     -41.742-123.767 -53.951  0.00  0.00    -0.022 NA
ATOM      9  N   UNL d   1     -41.633-123.003 -54.205  0.00  0.00    -0.037 NA
ATOM     10  N   UNL d   1     -41.667-123.817 -53.116  0.00  0.00    -0.108 NA
ATOM     11  C   UNL d   1     -41.207-122.535 -50.791  0.00  0.00     0.031 A 
ATOM     12  C   UNL d   1     -41.332-121.756 -53.394  0.00  0.00     0.204 A 
ATOM     13  C   UNL d   1     -41.445-123.817 -50.907  0.00  0.00     0.001 A 
ATOM     14  C   UNL d   1     -41.189-122.855 -50.048  0.00  0.00     0.006 A 
ATOM     15  C   UNL d   1     -41.335-123.642 -50.121  0.00  0.00     0.001 A 
ENDROOT
TORSDOF 0
ENDMDL
MODEL 4
REMARK VINA RESULT:      -3.8      3.605      4.401
REMARK  0 active torsions:
REMARK  status: ('A' for Active; 'I' for Inactive)
ROOT
ATOM      1  C   UNL d   1     -42.168-123.137 -48.979  0.00  0.00     0.062 A 
ATOM      2  C   UNL d   1     -41.423-123.444 -49.163  0.00  0.00     0.116 A 
ATOM      3  C   UNL d   1     -42.618-122.758 -49.582  0.00  0.00     0.192 A 
ATOM      4  N   UNL d   1     -42.296-122.703 -50.351  0.00  0.00    -0.171 N 
ATOM      5  N   UNL d   1     -41.123-123.380 -49.930  0.00  0.00    -0.217 NA
ATOM      6  S   UNL d   1     -41.150-123.768 -48.450  0.00  0.00    -0.068 SA
ATOM      7  C   UNL d   1     -42.345-123.264 -48.199  0.00  0.00     0.011 A 
ATOM      8  N   UNL d   1     -43.479-122.131 -50.373  0.00  0.00    -0.022 NA
ATOM      9  N   UNL d   1     -42.847-122.304 -50.852  0.00  0.00    -0.037 NA
ATOM     10  N   UNL d   1     -43.345-122.407 -49.591  0.00  0.00    -0.108 NA
ATOM     11  C   UNL d   1     -41.692-123.665 -47.874  0.00  0.00     0.031 A 
ATOM     12  C   UNL d   1     -41.551-123.017 -50.512  0.00  0.00     0.204 A 
ATOM     13  C   UNL d   1     -42.870-123.184 -47.567  0.00  0.00     0.001 A 
ATOM     14  C   UNL d   1     -41.820-123.816 -47.089  0.00  0.00     0.006 A 
ATOM     15  C   UNL d   1     -42.543-123.520 -46.903  0.00  0.00     0.001 A 
ENDROOT
TORSDOF 0
ENDMDL
MODEL 5
REMARK VINA RESULT:      -3.6      2.031      2.874
REMARK  0 active torsions:
REMARK  status: ('A' for Active; 'I' for Inactive)
ROOT
ATOM      1  C   UNL d   1     -41.787-122.682 -52.224  0.00  0.00     0.062 A 
ATOM      2  C   UNL d   1     -41.308-123.350 -52.309  0.00  0.00     0.116 A 
ATOM      3  C   UNL d   1     -42.085-122.482 -51.461  0.00  0.00     0.192 A 
ATOM      4  N   UNL d   1     -41.886-122.968 -50.811  0.00  0.00    -0.171 N 
ATOM      5  N   UNL d   1     -41.123-123.817 -51.653  0.00  0.00    -0.217 NA
ATOM      6  S   UNL d   1     -41.123-123.371 -53.117  0.00  0.00    -0.068 SA
ATOM      7  C   UNL d   1     -41.892-122.313 -52.937  0.00  0.00     0.011 A 
ATOM      8  N   UNL d   1     -42.650-121.998 -50.364  0.00  0.00    -0.022 NA
ATOM      9  N   UNL d   1     -42.248-122.657 -50.114  0.00  0.00    -0.037 NA
ATOM     10  N   UNL d   1     -42.555-121.885 -51.190  0.00  0.00    -0.108 NA
ATOM     11  C   UNL d   1     -41.467-122.758 -53.495  0.00  0.00     0.031 A 
ATOM     12  C   UNL d   1     -41.406-123.630 -50.919  0.00  0.00     0.204 A 
ATOM     13  C   UNL d   1     -42.224-121.698 -53.377  0.00  0.00     0.001 A 
ATOM     14  C   UNL d   1     -41.540-122.428 -54.231  0.00  0.00     0.006 A 
ATOM     15  C   UNL d   1     -42.005-121.778 -54.156  0.00  0.00     0.001 A 
ENDROOT
TORSDOF 0
ENDMDL
