MODEL 1
REMARK VINA RESULT:      20.3      0.000      0.000
REMARK  0 active torsions:
REMARK  status: ('A' for Active; 'I' for Inactive)
ROOT
ATOM      1  C   UNL d   1      59.003  49.704  50.221  0.00  0.00     0.138 A 
ATOM      2  C   UNL d   1      58.624  49.703  50.954  0.00  0.00     0.102 A 
ATOM      3  N   UNL d   1      58.556  49.705  49.525  0.00  0.00    -0.239 NA
ATOM      4  C   UNL d   1      59.821  49.705  50.178  0.00  0.00     0.214 A 
ATOM      5  N   UNL d   1      57.799  49.702  50.991  0.00  0.00    -0.242 NA
ATOM      6  C   UNL d   1      59.889  49.703  51.607  0.00  0.00     0.022 A 
ATOM      7  C   UNL d   1      60.267  49.704  50.874  0.00  0.00     0.042 A 
ATOM      8  C   UNL d   1      57.725  49.704  49.561  0.00  0.00     0.099 A 
ATOM      9  C   UNL d   1      57.347  49.703  50.294  0.00  0.00     0.099 A 
ATOM     10  O   UNL d   1      60.199  49.707  49.446  0.00  0.00    -0.285 OA
ATOM     11  C   UNL d   1      60.328  49.702  52.298  0.00  0.00     0.002 A 
ATOM     12  C   UNL d   1      61.085  49.705  50.832  0.00  0.00     0.003 A 
ATOM     13  C   UNL d   1      56.542  49.702  50.325  0.00  0.00     0.021 A 
ATOM     14  C   UNL d   1      57.294  49.705  48.868  0.00  0.00     0.021 A 
ATOM     15  C   UNL d   1      61.140  49.703  52.253  0.00  0.00     0.000 A 
ATOM     16  C   UNL d   1      61.518  49.704  51.520  0.00  0.00     0.000 A 
ATOM     17  C   UNL d   1      56.064  49.703  49.631  0.00  0.00     0.002 A 
ATOM     18  C   UNL d   1      56.442  49.704  48.898  0.00  0.00     0.002 A 
ENDROOT
TORSDOF 0
ENDMDL
MODEL 2
REMARK VINA RESULT:      21.1      0.978      3.941
REMARK  0 active torsions:
REMARK  status: ('A' for Active; 'I' for Inactive)
ROOT
ATOM      1  C   UNL d   1      58.677  49.707  50.817  0.00  0.00     0.138 A 
ATOM      2  C   UNL d   1      58.998  49.707  50.057  0.00  0.00     0.102 A 
ATOM      3  N   UNL d   1      59.175  49.707  51.476  0.00  0.00    -0.239 NA
ATOM      4  C   UNL d   1      57.864  49.707  50.921  0.00  0.00     0.214 A 
ATOM      5  N   UNL d   1      59.818  49.707  49.957  0.00  0.00    -0.242 NA
ATOM      6  C   UNL d   1      57.688  49.707  49.502  0.00  0.00     0.022 A 
ATOM      7  C   UNL d   1      57.366  49.707  50.262  0.00  0.00     0.042 A 
ATOM      8  C   UNL d   1      60.001  49.707  51.378  0.00  0.00     0.099 A 
ATOM      9  C   UNL d   1      60.322  49.707  50.618  0.00  0.00     0.099 A 
ATOM     10  O   UNL d   1      57.543  49.707  51.681  0.00  0.00    -0.285 OA
ATOM     11  C   UNL d   1      57.198  49.707  48.847  0.00  0.00     0.002 A 
ATOM     12  C   UNL d   1      56.554  49.707  50.366  0.00  0.00     0.003 A 
ATOM     13  C   UNL d   1      61.123  49.707  50.526  0.00  0.00     0.021 A 
ATOM     14  C   UNL d   1      60.483  49.707  52.036  0.00  0.00     0.021 A 
ATOM     15  C   UNL d   1      56.392  49.707  48.953  0.00  0.00     0.000 A 
ATOM     16  C   UNL d   1      56.070  49.707  49.713  0.00  0.00     0.000 A 
ATOM     17  C   UNL d   1      61.652  49.707  51.182  0.00  0.00     0.002 A 
ATOM     18  C   UNL d   1      61.330  49.707  51.941  0.00  0.00     0.002 A 
ENDROOT
TORSDOF 0
ENDMDL
