MODEL 1
REMARK VINA RESULT:      -6.3      0.000      0.000
REMARK  3 active torsions:
REMARK  status: ('A' for Active; 'I' for Inactive)
REMARK    1  A    between atoms: N_4  and  C_1 
REMARK    2  A    between atoms: C_3  and  N_4 
REMARK    3  A    between atoms: C_8  and  C_5 
ROOT
ATOM      1  C   UNL d   1     -41.634-122.613 -51.884  0.00  0.00     0.750 A 
ATOM      2  N   UNL d   1     -41.828-122.323 -52.632  0.00  0.00    -0.059 NA
ATOM      3  C   UNL d   1     -41.670-122.773 -53.302  0.00  0.00     0.103 A 
ATOM      4  N   UNL d   1     -41.286-123.343 -51.802  0.00  0.00    -0.058 NA
ATOM      5  C   UNL d   1     -41.317-123.515 -53.223  0.00  0.00     0.041 A 
ATOM      6  C   UNL d   1     -41.123-123.805 -52.465  0.00  0.00     0.120 A 
ENDROOT
BRANCH   1   7
ATOM      7  N   UNL d   1     -41.795-122.157 -51.218  0.00  0.00    -0.059 NA
BRANCH   7   8
ATOM      8  C   UNL d   1     -42.002-122.519 -50.506  0.00  0.00     0.101 A 
ATOM      9  C   UNL d   1     -41.455-122.988 -50.102  0.00  0.00     0.041 A 
ATOM     10  C   UNL d   1     -41.670-123.349 -49.387  0.00  0.00     0.104 A 
ATOM     11  N   UNL d   1     -41.123-123.817 -48.983  0.00  0.00    -0.148 N 
ATOM     12  C   UNL d   1     -42.427-123.241 -49.080  0.00  0.00     0.021 A 
ATOM     13  C   UNL d   1     -42.974-122.773 -49.483  0.00  0.00     0.003 A 
ATOM     14  C   UNL d   1     -42.763-122.413 -50.194  0.00  0.00     0.018 A 
ATOM     15  C   UNL d   1     -43.310-121.945 -50.597  0.00  0.00     0.002 C 
ENDBRANCH   7   8
ENDBRANCH   1   7
BRANCH   3  16
ATOM     16  C   UNL d   1     -41.863-122.484 -54.046  0.00  0.00     0.037 A 
ATOM     17  C   UNL d   1     -42.572-122.088 -54.154  0.00  0.00     0.100 A 
ATOM     18  N   UNL d   1     -42.777-121.793 -54.897  0.00  0.00    -0.242 NA
ATOM     19  C   UNL d   1     -42.259-121.901 -55.538  0.00  0.00     0.099 A 
ATOM     20  C   UNL d   1     -41.542-122.303 -55.426  0.00  0.00     0.021 A 
ATOM     21  C   UNL d   1     -41.349-122.592 -54.682  0.00  0.00     0.005 A 
ENDBRANCH   3  16
TORSDOF 3
ENDMDL
MODEL 2
REMARK VINA RESULT:      -4.8      0.734      1.113
REMARK  3 active torsions:
REMARK  status: ('A' for Active; 'I' for Inactive)
REMARK    1  A    between atoms: N_4  and  C_1 
REMARK    2  A    between atoms: C_3  and  N_4 
REMARK    3  A    between atoms: C_8  and  C_5 
ROOT
ATOM      1  C   UNL d   1     -41.599-122.579 -51.846  0.00  0.00     0.750 A 
ATOM      2  N   UNL d   1     -41.739-122.275 -52.600  0.00  0.00    -0.059 NA
ATOM      3  C   UNL d   1     -41.604-122.742 -53.264  0.00  0.00     0.103 A 
ATOM      4  N   UNL d   1     -41.327-123.339 -51.751  0.00  0.00    -0.058 NA
ATOM      5  C   UNL d   1     -41.327-123.514 -53.171  0.00  0.00     0.041 A 
ATOM      6  C   UNL d   1     -41.187-123.817 -52.407  0.00  0.00     0.120 A 
ENDROOT
BRANCH   1   7
ATOM      7  N   UNL d   1     -41.738-122.105 -51.187  0.00  0.00    -0.059 NA
BRANCH   7   8
ATOM      8  C   UNL d   1     -42.204-122.385 -50.565  0.00  0.00     0.101 A 
ATOM      9  C   UNL d   1     -42.971-122.652 -50.707  0.00  0.00     0.041 A 
ATOM     10  C   UNL d   1     -43.435-122.931 -50.078  0.00  0.00     0.104 A 
ATOM     11  N   UNL d   1     -44.202-123.199 -50.220  0.00  0.00    -0.148 N 
ATOM     12  C   UNL d   1     -43.129-122.942 -49.313  0.00  0.00     0.021 A 
ATOM     13  C   UNL d   1     -42.362-122.675 -49.170  0.00  0.00     0.003 A 
ATOM     14  C   UNL d   1     -41.900-122.397 -49.793  0.00  0.00     0.018 A 
ATOM     15  C   UNL d   1     -41.133-122.130 -49.651  0.00  0.00     0.002 C 
ENDBRANCH   7   8
ENDBRANCH   1   7
BRANCH   3  16
ATOM     16  C   UNL d   1     -41.743-122.440 -54.014  0.00  0.00     0.037 A 
ATOM     17  C   UNL d   1     -42.382-121.941 -54.137  0.00  0.00     0.100 A 
ATOM     18  N   UNL d   1     -42.532-121.632 -54.887  0.00  0.00    -0.242 NA
ATOM     19  C   UNL d   1     -42.031-121.828 -55.520  0.00  0.00     0.099 A 
ATOM     20  C   UNL d   1     -41.384-122.333 -55.392  0.00  0.00     0.021 A 
ATOM     21  C   UNL d   1     -41.245-122.635 -54.642  0.00  0.00     0.005 A 
ENDBRANCH   3  16
TORSDOF 3
ENDMDL
