MODEL 1
REMARK VINA RESULT:      32.5      0.000      0.000
REMARK  4 active torsions:
REMARK  status: ('A' for Active; 'I' for Inactive)
REMARK       I    between atoms: N_3  and  C_1 
REMARK    1  A    between atoms: O_5  and  C_1 
REMARK    2  A    between atoms: C_2  and  O_8 
REMARK       I    between atoms: N_4  and  C_2 
REMARK    3  A    between atoms: C_6  and  O_5 
REMARK    4  A    between atoms: O_8  and  C_12 
ROOT
ATOM      1  C   UNL d   1      45.204 -14.790  44.580  0.00  0.00     0.105 A 
ATOM      2  C   UNL d   1      45.197 -15.613  44.591  0.00  0.00     0.025 A 
ATOM      3  C   UNL d   1      45.884 -16.032  44.418  0.00  0.00     0.027 A 
ATOM      4  C   UNL d   1      45.887 -16.872  44.427  0.00  0.00     0.105 A 
ATOM      5  C   UNL d   1      44.513 -16.012  44.774  0.00  0.00     0.002 A 
ATOM      6  C   UNL d   1      44.498 -16.839  44.788  0.00  0.00     0.002 A 
ATOM      7  C   UNL d   1      45.202 -17.271  44.610  0.00  0.00     0.025 A 
ATOM      8  C   UNL d   1      44.517 -14.371  44.753  0.00  0.00     0.025 A 
ATOM      9  C   UNL d   1      43.833 -14.770  44.936  0.00  0.00     0.002 A 
ATOM     10  C   UNL d   1      43.818 -15.597  44.950  0.00  0.00     0.000 A 
ENDROOT
BRANCH   1  11
ATOM     11  O   UNL d   1      45.899 -14.385  44.394  0.00  0.00    -0.259 OA
BRANCH  11  12
ATOM     12  C   UNL d   1      45.885 -13.565  44.294  0.00  0.00     0.378 C 
ATOM     13  N   UNL d   1      45.811 -13.231  43.530  0.00  0.00    -0.247 N 
ATOM     14  C   UNL d   1      45.798 -12.405  43.440  0.00  0.00     0.112 A 
ATOM     15  C   UNL d   1      45.752 -13.726  42.874  0.00  0.00     0.112 A 
ATOM     16  C   UNL d   1      45.724 -12.080  42.677  0.00  0.00     0.142 A 
ATOM     17  O   UNL d   1      45.665 -12.586  42.013  0.00  0.00    -0.300 OA
ATOM     18  C   UNL d   1      45.679 -13.405  42.118  0.00  0.00     0.142 A 
ATOM     19  O   UNL d   1      45.943 -13.060  44.948  0.00  0.00    -0.237 OA
ENDBRANCH  11  12
ENDBRANCH   1  11
BRANCH   4  20
ATOM     20  O   UNL d   1      46.577 -17.290  44.252  0.00  0.00    -0.259 OA
BRANCH  20  21
ATOM     21  C   UNL d   1      46.568 -18.108  44.228  0.00  0.00     0.378 C 
ATOM     22  N   UNL d   1      46.580 -18.506  43.502  0.00  0.00    -0.247 N 
ATOM     23  C   UNL d   1      46.571 -19.332  43.498  0.00  0.00     0.112 A 
ATOM     24  C   UNL d   1      46.601 -18.079  42.807  0.00  0.00     0.112 A 
ATOM     25  C   UNL d   1      46.583 -19.727  42.776  0.00  0.00     0.142 A 
ATOM     26  O   UNL d   1      46.604 -19.303  42.069  0.00  0.00    -0.300 OA
ATOM     27  C   UNL d   1      46.613 -18.480  42.086  0.00  0.00     0.142 A 
ATOM     28  O   UNL d   1      46.547 -18.529  44.937  0.00  0.00    -0.237 OA
ENDBRANCH  20  21
ENDBRANCH   4  20
TORSDOF 4
ENDMDL
