MODEL 1
REMARK VINA RESULT:      65.9      0.000      0.000
REMARK  6 active torsions:
REMARK  status: ('A' for Active; 'I' for Inactive)
REMARK    1  A    between atoms: C_3  and  C_1 
REMARK    2  A    between atoms: C_4  and  N_2 
REMARK       I    between atoms: N_14  and  C_3 
REMARK    3  A    between atoms: N_5  and  C_19 
REMARK    4  A    between atoms: O_18  and  C_13 
REMARK    5  A    between atoms: C_17  and  N_14 
REMARK    6  A    between atoms: C_19  and  C_17 
ROOT
ATOM      1  N   UNL d   1     -55.688-100.935 -43.130  0.00  0.00    -0.300 N 
ATOM      2  N   UNL d   1     -55.436-102.145 -42.039  0.00  0.00    -0.299 N 
ATOM      3  C   UNL d   1     -55.177-101.558 -43.328  0.00  0.00     0.100 A 
ATOM      4  C   UNL d   1     -56.070-100.913 -42.397  0.00  0.00     0.100 A 
ATOM      5  C   UNL d   1     -55.054-102.167 -42.772  0.00  0.00     0.100 A 
ATOM      6  C   UNL d   1     -55.941-101.517 -41.858  0.00  0.00     0.100 A 
ENDROOT
BRANCH   2   7
ATOM      7  C   UNL d   1     -55.308-102.749 -41.500  0.00  0.00     0.101 C 
BRANCH   7   8
ATOM      8  C   UNL d   1     -54.711-102.699 -40.942  0.00  0.00     0.121 C 
BRANCH   8   9
ATOM      9  N   UNL d   1     -54.864-102.810 -40.152  0.00  0.00    -0.205 NA
ATOM     10  C   UNL d   1     -54.875-102.161 -39.642  0.00  0.00     0.280 C 
ATOM     11  O   UNL d   1     -54.733-101.408 -39.930  0.00  0.00    -0.265 OA
BRANCH  10  12
ATOM     12  C   UNL d   1     -55.030-102.274 -38.839  0.00  0.00     0.065 A 
ATOM     13  C   UNL d   1     -55.504-101.788 -38.364  0.00  0.00     0.040 A 
ATOM     14  S   UNL d   1     -55.503-102.109 -37.604  0.00  0.00    -0.086 SA
ATOM     15  C   UNL d   1     -55.043-102.773 -37.608  0.00  0.00     0.036 A 
ATOM     16  C   UNL d   1     -54.746-102.880 -38.376  0.00  0.00     0.012 A 
ENDBRANCH  10  12
ENDBRANCH   8   9
ENDBRANCH   7   8
ENDBRANCH   2   7
BRANCH   1  17
ATOM     17  C   UNL d   1     -55.809-100.333 -43.681  0.00  0.00     0.086 A 
ATOM     18  C   UNL d   1     -55.842-100.503 -44.491  0.00  0.00     0.110 A 
ATOM     19  C   UNL d   1     -55.964 -99.896 -45.029  0.00  0.00     0.026 A 
ATOM     20  C   UNL d   1     -56.053 -99.117 -44.774  0.00  0.00     0.002 A 
ATOM     21  C   UNL d   1     -56.020 -98.946 -43.963  0.00  0.00     0.002 A 
ATOM     22  C   UNL d   1     -55.899 -99.545 -43.416  0.00  0.00     0.019 A 
BRANCH  18  23
ATOM     23  O   UNL d   1     -55.755-101.273 -44.756  0.00  0.00    -0.327 OA
ATOM     24  C   UNL d   1     -55.074-101.499 -45.172  0.00  0.00     0.181 C 
ENDBRANCH  18  23
ENDBRANCH   1  17
TORSDOF 6
ENDMDL
MODEL 2
REMARK VINA RESULT:      68.3      1.936      5.825
REMARK  6 active torsions:
REMARK  status: ('A' for Active; 'I' for Inactive)
REMARK    1  A    between atoms: C_3  and  C_1 
REMARK    2  A    between atoms: C_4  and  N_2 
REMARK       I    between atoms: N_14  and  C_3 
REMARK    3  A    between atoms: N_5  and  C_19 
REMARK    4  A    between atoms: O_18  and  C_13 
REMARK    5  A    between atoms: C_17  and  N_14 
REMARK    6  A    between atoms: C_19  and  C_17 
ROOT
ATOM      1  N   UNL d   1     -55.556-102.577 -37.872  0.00  0.00    -0.300 N 
ATOM      2  N   UNL d   1     -55.373-102.776 -39.499  0.00  0.00    -0.299 N 
ATOM      3  C   UNL d   1     -56.226-102.719 -38.341  0.00  0.00     0.100 A 
ATOM      4  C   UNL d   1     -54.802-102.534 -38.209  0.00  0.00     0.100 A 
ATOM      5  C   UNL d   1     -56.127-102.819 -39.162  0.00  0.00     0.100 A 
ATOM      6  C   UNL d   1     -54.717-102.634 -39.019  0.00  0.00     0.100 A 
ENDROOT
BRANCH   2   7
ATOM      7  C   UNL d   1     -55.288-102.876 -40.308  0.00  0.00     0.101 C 
BRANCH   7   8
ATOM      8  C   UNL d   1     -54.716-102.468 -40.727  0.00  0.00     0.121 C 
BRANCH   8   9
ATOM      9  N   UNL d   1     -54.896-101.784 -41.126  0.00  0.00    -0.205 NA
ATOM     10  C   UNL d   1     -54.999-101.803 -41.946  0.00  0.00     0.280 C 
ATOM     11  O   UNL d   1     -54.921-102.508 -42.354  0.00  0.00    -0.265 OA
BRANCH  10  12
ATOM     12  C   UNL d   1     -55.182-101.108 -42.351  0.00  0.00     0.065 A 
ATOM     13  C   UNL d   1     -55.084-100.338 -42.062  0.00  0.00     0.040 A 
ATOM     14  S   UNL d   1     -55.337 -99.819 -42.652  0.00  0.00    -0.086 SA
ATOM     15  C   UNL d   1     -55.584-100.255 -43.287  0.00  0.00     0.036 A 
ATOM     16  C   UNL d   1     -55.489-101.059 -43.104  0.00  0.00     0.012 A 
ENDBRANCH  10  12
ENDBRANCH   8   9
ENDBRANCH   7   8
ENDBRANCH   2   7
BRANCH   1  17
ATOM     17  C   UNL d   1     -55.655-102.478 -37.059  0.00  0.00     0.086 A 
ATOM     18  C   UNL d   1     -56.325-102.093 -36.760  0.00  0.00     0.110 A 
ATOM     19  C   UNL d   1     -56.412-102.001 -35.950  0.00  0.00     0.026 A 
ATOM     20  C   UNL d   1     -55.841-102.286 -35.428  0.00  0.00     0.002 A 
ATOM     21  C   UNL d   1     -55.170-102.672 -35.727  0.00  0.00     0.002 A 
ATOM     22  C   UNL d   1     -55.073-102.770 -36.536  0.00  0.00     0.019 A 
BRANCH  18  23
ATOM     23  O   UNL d   1     -56.898-101.805 -37.269  0.00  0.00    -0.327 OA
ATOM     24  C   UNL d   1     -57.580-102.250 -37.427  0.00  0.00     0.181 C 
ENDBRANCH  18  23
ENDBRANCH   1  17
TORSDOF 6
ENDMDL
