MODEL 1
REMARK VINA RESULT:      -2.6      0.000      0.000
REMARK  5 active torsions:
REMARK  status: ('A' for Active; 'I' for Inactive)
REMARK    1  A    between atoms: C_7  and  C_1 
REMARK    2  A    between atoms: O_13  and  C_7 
REMARK    3  A    between atoms: C_15  and  C_9 
REMARK    4  A    between atoms: C_11  and  C_15 
REMARK    5  A    between atoms: C_18  and  O_13 
ROOT
ATOM      1  C   UNL d   1      30.274  16.553 -24.192  0.00  0.00     0.127 A 
ATOM      2  C   UNL d   1      30.348  17.316 -24.440  0.00  0.00     0.305 A 
ATOM      3  O   UNL d   1      31.071  17.739 -24.333  0.00  0.00    -0.273 OA
ATOM      4  C   UNL d   1      30.916  16.153 -23.818  0.00  0.00     0.013 A 
ATOM      5  C   UNL d   1      31.717  17.364 -23.967  0.00  0.00     0.103 A 
ATOM      6  C   UNL d   1      31.638  16.555 -23.704  0.00  0.00     0.023 A 
ATOM      7  O   UNL d   1      29.688  17.695 -24.813  0.00  0.00    -0.259 OA
ATOM      8  C   UNL d   1      32.428  17.761 -23.855  0.00  0.00     0.023 A 
ATOM      9  C   UNL d   1      32.273  16.175 -23.340  0.00  0.00     0.002 A 
ATOM     10  C   UNL d   1      32.997  16.598 -23.233  0.00  0.00     0.000 A 
ATOM     11  C   UNL d   1      33.072  17.361 -23.481  0.00  0.00     0.002 A 
ENDROOT
BRANCH   1  12
ATOM     12  C   UNL d   1      29.547  16.205 -24.327  0.00  0.00     0.305 C 
ATOM     13  O   UNL d   1      29.345  15.936 -25.096  0.00  0.00    -0.259 OA
BRANCH  12  14
ATOM     14  O   UNL d   1      28.975  16.100 -23.726  0.00  0.00    -0.271 OA
BRANCH  14  15
ATOM     15  C   UNL d   1      28.355  15.538 -23.826  0.00  0.00     0.126 C 
ATOM     16  C   UNL d   1      27.776  15.480 -23.244  0.00  0.00     0.029 C 
ENDBRANCH  14  15
ENDBRANCH  12  14
ENDBRANCH   1  12
BRANCH   8  17
ATOM     17  C   UNL d   1      32.504  18.539 -24.108  0.00  0.00     0.002 C 
BRANCH  17  18
ATOM     18  C   UNL d   1      33.169  18.992 -23.875  0.00  0.00     0.000 C 
ATOM     19  C   UNL d   1      33.234  19.776 -24.108  0.00  0.00     0.000 C 
ENDBRANCH  17  18
ENDBRANCH   8  17
TORSDOF 5
ENDMDL
MODEL 2
REMARK VINA RESULT:      -2.0      4.691      6.443
REMARK  5 active torsions:
REMARK  status: ('A' for Active; 'I' for Inactive)
REMARK    1  A    between atoms: C_7  and  C_1 
REMARK    2  A    between atoms: O_13  and  C_7 
REMARK    3  A    between atoms: C_15  and  C_9 
REMARK    4  A    between atoms: C_11  and  C_15 
REMARK    5  A    between atoms: C_18  and  O_13 
ROOT
ATOM      1  C   UNL d   1      32.786  22.273 -20.670  0.00  0.00     0.127 A 
ATOM      2  C   UNL d   1      32.809  22.460 -21.452  0.00  0.00     0.305 A 
ATOM      3  O   UNL d   1      32.930  21.864 -22.039  0.00  0.00    -0.273 OA
ATOM      4  C   UNL d   1      32.882  21.475 -20.410  0.00  0.00     0.013 A 
ATOM      5  C   UNL d   1      33.027  21.071 -21.805  0.00  0.00     0.103 A 
ATOM      6  C   UNL d   1      33.002  20.873 -20.975  0.00  0.00     0.023 A 
ATOM      7  O   UNL d   1      32.710  23.269 -21.687  0.00  0.00    -0.259 OA
ATOM      8  C   UNL d   1      33.145  20.478 -22.363  0.00  0.00     0.023 A 
ATOM      9  C   UNL d   1      33.097  20.089 -20.735  0.00  0.00     0.002 A 
ATOM     10  C   UNL d   1      33.218  19.492 -21.321  0.00  0.00     0.000 A 
ATOM     11  C   UNL d   1      33.241  19.679 -22.104  0.00  0.00     0.002 A 
ENDROOT
BRANCH   1  12
ATOM     12  C   UNL d   1      32.666  22.899 -20.158  0.00  0.00     0.305 C 
ATOM     13  O   UNL d   1      32.109  23.497 -20.349  0.00  0.00    -0.259 OA
BRANCH  12  14
ATOM     14  O   UNL d   1      33.078  22.980 -19.436  0.00  0.00    -0.271 OA
BRANCH  14  15
ATOM     15  C   UNL d   1      32.814  23.535 -18.858  0.00  0.00     0.126 C 
ATOM     16  C   UNL d   1      33.070  23.449 -18.081  0.00  0.00     0.029 C 
ENDBRANCH  14  15
ENDBRANCH  12  14
ENDBRANCH   1  12
BRANCH   8  17
ATOM     17  C   UNL d   1      33.169  20.669 -23.161  0.00  0.00     0.002 C 
BRANCH  17  18
ATOM     18  C   UNL d   1      33.237  20.063 -23.735  0.00  0.00     0.000 C 
ATOM     19  C   UNL d   1      33.198  20.247 -24.534  0.00  0.00     0.000 C 
ENDBRANCH  17  18
ENDBRANCH   8  17
TORSDOF 5
ENDMDL
MODEL 3
REMARK VINA RESULT:      -1.9      3.304      5.326
REMARK  5 active torsions:
REMARK  status: ('A' for Active; 'I' for Inactive)
REMARK    1  A    between atoms: C_7  and  C_1 
REMARK    2  A    between atoms: O_13  and  C_7 
REMARK    3  A    between atoms: C_15  and  C_9 
REMARK    4  A    between atoms: C_11  and  C_15 
REMARK    5  A    between atoms: C_18  and  O_13 
ROOT
ATOM      1  C   UNL d   1      32.912  20.951 -21.870  0.00  0.00     0.127 A 
ATOM      2  C   UNL d   1      32.914  20.234 -21.503  0.00  0.00     0.305 A 
ATOM      3  O   UNL d   1      32.996  19.519 -21.945  0.00  0.00    -0.273 OA
ATOM      4  C   UNL d   1      32.993  21.010 -22.709  0.00  0.00     0.013 A 
ATOM      5  C   UNL d   1      33.077  19.554 -22.772  0.00  0.00     0.103 A 
ATOM      6  C   UNL d   1      33.075  20.314 -23.162  0.00  0.00     0.023 A 
ATOM      7  O   UNL d   1      32.831  20.202 -20.659  0.00  0.00    -0.259 OA
ATOM      8  C   UNL d   1      33.158  18.868 -23.218  0.00  0.00     0.023 A 
ATOM      9  C   UNL d   1      33.155  20.358 -23.981  0.00  0.00     0.002 A 
ATOM     10  C   UNL d   1      33.237  19.643 -24.424  0.00  0.00     0.000 A 
ATOM     11  C   UNL d   1      33.239  18.927 -24.057  0.00  0.00     0.002 A 
ENDROOT
BRANCH   1  12
ATOM     12  C   UNL d   1      32.828  21.600 -21.381  0.00  0.00     0.305 C 
ATOM     13  O   UNL d   1      33.219  21.622 -20.638  0.00  0.00    -0.259 OA
BRANCH  12  14
ATOM     14  O   UNL d   1      32.362  22.264 -21.583  0.00  0.00    -0.271 OA
BRANCH  14  15
ATOM     15  C   UNL d   1      32.214  22.867 -21.013  0.00  0.00     0.126 C 
ATOM     16  C   UNL d   1      31.957  23.604 -21.274  0.00  0.00     0.029 C 
ENDBRANCH  14  15
ENDBRANCH  12  14
ENDBRANCH   1  12
BRANCH   8  17
ATOM     17  C   UNL d   1      33.160  18.137 -22.843  0.00  0.00     0.002 C 
BRANCH  17  18
ATOM     18  C   UNL d   1      33.177  17.434 -23.297  0.00  0.00     0.000 C 
ATOM     19  C   UNL d   1      33.156  16.703 -22.924  0.00  0.00     0.000 C 
ENDBRANCH  17  18
ENDBRANCH   8  17
TORSDOF 5
ENDMDL
MODEL 4
REMARK VINA RESULT:      -1.5      2.665      4.353
REMARK  5 active torsions:
REMARK  status: ('A' for Active; 'I' for Inactive)
REMARK    1  A    between atoms: C_7  and  C_1 
REMARK    2  A    between atoms: O_13  and  C_7 
REMARK    3  A    between atoms: C_15  and  C_9 
REMARK    4  A    between atoms: C_11  and  C_15 
REMARK    5  A    between atoms: C_18  and  O_13 
ROOT
ATOM      1  C   UNL d   1      33.128  19.301 -23.224  0.00  0.00     0.127 A 
ATOM      2  C   UNL d   1      33.143  19.993 -23.635  0.00  0.00     0.305 A 
ATOM      3  O   UNL d   1      33.175  20.736 -23.235  0.00  0.00    -0.273 OA
ATOM      4  C   UNL d   1      33.145  19.296 -22.380  0.00  0.00     0.013 A 
ATOM      5  C   UNL d   1      33.192  20.755 -22.403  0.00  0.00     0.103 A 
ATOM      6  C   UNL d   1      33.177  20.021 -21.967  0.00  0.00     0.023 A 
ATOM      7  O   UNL d   1      33.126  19.970 -24.483  0.00  0.00    -0.259 OA
ATOM      8  C   UNL d   1      33.224  21.469 -21.998  0.00  0.00     0.023 A 
ATOM      9  C   UNL d   1      33.193  20.030 -21.143  0.00  0.00     0.002 A 
ATOM     10  C   UNL d   1      33.225  20.773 -20.741  0.00  0.00     0.000 A 
ATOM     11  C   UNL d   1      33.240  21.465 -21.152  0.00  0.00     0.002 A 
ENDROOT
BRANCH   1  12
ATOM     12  C   UNL d   1      33.097  18.621 -23.676  0.00  0.00     0.305 C 
ATOM     13  O   UNL d   1      33.199  18.662 -24.508  0.00  0.00    -0.259 OA
BRANCH  12  14
ATOM     14  O   UNL d   1      32.965  17.863 -23.347  0.00  0.00    -0.271 OA
BRANCH  14  15
ATOM     15  C   UNL d   1      32.679  17.235 -23.832  0.00  0.00     0.126 C 
ATOM     16  C   UNL d   1      32.793  16.459 -23.582  0.00  0.00     0.029 C 
ENDBRANCH  14  15
ENDBRANCH  12  14
ENDBRANCH   1  12
BRANCH   8  17
ATOM     17  C   UNL d   1      33.239  22.175 -22.417  0.00  0.00     0.002 C 
BRANCH  17  18
ATOM     18  C   UNL d   1      33.137  22.903 -22.015  0.00  0.00     0.000 C 
ATOM     19  C   UNL d   1      33.088  23.604 -22.441  0.00  0.00     0.000 C 
ENDBRANCH  17  18
ENDBRANCH   8  17
TORSDOF 5
ENDMDL
MODEL 5
REMARK VINA RESULT:      -1.5      4.076      6.118
REMARK  5 active torsions:
REMARK  status: ('A' for Active; 'I' for Inactive)
REMARK    1  A    between atoms: C_7  and  C_1 
REMARK    2  A    between atoms: O_13  and  C_7 
REMARK    3  A    between atoms: C_15  and  C_9 
REMARK    4  A    between atoms: C_11  and  C_15 
REMARK    5  A    between atoms: C_18  and  O_13 
ROOT
ATOM      1  C   UNL d   1      33.038  20.793 -21.910  0.00  0.00     0.127 A 
ATOM      2  C   UNL d   1      32.836  20.809 -21.131  0.00  0.00     0.305 A 
ATOM      3  O   UNL d   1      32.693  21.541 -20.734  0.00  0.00    -0.273 OA
ATOM      4  C   UNL d   1      33.113  21.507 -22.355  0.00  0.00     0.013 A 
ATOM      5  C   UNL d   1      32.761  22.257 -21.153  0.00  0.00     0.103 A 
ATOM      6  C   UNL d   1      32.975  22.239 -21.980  0.00  0.00     0.023 A 
ATOM      7  O   UNL d   1      32.767  20.078 -20.707  0.00  0.00    -0.259 OA
ATOM      8  C   UNL d   1      32.625  22.978 -20.782  0.00  0.00     0.023 A 
ATOM      9  C   UNL d   1      33.046  22.944 -22.403  0.00  0.00     0.002 A 
ATOM     10  C   UNL d   1      32.902  23.676 -22.006  0.00  0.00     0.000 A 
ATOM     11  C   UNL d   1      32.700  23.693 -21.227  0.00  0.00     0.002 A 
ENDROOT
BRANCH   1  12
ATOM     12  C   UNL d   1      33.162  20.051 -22.230  0.00  0.00     0.305 C 
ATOM     13  O   UNL d   1      33.240  19.384 -21.726  0.00  0.00    -0.259 OA
BRANCH  12  14
ATOM     14  O   UNL d   1      33.216  19.914 -23.052  0.00  0.00    -0.271 OA
BRANCH  14  15
ATOM     15  C   UNL d   1      33.008  19.162 -23.371  0.00  0.00     0.126 C 
ATOM     16  C   UNL d   1      33.052  19.051 -24.186  0.00  0.00     0.029 C 
ENDBRANCH  14  15
ENDBRANCH  12  14
ENDBRANCH   1  12
BRANCH   8  17
ATOM     17  C   UNL d   1      32.419  22.994 -19.987  0.00  0.00     0.002 C 
BRANCH  17  18
ATOM     18  C   UNL d   1      32.501  23.702 -19.548  0.00  0.00     0.000 C 
ATOM     19  C   UNL d   1      32.744  23.674 -18.764  0.00  0.00     0.000 C 
ENDBRANCH  17  18
ENDBRANCH   8  17
TORSDOF 5
ENDMDL
MODEL 6
REMARK VINA RESULT:      -1.4      1.118      4.097
REMARK  5 active torsions:
REMARK  status: ('A' for Active; 'I' for Inactive)
REMARK    1  A    between atoms: C_7  and  C_1 
REMARK    2  A    between atoms: O_13  and  C_7 
REMARK    3  A    between atoms: C_15  and  C_9 
REMARK    4  A    between atoms: C_11  and  C_15 
REMARK    5  A    between atoms: C_18  and  O_13 
ROOT
ATOM      1  C   UNL d   1      31.481  17.161 -23.925  0.00  0.00     0.127 A 
ATOM      2  C   UNL d   1      31.228  16.455 -23.634  0.00  0.00     0.305 A 
ATOM      3  O   UNL d   1      30.434  16.194 -23.753  0.00  0.00    -0.273 OA
ATOM      4  C   UNL d   1      30.959  17.665 -24.359  0.00  0.00     0.013 A 
ATOM      5  C   UNL d   1      29.903  16.674 -24.178  0.00  0.00     0.103 A 
ATOM      6  C   UNL d   1      30.171  17.424 -24.486  0.00  0.00     0.023 A 
ATOM      7  O   UNL d   1      31.772  15.968 -23.202  0.00  0.00    -0.259 OA
ATOM      8  C   UNL d   1      29.126  16.435 -24.303  0.00  0.00     0.023 A 
ATOM      9  C   UNL d   1      29.651  17.906 -24.908  0.00  0.00     0.002 A 
ATOM     10  C   UNL d   1      28.856  17.645 -25.028  0.00  0.00     0.000 A 
ATOM     11  C   UNL d   1      28.603  16.939 -24.737  0.00  0.00     0.002 A 
ENDROOT
BRANCH   1  12
ATOM     12  C   UNL d   1      32.261  17.350 -23.772  0.00  0.00     0.305 C 
ATOM     13  O   UNL d   1      32.872  17.041 -24.258  0.00  0.00    -0.259 OA
BRANCH  12  14
ATOM     14  O   UNL d   1      32.493  17.847 -23.141  0.00  0.00    -0.271 OA
BRANCH  14  15
ATOM     15  C   UNL d   1      33.119  18.402 -23.247  0.00  0.00     0.126 C 
ATOM     16  C   UNL d   1      33.239  18.978 -22.672  0.00  0.00     0.029 C 
ENDBRANCH  14  15
ENDBRANCH  12  14
ENDBRANCH   1  12
BRANCH   8  17
ATOM     17  C   UNL d   1      28.868  15.714 -24.006  0.00  0.00     0.002 C 
BRANCH  17  18
ATOM     18  C   UNL d   1      28.068  15.486 -24.097  0.00  0.00     0.000 C 
ATOM     19  C   UNL d   1      27.573  15.453 -23.442  0.00  0.00     0.000 C 
ENDBRANCH  17  18
ENDBRANCH   8  17
TORSDOF 5
ENDMDL
MODEL 7
REMARK VINA RESULT:      -1.3      1.552      2.876
REMARK  5 active torsions:
REMARK  status: ('A' for Active; 'I' for Inactive)
REMARK    1  A    between atoms: C_7  and  C_1 
REMARK    2  A    between atoms: O_13  and  C_7 
REMARK    3  A    between atoms: C_15  and  C_9 
REMARK    4  A    between atoms: C_11  and  C_15 
REMARK    5  A    between atoms: C_18  and  O_13 
ROOT
ATOM      1  C   UNL d   1      32.379  17.608 -24.171  0.00  0.00     0.127 A 
ATOM      2  C   UNL d   1      32.503  17.713 -23.383  0.00  0.00     0.305 A 
ATOM      3  O   UNL d   1      32.752  18.460 -23.077  0.00  0.00    -0.273 OA
ATOM      4  C   UNL d   1      32.495  18.242 -24.718  0.00  0.00     0.013 A 
ATOM      5  C   UNL d   1      32.872  19.098 -23.597  0.00  0.00     0.103 A 
ATOM      6  C   UNL d   1      32.741  18.987 -24.433  0.00  0.00     0.023 A 
ATOM      7  O   UNL d   1      32.380  17.060 -22.855  0.00  0.00    -0.259 OA
ATOM      8  C   UNL d   1      33.115  19.832 -23.315  0.00  0.00     0.023 A 
ATOM      9  C   UNL d   1      32.858  19.614 -24.956  0.00  0.00     0.002 A 
ATOM     10  C   UNL d   1      33.107  20.362 -24.650  0.00  0.00     0.000 A 
ATOM     11  C   UNL d   1      33.231  20.466 -23.862  0.00  0.00     0.002 A 
ENDROOT
BRANCH   1  12
ATOM     12  C   UNL d   1      32.139  16.861 -24.397  0.00  0.00     0.305 C 
ATOM     13  O   UNL d   1      32.708  16.255 -24.521  0.00  0.00    -0.259 OA
BRANCH  12  14
ATOM     14  O   UNL d   1      31.337  16.657 -24.515  0.00  0.00    -0.271 OA
BRANCH  14  15
ATOM     15  C   UNL d   1      31.123  15.861 -24.688  0.00  0.00     0.126 C 
ATOM     16  C   UNL d   1      30.423  15.718 -25.096  0.00  0.00     0.029 C 
ENDBRANCH  14  15
ENDBRANCH  12  14
ENDBRANCH   1  12
BRANCH   8  17
ATOM     17  C   UNL d   1      33.241  19.938 -22.511  0.00  0.00     0.002 C 
BRANCH  17  18
ATOM     18  C   UNL d   1      33.199  20.705 -22.178  0.00  0.00     0.000 C 
ATOM     19  C   UNL d   1      32.913  20.807 -21.416  0.00  0.00     0.000 C 
ENDBRANCH  17  18
ENDBRANCH   8  17
TORSDOF 5
ENDMDL
MODEL 8
REMARK VINA RESULT:      -0.8      3.705      6.035
REMARK  5 active torsions:
REMARK  status: ('A' for Active; 'I' for Inactive)
REMARK    1  A    between atoms: C_7  and  C_1 
REMARK    2  A    between atoms: O_13  and  C_7 
REMARK    3  A    between atoms: C_15  and  C_9 
REMARK    4  A    between atoms: C_11  and  C_15 
REMARK    5  A    between atoms: C_18  and  O_13 
ROOT
ATOM      1  C   UNL d   1      33.160  21.376 -21.085  0.00  0.00     0.127 A 
ATOM      2  C   UNL d   1      33.160  20.572 -21.044  0.00  0.00     0.305 A 
ATOM      3  O   UNL d   1      33.180  20.101 -21.745  0.00  0.00    -0.273 OA
ATOM      4  C   UNL d   1      33.180  21.774 -21.830  0.00  0.00     0.013 A 
ATOM      5  C   UNL d   1      33.200  20.472 -22.490  0.00  0.00     0.103 A 
ATOM      6  C   UNL d   1      33.200  21.325 -22.533  0.00  0.00     0.023 A 
ATOM      7  O   UNL d   1      33.140  20.197 -20.284  0.00  0.00    -0.259 OA
ATOM      8  C   UNL d   1      33.220  20.029 -23.182  0.00  0.00     0.023 A 
ATOM      9  C   UNL d   1      33.220  21.702 -23.266  0.00  0.00     0.002 A 
ATOM     10  C   UNL d   1      33.240  21.231 -23.968  0.00  0.00     0.000 A 
ATOM     11  C   UNL d   1      33.240  20.427 -23.928  0.00  0.00     0.002 A 
ENDROOT
BRANCH   1  12
ATOM     12  C   UNL d   1      33.140  21.767 -20.368  0.00  0.00     0.305 C 
ATOM     13  O   UNL d   1      33.168  21.333 -19.650  0.00  0.00    -0.259 OA
BRANCH  12  14
ATOM     14  O   UNL d   1      33.091  22.600 -20.306  0.00  0.00    -0.271 OA
BRANCH  14  15
ATOM     15  C   UNL d   1      32.865  22.958 -19.577  0.00  0.00     0.126 C 
ATOM     16  C   UNL d   1      33.218  23.669 -19.359  0.00  0.00     0.029 C 
ENDBRANCH  14  15
ENDBRANCH  12  14
ENDBRANCH   1  12
BRANCH   8  17
ATOM     17  C   UNL d   1      33.220  19.209 -23.141  0.00  0.00     0.002 C 
BRANCH  17  18
ATOM     18  C   UNL d   1      32.913  18.757 -23.775  0.00  0.00     0.000 C 
ATOM     19  C   UNL d   1      32.820  17.946 -23.695  0.00  0.00     0.000 C 
ENDBRANCH  17  18
ENDBRANCH   8  17
TORSDOF 5
ENDMDL
MODEL 9
REMARK VINA RESULT:      -0.5      1.283      2.442
REMARK  5 active torsions:
REMARK  status: ('A' for Active; 'I' for Inactive)
REMARK    1  A    between atoms: C_7  and  C_1 
REMARK    2  A    between atoms: O_13  and  C_7 
REMARK    3  A    between atoms: C_15  and  C_9 
REMARK    4  A    between atoms: C_11  and  C_15 
REMARK    5  A    between atoms: C_18  and  O_13 
ROOT
ATOM      1  C   UNL d   1      31.973  17.770 -23.677  0.00  0.00     0.127 A 
ATOM      2  C   UNL d   1      32.129  18.207 -24.335  0.00  0.00     0.305 A 
ATOM      3  O   UNL d   1      32.492  18.967 -24.276  0.00  0.00    -0.273 OA
ATOM      4  C   UNL d   1      32.167  18.058 -22.908  0.00  0.00     0.013 A 
ATOM      5  C   UNL d   1      32.692  19.271 -23.528  0.00  0.00     0.103 A 
ATOM      6  C   UNL d   1      32.527  18.807 -22.830  0.00  0.00     0.023 A 
ATOM      7  O   UNL d   1      31.923  17.895 -25.097  0.00  0.00    -0.259 OA
ATOM      8  C   UNL d   1      33.046  20.009 -23.453  0.00  0.00     0.023 A 
ATOM      9  C   UNL d   1      32.722  19.100 -22.084  0.00  0.00     0.002 A 
ATOM     10  C   UNL d   1      33.085  19.861 -22.025  0.00  0.00     0.000 A 
ATOM     11  C   UNL d   1      33.241  20.298 -22.683  0.00  0.00     0.002 A 
ENDROOT
BRANCH   1  12
ATOM     12  C   UNL d   1      31.621  17.044 -23.809  0.00  0.00     0.305 C 
ATOM     13  O   UNL d   1      32.092  16.353 -23.877  0.00  0.00    -0.259 OA
BRANCH  12  14
ATOM     14  O   UNL d   1      30.793  16.947 -23.880  0.00  0.00    -0.271 OA
BRANCH  14  15
ATOM     15  C   UNL d   1      30.442  16.193 -23.746  0.00  0.00     0.126 C 
ATOM     16  C   UNL d   1      29.718  16.156 -23.356  0.00  0.00     0.029 C 
ENDBRANCH  14  15
ENDBRANCH  12  14
ENDBRANCH   1  12
BRANCH   8  17
ATOM     17  C   UNL d   1      33.205  20.455 -24.124  0.00  0.00     0.002 C 
BRANCH  17  18
ATOM     18  C   UNL d   1      33.096  21.285 -24.111  0.00  0.00     0.000 C 
ATOM     19  C   UNL d   1      33.234  21.728 -24.788  0.00  0.00     0.000 C 
ENDBRANCH  17  18
ENDBRANCH   8  17
TORSDOF 5
ENDMDL
