MODEL 1
REMARK VINA RESULT:      40.2      0.000      0.000
REMARK  5 active torsions:
REMARK  status: ('A' for Active; 'I' for Inactive)
REMARK    1  A    between atoms: C_7  and  C_3 
REMARK    2  A    between atoms: C_8  and  C_7 
REMARK       I    between atoms: N_14  and  C_8 
REMARK    3  A    between atoms: N_9  and  C_16 
REMARK    4  A    between atoms: C_15  and  N_14 
REMARK    5  A    between atoms: C_16  and  C_15 
ROOT
ATOM      1  C   UNL d   1      60.619  49.298  50.968  0.00  0.00     0.281 C 
ATOM      2  O   UNL d   1      60.428  49.695  51.666  0.00  0.00    -0.265 OA
ATOM      3  N   UNL d   1      60.095  49.305  50.333  0.00  0.00    -0.205 NA
ENDROOT
BRANCH   1   4
ATOM      4  C   UNL d   1      61.334  48.896  50.906  0.00  0.00     0.082 C 
BRANCH   4   5
ATOM      5  C   UNL d   1      61.339  48.079  50.775  0.00  0.00     0.096 A 
ATOM      6  C   UNL d   1      61.072  47.567  51.363  0.00  0.00     0.082 A 
ATOM      7  C   UNL d   1      61.072  46.745  51.243  0.00  0.00     0.285 A 
ATOM      8  N   UNL d   1      61.348  46.456  50.521  0.00  0.00    -0.152 NA
ATOM      9  O   UNL d   1      60.808  46.238  51.826  0.00  0.00    -0.265 OA
ATOM     10  C   UNL d   1      61.615  46.969  49.932  0.00  0.00     0.371 A 
ATOM     11  N   UNL d   1      61.610  47.776  50.061  0.00  0.00    -0.191 NA
ATOM     12  O   UNL d   1      61.887  46.665  49.214  0.00  0.00    -0.242 OA
ENDBRANCH   4   5
ENDBRANCH   1   4
BRANCH   3  13
ATOM     13  C   UNL d   1      59.380  49.708  50.396  0.00  0.00     0.121 C 
BRANCH  13  14
ATOM     14  C   UNL d   1      58.830  49.681  49.774  0.00  0.00     0.101 C 
BRANCH  14  15
ATOM     15  N   UNL d   1      58.022  49.690  49.922  0.00  0.00    -0.298 N 
ATOM     16  C   UNL d   1      57.507  49.699  49.278  0.00  0.00     0.107 A 
ATOM     17  C   UNL d   1      56.686  49.707  49.421  0.00  0.00     0.142 A 
ATOM     18  O   UNL d   1      56.401  49.707  50.190  0.00  0.00    -0.300 OA
ATOM     19  C   UNL d   1      56.933  49.698  50.821  0.00  0.00     0.142 A 
ATOM     20  C   UNL d   1      57.743  49.689  50.683  0.00  0.00     0.107 A 
ENDBRANCH  14  15
ENDBRANCH  13  14
ENDBRANCH   3  13
TORSDOF 5
ENDMDL
MODEL 2
REMARK VINA RESULT:      40.8      0.790      1.319
REMARK  5 active torsions:
REMARK  status: ('A' for Active; 'I' for Inactive)
REMARK    1  A    between atoms: C_7  and  C_3 
REMARK    2  A    between atoms: C_8  and  C_7 
REMARK       I    between atoms: N_14  and  C_8 
REMARK    3  A    between atoms: N_9  and  C_16 
REMARK    4  A    between atoms: C_15  and  N_14 
REMARK    5  A    between atoms: C_16  and  C_15 
ROOT
ATOM      1  C   UNL d   1      60.208  49.365  50.527  0.00  0.00     0.281 C 
ATOM      2  O   UNL d   1      60.163  49.691  49.771  0.00  0.00    -0.265 OA
ATOM      3  N   UNL d   1      59.548  49.373  51.019  0.00  0.00    -0.205 NA
ENDROOT
BRANCH   1   4
ATOM      4  C   UNL d   1      60.912  49.031  50.791  0.00  0.00     0.082 C 
BRANCH   4   5
ATOM      5  C   UNL d   1      61.042  48.219  50.707  0.00  0.00     0.096 A 
ATOM      6  C   UNL d   1      61.656  47.948  50.228  0.00  0.00     0.082 A 
ATOM      7  C   UNL d   1      61.797  47.135  50.136  0.00  0.00     0.285 A 
ATOM      8  N   UNL d   1      61.306  46.606  50.537  0.00  0.00    -0.152 NA
ATOM      9  O   UNL d   1      62.405  46.867  49.661  0.00  0.00    -0.265 OA
ATOM     10  C   UNL d   1      60.692  46.877  51.017  0.00  0.00     0.371 A 
ATOM     11  N   UNL d   1      60.563  47.679  51.100  0.00  0.00    -0.191 NA
ATOM     12  O   UNL d   1      60.209  46.336  51.412  0.00  0.00    -0.242 OA
ENDBRANCH   4   5
ENDBRANCH   1   4
BRANCH   3  13
ATOM     13  C   UNL d   1      58.843  49.707  50.756  0.00  0.00     0.121 C 
BRANCH  13  14
ATOM     14  C   UNL d   1      58.117  49.440  51.056  0.00  0.00     0.101 C 
BRANCH  14  15
ATOM     15  N   UNL d   1      57.428  49.498  50.613  0.00  0.00    -0.298 N 
ATOM     16  C   UNL d   1      57.479  49.395  49.796  0.00  0.00     0.107 A 
ATOM     17  C   UNL d   1      56.783  49.453  49.340  0.00  0.00     0.142 A 
ATOM     18  O   UNL d   1      56.064  49.608  49.703  0.00  0.00    -0.300 OA
ATOM     19  C   UNL d   1      56.035  49.707  50.521  0.00  0.00     0.142 A 
ATOM     20  C   UNL d   1      56.718  49.651  50.973  0.00  0.00     0.107 A 
ENDBRANCH  14  15
ENDBRANCH  13  14
ENDBRANCH   3  13
TORSDOF 5
ENDMDL
