MODEL 1
REMARK VINA RESULT:     -10.8      0.000      0.000
REMARK  0 active torsions:
REMARK  status: ('A' for Active; 'I' for Inactive)
ROOT
ATOM      1  C   UNL d   1      53.331  32.460  53.997  0.00  0.00     0.138 A 
ATOM      2  C   UNL d   1      52.875  32.551  53.315  0.00  0.00     0.102 A 
ATOM      3  N   UNL d   1      53.580  31.706  54.229  0.00  0.00    -0.239 NA
ATOM      4  C   UNL d   1      53.538  33.112  54.446  0.00  0.00     0.214 A 
ATOM      5  N   UNL d   1      52.668  31.890  52.866  0.00  0.00    -0.242 NA
ATOM      6  C   UNL d   1      52.833  33.957  53.532  0.00  0.00     0.022 A 
ATOM      7  C   UNL d   1      53.289  33.865  54.214  0.00  0.00     0.042 A 
ATOM      8  C   UNL d   1      53.373  31.039  53.778  0.00  0.00     0.099 A 
ATOM      9  C   UNL d   1      52.917  31.131  53.096  0.00  0.00     0.099 A 
ATOM     10  O   UNL d   1      53.994  33.021  55.127  0.00  0.00    -0.285 OA
ATOM     11  C   UNL d   1      52.585  34.701  53.300  0.00  0.00     0.002 A 
ATOM     12  C   UNL d   1      53.497  34.518  54.663  0.00  0.00     0.003 A 
ATOM     13  C   UNL d   1      52.718  30.482  52.661  0.00  0.00     0.021 A 
ATOM     14  C   UNL d   1      53.625  30.300  54.016  0.00  0.00     0.021 A 
ATOM     15  C   UNL d   1      52.792  35.348  53.747  0.00  0.00     0.000 A 
ATOM     16  C   UNL d   1      53.248  35.256  54.428  0.00  0.00     0.000 A 
ATOM     17  C   UNL d   1      52.959  29.704  52.876  0.00  0.00     0.002 A 
ATOM     18  C   UNL d   1      53.415  29.613  53.558  0.00  0.00     0.002 A 
ENDROOT
TORSDOF 0
ENDMDL
MODEL 2
REMARK VINA RESULT:     -10.8      0.968      3.943
REMARK  0 active torsions:
REMARK  status: ('A' for Active; 'I' for Inactive)
ROOT
ATOM      1  C   UNL d   1      52.955  32.471  53.437  0.00  0.00     0.138 A 
ATOM      2  C   UNL d   1      53.332  32.378  54.165  0.00  0.00     0.102 A 
ATOM      3  N   UNL d   1      52.748  33.226  53.173  0.00  0.00    -0.239 NA
ATOM      4  C   UNL d   1      52.785  31.818  52.973  0.00  0.00     0.214 A 
ATOM      5  N   UNL d   1      53.501  33.040  54.629  0.00  0.00    -0.242 NA
ATOM      6  C   UNL d   1      53.370  30.969  53.965  0.00  0.00     0.022 A 
ATOM      7  C   UNL d   1      52.993  31.062  53.237  0.00  0.00     0.042 A 
ATOM      8  C   UNL d   1      52.917  33.894  53.639  0.00  0.00     0.099 A 
ATOM      9  C   UNL d   1      53.294  33.801  54.367  0.00  0.00     0.099 A 
ATOM     10  O   UNL d   1      52.409  31.911  52.245  0.00  0.00    -0.285 OA
ATOM     11  C   UNL d   1      53.576  30.223  54.230  0.00  0.00     0.002 A 
ATOM     12  C   UNL d   1      52.823  30.409  52.774  0.00  0.00     0.003 A 
ATOM     13  C   UNL d   1      53.457  34.450  54.816  0.00  0.00     0.021 A 
ATOM     14  C   UNL d   1      52.708  34.635  53.369  0.00  0.00     0.021 A 
ATOM     15  C   UNL d   1      53.407  29.576  53.768  0.00  0.00     0.000 A 
ATOM     16  C   UNL d   1      53.030  29.669  53.040  0.00  0.00     0.000 A 
ATOM     17  C   UNL d   1      53.256  35.230  54.570  0.00  0.00     0.002 A 
ATOM     18  C   UNL d   1      52.879  35.323  53.842  0.00  0.00     0.002 A 
ENDROOT
TORSDOF 0
ENDMDL
MODEL 3
REMARK VINA RESULT:     -10.6      0.821      1.441
REMARK  0 active torsions:
REMARK  status: ('A' for Active; 'I' for Inactive)
ROOT
ATOM      1  C   UNL d   1      52.845  32.500  53.291  0.00  0.00     0.138 A 
ATOM      2  C   UNL d   1      53.300  32.437  53.976  0.00  0.00     0.102 A 
ATOM      3  N   UNL d   1      52.652  31.821  52.860  0.00  0.00    -0.239 NA
ATOM      4  C   UNL d   1      52.583  33.232  53.035  0.00  0.00     0.214 A 
ATOM      5  N   UNL d   1      53.562  31.696  54.231  0.00  0.00    -0.242 NA
ATOM      6  C   UNL d   1      53.231  33.848  54.151  0.00  0.00     0.022 A 
ATOM      7  C   UNL d   1      52.775  33.910  53.466  0.00  0.00     0.042 A 
ATOM      8  C   UNL d   1      52.915  31.074  53.115  0.00  0.00     0.099 A 
ATOM      9  C   UNL d   1      53.370  31.012  53.800  0.00  0.00     0.099 A 
ATOM     10  O   UNL d   1      52.127  33.294  52.349  0.00  0.00    -0.285 OA
ATOM     11  C   UNL d   1      53.423  34.517  54.580  0.00  0.00     0.002 A 
ATOM     12  C   UNL d   1      52.513  34.642  53.209  0.00  0.00     0.003 A 
ATOM     13  C   UNL d   1      53.623  30.287  54.044  0.00  0.00     0.021 A 
ATOM     14  C   UNL d   1      52.718  30.411  52.681  0.00  0.00     0.021 A 
ATOM     15  C   UNL d   1      53.162  35.243  54.323  0.00  0.00     0.000 A 
ATOM     16  C   UNL d   1      52.707  35.306  53.638  0.00  0.00     0.000 A 
ATOM     17  C   UNL d   1      53.440  29.580  53.623  0.00  0.00     0.002 A 
ATOM     18  C   UNL d   1      52.985  29.643  52.938  0.00  0.00     0.002 A 
ENDROOT
TORSDOF 0
ENDMDL
MODEL 4
REMARK VINA RESULT:      -9.4      2.134      3.131
REMARK  0 active torsions:
REMARK  status: ('A' for Active; 'I' for Inactive)
ROOT
ATOM      1  C   UNL d   1      52.562  33.632  53.328  0.00  0.00     0.138 A 
ATOM      2  C   UNL d   1      52.364  34.160  53.930  0.00  0.00     0.102 A 
ATOM      3  N   UNL d   1      53.288  33.237  53.347  0.00  0.00    -0.239 NA
ATOM      4  C   UNL d   1      52.042  33.497  52.710  0.00  0.00     0.214 A 
ATOM      5  N   UNL d   1      52.893  34.293  54.552  0.00  0.00    -0.242 NA
ATOM      6  C   UNL d   1      51.119  34.421  53.294  0.00  0.00     0.022 A 
ATOM      7  C   UNL d   1      51.316  33.893  52.691  0.00  0.00     0.042 A 
ATOM      8  C   UNL d   1      53.821  33.369  53.972  0.00  0.00     0.099 A 
ATOM      9  C   UNL d   1      53.623  33.897  54.574  0.00  0.00     0.099 A 
ATOM     10  O   UNL d   1      52.239  32.969  52.108  0.00  0.00    -0.285 OA
ATOM     11  C   UNL d   1      50.401  34.814  53.278  0.00  0.00     0.002 A 
ATOM     12  C   UNL d   1      50.796  33.758  52.074  0.00  0.00     0.003 A 
ATOM     13  C   UNL d   1      54.142  34.023  55.177  0.00  0.00     0.021 A 
ATOM     14  C   UNL d   1      54.534  32.973  53.980  0.00  0.00     0.021 A 
ATOM     15  C   UNL d   1      49.886  34.678  52.664  0.00  0.00     0.000 A 
ATOM     16  C   UNL d   1      50.084  34.150  52.061  0.00  0.00     0.000 A 
ATOM     17  C   UNL d   1      54.887  33.633  55.220  0.00  0.00     0.002 A 
ATOM     18  C   UNL d   1      55.085  33.105  54.618  0.00  0.00     0.002 A 
ENDROOT
TORSDOF 0
ENDMDL
MODEL 5
REMARK VINA RESULT:      -9.1      2.001      3.394
REMARK  0 active torsions:
REMARK  status: ('A' for Active; 'I' for Inactive)
ROOT
ATOM      1  C   UNL d   1      52.508  33.556  53.226  0.00  0.00     0.138 A 
ATOM      2  C   UNL d   1      52.333  34.099  53.822  0.00  0.00     0.102 A 
ATOM      3  N   UNL d   1      51.973  33.436  52.607  0.00  0.00    -0.239 NA
ATOM      4  C   UNL d   1      53.210  33.136  53.243  0.00  0.00     0.214 A 
ATOM      5  N   UNL d   1      51.624  34.521  53.800  0.00  0.00    -0.242 NA
ATOM      6  C   UNL d   1      53.571  33.799  54.457  0.00  0.00     0.022 A 
ATOM      7  C   UNL d   1      53.745  33.256  53.861  0.00  0.00     0.042 A 
ATOM      8  C   UNL d   1      51.258  33.860  52.583  0.00  0.00     0.099 A 
ATOM      9  C   UNL d   1      51.083  34.402  53.180  0.00  0.00     0.099 A 
ATOM     10  O   UNL d   1      53.385  32.593  52.646  0.00  0.00    -0.285 OA
ATOM     11  C   UNL d   1      54.098  33.921  55.071  0.00  0.00     0.002 A 
ATOM     12  C   UNL d   1      54.448  32.836  53.878  0.00  0.00     0.003 A 
ATOM     13  C   UNL d   1      50.389  34.811  53.154  0.00  0.00     0.021 A 
ATOM     14  C   UNL d   1      50.737  33.732  51.968  0.00  0.00     0.021 A 
ATOM     15  C   UNL d   1      54.795  33.502  55.086  0.00  0.00     0.000 A 
ATOM     16  C   UNL d   1      54.970  32.959  54.490  0.00  0.00     0.000 A 
ATOM     17  C   UNL d   1      49.827  34.707  52.535  0.00  0.00     0.002 A 
ATOM     18  C   UNL d   1      50.002  34.164  51.939  0.00  0.00     0.002 A 
ENDROOT
TORSDOF 0
ENDMDL
