MODEL 1
REMARK VINA RESULT:      -4.2      0.000      0.000
REMARK  4 active torsions:
REMARK  status: ('A' for Active; 'I' for Inactive)
REMARK    1  A    between atoms: C_6  and  N_1 
REMARK    2  A    between atoms: N_8  and  C_4 
REMARK    3  A    between atoms: N_7  and  C_10 
REMARK    4  A    between atoms: C_16  and  N_8 
ROOT
ATOM      1  N   UNL d   1      56.753   0.313  32.543  0.00  0.00    -0.238 N 
ATOM      2  C   UNL d   1      57.539   0.526  32.775  0.00  0.00     0.269 A 
ATOM      3  C   UNL d   1      56.704   0.343  31.729  0.00  0.00     0.285 A 
ATOM      4  C   UNL d   1      57.462   0.577  31.430  0.00  0.00     0.142 A 
ATOM      5  C   UNL d   1      57.943   0.679  32.086  0.00  0.00     0.085 A 
ATOM      6  O   UNL d   1      57.855   0.576  33.525  0.00  0.00    -0.267 OA
ATOM      7  O   UNL d   1      56.022   0.171  31.290  0.00  0.00    -0.265 OA
ENDROOT
BRANCH   4   8
ATOM      8  N   UNL d   1      57.682   0.682  30.652  0.00  0.00    -0.241 NA
BRANCH   8   9
ATOM      9  C   UNL d   1      58.173   0.138  30.288  0.00  0.00     0.082 A 
ATOM     10  C   UNL d   1      58.847   0.398  29.880  0.00  0.00     0.021 A 
ATOM     11  C   UNL d   1      59.355  -0.136  29.507  0.00  0.00     0.019 A 
ATOM     12  C   UNL d   1      59.179  -0.957  29.546  0.00  0.00     0.064 A 
ATOM     13  C   UNL d   1      58.505  -1.230  29.953  0.00  0.00     0.019 A 
ATOM     14  C   UNL d   1      58.005  -0.673  30.323  0.00  0.00     0.021 A 
BRANCH  12  15
ATOM     15  N   UNL d   1      59.671  -1.505  29.182  0.00  0.00    -0.300 N 
ATOM     16  C   UNL d   1      60.385  -1.257  28.869  0.00  0.00     0.107 A 
ATOM     17  C   UNL d   1      60.882  -1.795  28.504  0.00  0.00     0.142 A 
ATOM     18  O   UNL d   1      60.655  -2.591  28.455  0.00  0.00    -0.300 OA
ATOM     19  C   UNL d   1      59.929  -2.850  28.771  0.00  0.00     0.142 A 
ATOM     20  C   UNL d   1      59.443  -2.296  29.134  0.00  0.00     0.107 A 
ENDBRANCH  12  15
ENDBRANCH   8   9
ENDBRANCH   4   8
BRANCH   1  21
ATOM     21  C   UNL d   1      56.138   0.110  33.036  0.00  0.00     0.097 A 
ATOM     22  C   UNL d   1      56.047  -0.667  33.277  0.00  0.00     0.156 A 
ATOM     23  F   UNL d   1      56.568  -1.251  33.029  0.00  0.00    -0.203 F 
ATOM     24  C   UNL d   1      55.422  -0.875  33.778  0.00  0.00     0.031 A 
ATOM     25  C   UNL d   1      54.895  -0.300  34.033  0.00  0.00     0.002 A 
ATOM     26  C   UNL d   1      54.992   0.478  33.788  0.00  0.00     0.002 A 
ATOM     27  C   UNL d   1      55.616   0.682  33.288  0.00  0.00     0.020 A 
ENDBRANCH   1  21
TORSDOF 4
ENDMDL
MODEL 2
REMARK VINA RESULT:      -3.7      1.424      5.309
REMARK  4 active torsions:
REMARK  status: ('A' for Active; 'I' for Inactive)
REMARK    1  A    between atoms: C_6  and  N_1 
REMARK    2  A    between atoms: N_8  and  C_4 
REMARK    3  A    between atoms: N_7  and  C_10 
REMARK    4  A    between atoms: C_16  and  N_8 
ROOT
ATOM      1  N   UNL d   1      59.214  -0.874  29.467  0.00  0.00    -0.238 N 
ATOM      2  C   UNL d   1      58.443  -0.732  29.148  0.00  0.00     0.269 A 
ATOM      3  C   UNL d   1      59.316  -0.398  30.123  0.00  0.00     0.285 A 
ATOM      4  C   UNL d   1      58.608   0.056  30.230  0.00  0.00     0.142 A 
ATOM      5  C   UNL d   1      58.101  -0.169  29.625  0.00  0.00     0.085 A 
ATOM      6  O   UNL d   1      58.087  -1.073  28.498  0.00  0.00    -0.267 OA
ATOM      7  O   UNL d   1      60.001  -0.377  30.589  0.00  0.00    -0.265 OA
ENDROOT
BRANCH   4   8
ATOM      8  N   UNL d   1      58.450   0.606  30.809  0.00  0.00    -0.241 NA
BRANCH   8   9
ATOM      9  C   UNL d   1      57.845   0.474  31.345  0.00  0.00     0.082 A 
ATOM     10  C   UNL d   1      58.021   0.368  32.149  0.00  0.00     0.021 A 
ATOM     11  C   UNL d   1      57.425   0.233  32.705  0.00  0.00     0.019 A 
ATOM     12  C   UNL d   1      56.627   0.205  32.442  0.00  0.00     0.064 A 
ATOM     13  C   UNL d   1      56.438   0.311  31.638  0.00  0.00     0.019 A 
ATOM     14  C   UNL d   1      57.056   0.446  31.093  0.00  0.00     0.021 A 
BRANCH  12  15
ATOM     15  N   UNL d   1      56.018   0.073  32.978  0.00  0.00    -0.300 N 
ATOM     16  C   UNL d   1      55.826   0.655  33.518  0.00  0.00     0.107 A 
ATOM     17  C   UNL d   1      55.221   0.533  34.057  0.00  0.00     0.142 A 
ATOM     18  O   UNL d   1      54.808  -0.185  34.047  0.00  0.00    -0.300 OA
ATOM     19  C   UNL d   1      54.998  -0.783  33.500  0.00  0.00     0.142 A 
ATOM     20  C   UNL d   1      55.608  -0.643  32.968  0.00  0.00     0.107 A 
ENDBRANCH  12  15
ENDBRANCH   8   9
ENDBRANCH   4   8
BRANCH   1  21
ATOM     21  C   UNL d   1      59.771  -1.394  29.182  0.00  0.00     0.097 A 
ATOM     22  C   UNL d   1      59.697  -2.195  29.331  0.00  0.00     0.156 A 
ATOM     23  F   UNL d   1      59.066  -2.488  29.767  0.00  0.00    -0.203 F 
ATOM     24  C   UNL d   1      60.263  -2.725  29.041  0.00  0.00     0.031 A 
ATOM     25  C   UNL d   1      60.898  -2.444  28.604  0.00  0.00     0.002 A 
ATOM     26  C   UNL d   1      60.967  -1.638  28.458  0.00  0.00     0.002 A 
ATOM     27  C   UNL d   1      60.401  -1.113  28.748  0.00  0.00     0.020 A 
ENDBRANCH   1  21
TORSDOF 4
ENDMDL
MODEL 3
REMARK VINA RESULT:      -2.1      1.412      1.674
REMARK  4 active torsions:
REMARK  status: ('A' for Active; 'I' for Inactive)
REMARK    1  A    between atoms: C_6  and  N_1 
REMARK    2  A    between atoms: N_8  and  C_4 
REMARK    3  A    between atoms: N_7  and  C_10 
REMARK    4  A    between atoms: C_16  and  N_8 
ROOT
ATOM      1  N   UNL d   1      56.088  -0.383  33.136  0.00  0.00    -0.238 N 
ATOM      2  C   UNL d   1      56.572  -1.071  33.049  0.00  0.00     0.269 A 
ATOM      3  C   UNL d   1      56.028  -0.013  32.411  0.00  0.00     0.285 A 
ATOM      4  C   UNL d   1      56.475  -0.463  31.850  0.00  0.00     0.142 A 
ATOM      5  C   UNL d   1      56.791  -1.096  32.266  0.00  0.00     0.085 A 
ATOM      6  O   UNL d   1      56.792  -1.617  33.613  0.00  0.00    -0.267 OA
ATOM      7  O   UNL d   1      55.598   0.682  32.269  0.00  0.00    -0.265 OA
ENDROOT
BRANCH   4   8
ATOM      8  N   UNL d   1      56.578  -0.312  31.055  0.00  0.00    -0.241 NA
BRANCH   8   9
ATOM      9  C   UNL d   1      57.333  -0.276  30.741  0.00  0.00     0.082 A 
ATOM     10  C   UNL d   1      57.741   0.447  30.728  0.00  0.00     0.021 A 
ATOM     11  C   UNL d   1      58.504   0.504  30.415  0.00  0.00     0.019 A 
ATOM     12  C   UNL d   1      58.866  -0.189  30.105  0.00  0.00     0.064 A 
ATOM     13  C   UNL d   1      58.466  -0.920  30.113  0.00  0.00     0.019 A 
ATOM     14  C   UNL d   1      57.696  -0.955  30.434  0.00  0.00     0.021 A 
BRANCH  12  15
ATOM     15  N   UNL d   1      59.624  -0.155  29.789  0.00  0.00    -0.300 N 
ATOM     16  C   UNL d   1      59.726   0.105  29.021  0.00  0.00     0.107 A 
ATOM     17  C   UNL d   1      60.477   0.143  28.696  0.00  0.00     0.142 A 
ATOM     18  O   UNL d   1      61.129  -0.084  29.155  0.00  0.00    -0.300 OA
ATOM     19  C   UNL d   1      61.033  -0.350  29.938  0.00  0.00     0.142 A 
ATOM     20  C   UNL d   1      60.272  -0.381  30.246  0.00  0.00     0.107 A 
ENDBRANCH  12  15
ENDBRANCH   8   9
ENDBRANCH   4   8
BRANCH   1  21
ATOM     21  C   UNL d   1      55.734  -0.119  33.821  0.00  0.00     0.097 A 
ATOM     22  C   UNL d   1      56.137   0.388  34.320  0.00  0.00     0.156 A 
ATOM     23  F   UNL d   1      56.899   0.640  34.143  0.00  0.00    -0.203 F 
ATOM     24  C   UNL d   1      55.779   0.657  35.016  0.00  0.00     0.031 A 
ATOM     25  C   UNL d   1      55.019   0.412  35.203  0.00  0.00     0.002 A 
ATOM     26  C   UNL d   1      54.619  -0.097  34.698  0.00  0.00     0.002 A 
ATOM     27  C   UNL d   1      54.979  -0.363  34.005  0.00  0.00     0.020 A 
ENDBRANCH   1  21
TORSDOF 4
ENDMDL
