MODEL 1
REMARK VINA RESULT:       0.2      0.000      0.000
REMARK  5 active torsions:
REMARK  status: ('A' for Active; 'I' for Inactive)
REMARK    1  A    between atoms: C_14  and  N_4 
REMARK    2  A    between atoms: C_15  and  C_9 
REMARK    3  A    between atoms: O_18  and  C_12 
REMARK    4  A    between atoms: O_19  and  C_13 
REMARK    5  A    between atoms: C_16  and  C_14 
ROOT
ATOM      1  C   UNL d   1      32.919  20.889 -21.929  0.00  0.00     0.056 A 
ATOM      2  C   UNL d   1      32.847  20.880 -21.101  0.00  0.00     0.107 A 
ATOM      3  C   UNL d   1      32.905  21.580 -20.674  0.00  0.00     0.038 A 
ATOM      4  N   UNL d   1      33.109  22.308 -21.886  0.00  0.00    -0.304 N 
ATOM      5  N   UNL d   1      32.721  20.100 -20.873  0.00  0.00    -0.148 NA
ATOM      6  C   UNL d   1      33.050  21.603 -22.321  0.00  0.00     0.083 A 
ATOM      7  N   UNL d   1      32.715  19.631 -21.552  0.00  0.00    -0.148 NA
ATOM      8  C   UNL d   1      33.036  22.294 -21.066  0.00  0.00     0.068 A 
ATOM      9  C   UNL d   1      32.837  20.111 -22.206  0.00  0.00     0.106 A 
ATOM     10  C   UNL d   1      33.095  22.996 -20.638  0.00  0.00     0.044 A 
ATOM     11  C   UNL d   1      32.832  21.568 -19.854  0.00  0.00     0.029 A 
ATOM     12  C   UNL d   1      33.022  22.982 -19.818  0.00  0.00     0.118 A 
ATOM     13  C   UNL d   1      32.891  22.268 -19.426  0.00  0.00     0.116 A 
ENDROOT
BRANCH   4  14
ATOM     14  C   UNL d   1      33.240  23.022 -22.278  0.00  0.00     0.080 C 
BRANCH  14  15
ATOM     15  C   UNL d   1      32.834  23.191 -22.974  0.00  0.00     0.018 A 
ATOM     16  C   UNL d   1      33.227  23.148 -23.707  0.00  0.00     0.004 A 
ATOM     17  C   UNL d   1      32.821  23.316 -24.403  0.00  0.00     0.030 A 
ATOM     18  C   UNL d   1      32.015  23.530 -24.379  0.00  0.00     0.140 A 
ATOM     19  C   UNL d   1      31.622  23.573 -23.645  0.00  0.00     0.030 A 
ATOM     20  F   UNL d   1      31.601  23.702 -25.085  0.00  0.00    -0.204 F 
ATOM     21  C   UNL d   1      32.031  23.403 -22.948  0.00  0.00     0.004 A 
ENDBRANCH  14  15
ENDBRANCH   4  14
BRANCH   9  22
ATOM     22  C   UNL d   1      32.858  19.783 -22.962  0.00  0.00     0.019 A 
ATOM     23  C   UNL d   1      33.222  20.192 -23.578  0.00  0.00     0.002 A 
ATOM     24  C   UNL d   1      33.241  19.859 -24.336  0.00  0.00     0.000 A 
ATOM     25  C   UNL d   1      32.895  19.118 -24.478  0.00  0.00     0.000 A 
ATOM     26  C   UNL d   1      32.531  18.714 -23.854  0.00  0.00     0.000 A 
ATOM     27  C   UNL d   1      32.513  19.044 -23.100  0.00  0.00     0.002 A 
ENDBRANCH   9  22
BRANCH  12  28
ATOM     28  O   UNL d   1      33.082  23.700 -19.385  0.00  0.00    -0.326 OA
ATOM     29  C   UNL d   1      33.241  23.678 -18.574  0.00  0.00     0.181 C 
ENDBRANCH  12  28
BRANCH  13  30
ATOM     30  O   UNL d   1      32.818  22.262 -18.595  0.00  0.00    -0.326 OA
ATOM     31  C   UNL d   1      33.025  21.583 -18.169  0.00  0.00     0.181 C 
ENDBRANCH  13  30
TORSDOF 5
ENDMDL
