MODEL 1
REMARK VINA RESULT:      -3.9      0.000      0.000
REMARK  4 active torsions:
REMARK  status: ('A' for Active; 'I' for Inactive)
REMARK    1  A    between atoms: C_11  and  C_9 
REMARK       I    between atoms: N_17  and  C_11 
REMARK    2  A    between atoms: C_19  and  N_17 
REMARK    3  A    between atoms: C_20  and  C_19 
REMARK    4  A    between atoms: C_21  and  C_20 
ROOT
ATOM      1  C   UNL d   1      57.668  -0.607  30.956  0.00  0.00     0.081 A 
ATOM      2  C   UNL d   1      57.981   0.151  30.872  0.00  0.00     0.117 A 
ATOM      3  N   UNL d   1      58.470   0.323  30.227  0.00  0.00    -0.221 NA
ATOM      4  N   UNL d   1      58.328  -1.015  29.760  0.00  0.00    -0.258 N 
ATOM      5  C   UNL d   1      58.645  -0.259  29.670  0.00  0.00     0.151 A 
ATOM      6  C   UNL d   1      57.838  -1.200  30.401  0.00  0.00     0.268 A 
ATOM      7  C   UNL d   1      57.206  -0.618  31.642  0.00  0.00     0.018 A 
ATOM      8  S   UNL d   1      57.714   0.602  31.502  0.00  0.00    -0.063 SA
ATOM      9  C   UNL d   1      57.236   0.131  31.977  0.00  0.00     0.089 A 
ATOM     10  C   UNL d   1      59.125  -0.086  29.039  0.00  0.00     0.035 A 
ATOM     11  C   UNL d   1      58.499  -1.604  29.205  0.00  0.00     0.084 A 
ATOM     12  O   UNL d   1      57.526  -1.950  30.487  0.00  0.00    -0.267 OA
ATOM     13  C   UNL d   1      58.988  -1.417  28.569  0.00  0.00     0.019 A 
ATOM     14  C   UNL d   1      59.300  -0.659  28.486  0.00  0.00     0.004 A 
ATOM     15  C   UNL d   1      59.436   0.674  28.959  0.00  0.00     0.003 C 
ENDROOT
BRANCH   9  16
ATOM     16  C   UNL d   1      56.853   0.365  32.669  0.00  0.00     0.285 C 
ATOM     17  O   UNL d   1      57.290   0.527  33.348  0.00  0.00    -0.265 OA
ATOM     18  N   UNL d   1      56.033   0.436  32.683  0.00  0.00    -0.206 NA
BRANCH  18  19
ATOM     19  C   UNL d   1      55.649   0.670  33.376  0.00  0.00     0.102 C 
BRANCH  19  20
ATOM     20  C   UNL d   1      54.869   0.480  33.499  0.00  0.00     0.021 C 
BRANCH  20  21
ATOM     21  C   UNL d   1      54.515   0.610  34.242  0.00  0.00     0.002 C 
ATOM     22  C   UNL d   1      53.703   0.681  34.310  0.00  0.00     0.000 C 
ENDBRANCH  20  21
ENDBRANCH  19  20
ENDBRANCH  18  19
ENDBRANCH   9  16
TORSDOF 4
ENDMDL
MODEL 2
REMARK VINA RESULT:      -3.8      1.295      1.637
REMARK  4 active torsions:
REMARK  status: ('A' for Active; 'I' for Inactive)
REMARK    1  A    between atoms: C_11  and  C_9 
REMARK       I    between atoms: N_17  and  C_11 
REMARK    2  A    between atoms: C_19  and  N_17 
REMARK    3  A    between atoms: C_20  and  C_19 
REMARK    4  A    between atoms: C_21  and  C_20 
ROOT
ATOM      1  C   UNL d   1      58.537  -0.967  29.931  0.00  0.00     0.081 A 
ATOM      2  C   UNL d   1      58.913  -0.233  29.940  0.00  0.00     0.117 A 
ATOM      3  N   UNL d   1      59.649  -0.148  29.571  0.00  0.00    -0.221 NA
ATOM      4  N   UNL d   1      59.622  -1.520  29.192  0.00  0.00    -0.258 N 
ATOM      5  C   UNL d   1      60.004  -0.790  29.197  0.00  0.00     0.151 A 
ATOM      6  C   UNL d   1      58.886  -1.620  29.557  0.00  0.00     0.268 A 
ATOM      7  C   UNL d   1      57.819  -0.890  30.337  0.00  0.00     0.018 A 
ATOM      8  S   UNL d   1      58.432   0.289  30.348  0.00  0.00    -0.063 SA
ATOM      9  C   UNL d   1      57.758  -0.113  30.593  0.00  0.00     0.089 A 
ATOM     10  C   UNL d   1      60.727  -0.700  28.836  0.00  0.00     0.035 A 
ATOM     11  C   UNL d   1      59.974  -2.168  28.818  0.00  0.00     0.084 A 
ATOM     12  O   UNL d   1      58.510  -2.345  29.551  0.00  0.00    -0.267 OA
ATOM     13  C   UNL d   1      60.706  -2.066  28.455  0.00  0.00     0.019 A 
ATOM     14  C   UNL d   1      61.082  -1.333  28.464  0.00  0.00     0.004 A 
ATOM     15  C   UNL d   1      61.100   0.035  28.847  0.00  0.00     0.003 C 
ENDROOT
BRANCH   9  16
ATOM     16  C   UNL d   1      57.128   0.205  31.021  0.00  0.00     0.285 C 
ATOM     17  O   UNL d   1      56.572   0.682  30.646  0.00  0.00    -0.265 OA
ATOM     18  N   UNL d   1      57.054   0.045  31.826  0.00  0.00    -0.206 NA
BRANCH  18  19
ATOM     19  C   UNL d   1      56.424   0.363  32.254  0.00  0.00     0.102 C 
BRANCH  19  20
ATOM     20  C   UNL d   1      56.353   0.220  33.051  0.00  0.00     0.021 C 
BRANCH  20  21
ATOM     21  C   UNL d   1      55.619   0.000  33.377  0.00  0.00     0.002 C 
ATOM     22  C   UNL d   1      55.366   0.320  34.086  0.00  0.00     0.000 C 
ENDBRANCH  20  21
ENDBRANCH  19  20
ENDBRANCH  18  19
ENDBRANCH   9  16
TORSDOF 4
ENDMDL
MODEL 3
REMARK VINA RESULT:      -3.7      1.333      5.143
REMARK  4 active torsions:
REMARK  status: ('A' for Active; 'I' for Inactive)
REMARK    1  A    between atoms: C_11  and  C_9 
REMARK       I    between atoms: N_17  and  C_11 
REMARK    2  A    between atoms: C_19  and  N_17 
REMARK    3  A    between atoms: C_20  and  C_19 
REMARK    4  A    between atoms: C_21  and  C_20 
ROOT
ATOM      1  C   UNL d   1      57.209   0.657  32.706  0.00  0.00     0.081 A 
ATOM      2  C   UNL d   1      56.477   0.654  32.326  0.00  0.00     0.117 A 
ATOM      3  N   UNL d   1      55.783   0.658  32.777  0.00  0.00    -0.221 NA
ATOM      4  N   UNL d   1      56.556   0.670  33.972  0.00  0.00    -0.258 N 
ATOM      5  C   UNL d   1      55.821   0.666  33.600  0.00  0.00     0.151 A 
ATOM      6  C   UNL d   1      57.258   0.665  33.534  0.00  0.00     0.268 A 
ATOM      7  C   UNL d   1      57.797   0.652  32.124  0.00  0.00     0.018 A 
ATOM      8  S   UNL d   1      56.614   0.646  31.518  0.00  0.00    -0.063 SA
ATOM      9  C   UNL d   1      57.427   0.645  31.392  0.00  0.00     0.089 A 
ATOM     10  C   UNL d   1      55.137   0.670  34.038  0.00  0.00     0.035 A 
ATOM     11  C   UNL d   1      56.601   0.678  34.798  0.00  0.00     0.084 A 
ATOM     12  O   UNL d   1      57.985   0.669  33.907  0.00  0.00    -0.267 OA
ATOM     13  C   UNL d   1      55.901   0.682  35.233  0.00  0.00     0.019 A 
ATOM     14  C   UNL d   1      55.170   0.678  34.853  0.00  0.00     0.004 A 
ATOM     15  C   UNL d   1      54.407   0.667  33.654  0.00  0.00     0.003 C 
ENDROOT
BRANCH   9  16
ATOM     16  C   UNL d   1      57.807   0.637  30.660  0.00  0.00     0.285 C 
ATOM     17  O   UNL d   1      57.366   0.623  29.965  0.00  0.00    -0.265 OA
ATOM     18  N   UNL d   1      58.630   0.645  30.621  0.00  0.00    -0.206 NA
BRANCH  18  19
ATOM     19  C   UNL d   1      59.010   0.638  29.889  0.00  0.00     0.102 C 
BRANCH  19  20
ATOM     20  C   UNL d   1      59.759   0.331  29.817  0.00  0.00     0.021 C 
BRANCH  20  21
ATOM     21  C   UNL d   1      60.242   0.544  29.172  0.00  0.00     0.002 C 
ATOM     22  C   UNL d   1      60.850   0.054  28.927  0.00  0.00     0.000 C 
ENDBRANCH  20  21
ENDBRANCH  19  20
ENDBRANCH  18  19
ENDBRANCH   9  16
TORSDOF 4
ENDMDL
MODEL 4
REMARK VINA RESULT:      -3.2      1.326      4.764
REMARK  4 active torsions:
REMARK  status: ('A' for Active; 'I' for Inactive)
REMARK    1  A    between atoms: C_11  and  C_9 
REMARK       I    between atoms: N_17  and  C_11 
REMARK    2  A    between atoms: C_19  and  N_17 
REMARK    3  A    between atoms: C_20  and  C_19 
REMARK    4  A    between atoms: C_21  and  C_20 
ROOT
ATOM      1  C   UNL d   1      57.094  -0.624  31.455  0.00  0.00     0.081 A 
ATOM      2  C   UNL d   1      57.201   0.127  31.781  0.00  0.00     0.117 A 
ATOM      3  N   UNL d   1      56.853   0.309  32.509  0.00  0.00    -0.221 NA
ATOM      4  N   UNL d   1      56.299  -1.001  32.577  0.00  0.00    -0.258 N 
ATOM      5  C   UNL d   1      56.402  -0.254  32.908  0.00  0.00     0.151 A 
ATOM      6  C   UNL d   1      56.642  -1.197  31.849  0.00  0.00     0.268 A 
ATOM      7  C   UNL d   1      57.500  -0.648  30.734  0.00  0.00     0.018 A 
ATOM      8  S   UNL d   1      57.668   0.559  31.264  0.00  0.00    -0.063 SA
ATOM      9  C   UNL d   1      57.853   0.083  30.619  0.00  0.00     0.089 A 
ATOM     10  C   UNL d   1      56.062  -0.070  33.622  0.00  0.00     0.035 A 
ATOM     11  C   UNL d   1      55.848  -1.571  32.972  0.00  0.00     0.084 A 
ATOM     12  O   UNL d   1      56.538  -1.939  31.524  0.00  0.00    -0.267 OA
ATOM     13  C   UNL d   1      55.508  -1.373  33.696  0.00  0.00     0.019 A 
ATOM     14  C   UNL d   1      55.615  -0.624  34.021  0.00  0.00     0.004 A 
ATOM     15  C   UNL d   1      56.171   0.682  33.945  0.00  0.00     0.003 C 
ENDROOT
BRANCH   9  16
ATOM     16  C   UNL d   1      58.312   0.299  29.969  0.00  0.00     0.285 C 
ATOM     17  O   UNL d   1      57.964   0.671  29.323  0.00  0.00    -0.265 OA
ATOM     18  N   UNL d   1      59.121   0.144  29.965  0.00  0.00    -0.206 NA
BRANCH  18  19
ATOM     19  C   UNL d   1      59.581   0.360  29.315  0.00  0.00     0.102 C 
BRANCH  19  20
ATOM     20  C   UNL d   1      60.383   0.460  29.393  0.00  0.00     0.021 C 
BRANCH  20  21
ATOM     21  C   UNL d   1      60.887   0.357  28.737  0.00  0.00     0.002 C 
ATOM     22  C   UNL d   1      61.133  -0.391  28.513  0.00  0.00     0.000 C 
ENDBRANCH  20  21
ENDBRANCH  19  20
ENDBRANCH  18  19
ENDBRANCH   9  16
TORSDOF 4
ENDMDL
