MODEL 1
REMARK VINA RESULT:      -3.2      0.000      0.000
REMARK  7 active torsions:
REMARK  status: ('A' for Active; 'I' for Inactive)
REMARK    1  A    between atoms: C_7  and  N_2 
REMARK    2  A    between atoms: C_21  and  C_7 
REMARK    3  A    between atoms: C_8  and  C_19 
REMARK       I    between atoms: N_13  and  C_8 
REMARK    4  A    between atoms: C_9  and  C_20 
REMARK    5  A    between atoms: O_14  and  C_11 
REMARK    6  A    between atoms: C_20  and  N_13 
REMARK    7  A    between atoms: C_19  and  O_14 
ROOT
ATOM      1  C   UNL d   1      31.324  16.275 -24.113  0.00  0.00     0.265 A 
ATOM      2  N   UNL d   1      30.700  16.701 -24.454  0.00  0.00    -0.272 N 
ATOM      3  C   UNL d   1      31.963  16.695 -23.795  0.00  0.00     0.059 A 
ATOM      4  C   UNL d   1      31.976  17.519 -23.818  0.00  0.00     0.029 A 
ATOM      5  C   UNL d   1      31.354  17.933 -24.157  0.00  0.00     0.021 A 
ATOM      6  C   UNL d   1      30.713  17.525 -24.477  0.00  0.00     0.083 A 
ATOM      7  O   UNL d   1      31.312  15.458 -24.091  0.00  0.00    -0.267 OA
ATOM      8  C   UNL d   1      32.615  17.935 -23.500  0.00  0.00     0.100 A 
ATOM      9  C   UNL d   1      32.589  16.273 -23.454  0.00  0.00     0.005 A 
ATOM     10  C   UNL d   1      33.227  16.693 -23.137  0.00  0.00     0.002 A 
ATOM     11  C   UNL d   1      33.240  17.522 -23.159  0.00  0.00     0.025 A 
ENDROOT
BRANCH   8  12
ATOM     12  O   UNL d   1      32.628  18.756 -23.523  0.00  0.00    -0.300 OA
BRANCH  12  13
ATOM     13  C   UNL d   1      33.156  19.165 -23.036  0.00  0.00     0.185 C 
BRANCH  13  14
ATOM     14  C   UNL d   1      33.125  19.988 -22.991  0.00  0.00     0.304 C 
ATOM     15  N   UNL d   1      33.085  20.368 -22.259  0.00  0.00    -0.203 NA
ATOM     16  O   UNL d   1      33.135  20.438 -23.686  0.00  0.00    -0.263 OA
BRANCH  15  17
ATOM     17  C   UNL d   1      33.054  21.192 -22.227  0.00  0.00     0.127 C 
BRANCH  17  18
ATOM     18  C   UNL d   1      32.838  21.561 -21.529  0.00  0.00     0.119 A 
ATOM     19  O   UNL d   1      32.531  22.316 -21.448  0.00  0.00    -0.304 OA
ATOM     20  C   UNL d   1      32.394  22.462 -20.659  0.00  0.00     0.123 A 
ATOM     21  C   UNL d   1      32.617  21.793 -20.234  0.00  0.00     0.029 A 
ATOM     22  C   UNL d   1      32.892  21.236 -20.780  0.00  0.00     0.028 A 
ENDBRANCH  17  18
ENDBRANCH  15  17
ENDBRANCH  13  14
ENDBRANCH  12  13
ENDBRANCH   8  12
BRANCH   2  23
ATOM     23  C   UNL d   1      30.061  16.298 -24.773  0.00  0.00     0.083 C 
BRANCH  23  24
ATOM     24  C   UNL d   1      29.354  16.254 -24.358  0.00  0.00     0.018 A 
ATOM     25  C   UNL d   1      29.186  15.570 -23.918  0.00  0.00     0.002 A 
ATOM     26  C   UNL d   1      28.473  15.533 -23.505  0.00  0.00     0.007 A 
ATOM     27  C   UNL d   1      27.946  16.166 -23.533  0.00  0.00     0.035 A 
ATOM     28  C   UNL d   1      28.133  16.835 -23.976  0.00  0.00     0.007 A 
ATOM     29 BR   UNL d   1      27.240  16.119 -23.118  0.00  0.00    -0.049 Br
ATOM     30  C   UNL d   1      28.838  16.875 -24.387  0.00  0.00     0.002 A 
ENDBRANCH  23  24
ENDBRANCH   2  23
TORSDOF 7
ENDMDL
