MODEL 1
REMARK VINA RESULT:      27.1      0.000      0.000
REMARK  2 active torsions:
REMARK  status: ('A' for Active; 'I' for Inactive)
REMARK    1  A    between atoms: N_2  and  S_1 
REMARK    2  A    between atoms: C_4  and  S_1 
ROOT
ATOM      1  S   UNL d   1      45.881 -16.250  44.288  0.00  0.00     0.273 S 
ATOM      2  O   UNL d   1      45.315 -15.900  43.804  0.00  0.00    -0.200 OA
ATOM      3  O   UNL d   1      46.326 -15.782  44.801  0.00  0.00    -0.200 OA
ENDROOT
BRANCH   1   4
ATOM      4  N   UNL d   1      46.001 -17.066  44.260  0.00  0.00    -0.212 N 
ATOM      5  C   UNL d   1      45.917 -17.519  44.954  0.00  0.00     0.193 A 
ATOM      6  N   UNL d   1      46.038 -18.343  44.925  0.00  0.00    -0.223 NA
ATOM      7  C   UNL d   1      46.323 -18.252  43.519  0.00  0.00     0.100 A 
ATOM      8  C   UNL d   1      46.206 -17.436  43.536  0.00  0.00     0.094 A 
ATOM      9  C   UNL d   1      46.527 -18.618  42.797  0.00  0.00     0.021 A 
ATOM     10  C   UNL d   1      46.287 -16.983  42.854  0.00  0.00     0.020 A 
ATOM     11  C   UNL d   1      46.490 -17.346  42.138  0.00  0.00     0.002 A 
ATOM     12  C   UNL d   1      46.610 -18.165  42.110  0.00  0.00     0.002 A 
ENDBRANCH   1   4
BRANCH   1  13
ATOM     13  C   UNL d   1      45.753 -15.444  44.307  0.00  0.00     0.104 A 
ATOM     14  C   UNL d   1      45.024 -15.152  44.563  0.00  0.00     0.012 A 
ATOM     15  C   UNL d   1      44.887 -14.347  44.585  0.00  0.00     0.001 A 
ATOM     16  C   UNL d   1      44.436 -15.680  44.795  0.00  0.00     0.001 C 
ATOM     17  C   UNL d   1      45.482 -13.818  44.351  0.00  0.00     0.000 A 
ATOM     18  C   UNL d   1      46.212 -14.107  44.094  0.00  0.00     0.001 A 
ATOM     19  C   UNL d   1      45.346 -13.010  44.373  0.00  0.00     0.000 C 
ATOM     20  C   UNL d   1      46.341 -14.921  44.075  0.00  0.00     0.013 A 
ENDBRANCH   1  13
TORSDOF 2
ENDMDL
MODEL 2
REMARK VINA RESULT:      27.8      1.884      4.259
REMARK  2 active torsions:
REMARK  status: ('A' for Active; 'I' for Inactive)
REMARK    1  A    between atoms: N_2  and  S_1 
REMARK    2  A    between atoms: C_4  and  S_1 
ROOT
ATOM      1  S   UNL d   1      46.321 -18.783  42.777  0.00  0.00     0.273 S 
ATOM      2  O   UNL d   1      46.172 -19.549  42.513  0.00  0.00    -0.200 OA
ATOM      3  O   UNL d   1      46.555 -18.204  42.238  0.00  0.00    -0.200 OA
ENDROOT
BRANCH   1   4
ATOM      4  N   UNL d   1      46.237 -18.598  43.576  0.00  0.00    -0.212 N 
ATOM      5  C   UNL d   1      46.285 -19.203  44.146  0.00  0.00     0.193 A 
ATOM      6  N   UNL d   1      46.200 -19.017  44.954  0.00  0.00    -0.223 NA
ATOM      7  C   UNL d   1      46.022 -17.631  44.615  0.00  0.00     0.100 A 
ATOM      8  C   UNL d   1      46.105 -17.805  43.813  0.00  0.00     0.094 A 
ATOM      9  C   UNL d   1      45.890 -16.840  44.848  0.00  0.00     0.021 A 
ATOM     10  C   UNL d   1      46.059 -17.211  43.245  0.00  0.00     0.020 A 
ATOM     11  C   UNL d   1      45.928 -16.427  43.476  0.00  0.00     0.002 A 
ATOM     12  C   UNL d   1      45.844 -16.242  44.278  0.00  0.00     0.002 A 
ENDBRANCH   1   4
BRANCH   1  13
ATOM     13  C   UNL d   1      46.401 -18.978  41.988  0.00  0.00     0.104 A 
ATOM     14  C   UNL d   1      46.565 -19.760  41.775  0.00  0.00     0.012 A 
ATOM     15  C   UNL d   1      46.647 -19.964  40.988  0.00  0.00     0.001 A 
ATOM     16  C   UNL d   1      46.646 -20.330  42.363  0.00  0.00     0.001 C 
ATOM     17  C   UNL d   1      46.565 -19.386  40.399  0.00  0.00     0.000 A 
ATOM     18  C   UNL d   1      46.401 -18.604  40.608  0.00  0.00     0.001 A 
ATOM     19  C   UNL d   1      46.646 -19.590  39.609  0.00  0.00     0.000 C 
ATOM     20  C   UNL d   1      46.320 -18.407  41.405  0.00  0.00     0.013 A 
ENDBRANCH   1  13
TORSDOF 2
ENDMDL
