MODEL 1
REMARK VINA RESULT:      -5.7      0.000      0.000
REMARK  9 active torsions:
REMARK  status: ('A' for Active; 'I' for Inactive)
REMARK    1  A    between atoms: C_27  and  N_1 
REMARK    2  A    between atoms: S_11  and  C_2 
REMARK    3  A    between atoms: C_28  and  S_11 
REMARK    4  A    between atoms: C_18  and  C_28 
REMARK    5  A    between atoms: C_19  and  C_35 
REMARK       I    between atoms: N_23  and  C_19 
REMARK    6  A    between atoms: C_32  and  N_23 
REMARK    7  A    between atoms: C_34  and  C_27 
REMARK    8  A    between atoms: C_30  and  C_32 
REMARK    9  A    between atoms: C_35  and  C_34 
ROOT
ATOM      1  N   UNL d   1     -40.948  14.167  20.473  0.00  0.00    -0.253 N 
ATOM      2  C   UNL d   1     -40.178  14.213  20.762  0.00  0.00     0.182 A 
ATOM      3  C   UNL d   1     -41.086  14.240  19.656  0.00  0.00     0.268 A 
ATOM      4  C   UNL d   1     -40.457  14.357  19.135  0.00  0.00     0.076 A 
ATOM      5  N   UNL d   1     -39.558  14.330  20.229  0.00  0.00    -0.222 NA
ATOM      6  C   UNL d   1     -39.687  14.402  19.424  0.00  0.00     0.090 A 
ATOM      7  C   UNL d   1     -40.596  14.429  18.321  0.00  0.00     0.033 A 
ATOM      8  C   UNL d   1     -39.064  14.521  18.883  0.00  0.00     0.046 A 
ATOM      9  C   UNL d   1     -39.960  14.548  17.781  0.00  0.00     0.119 A 
ATOM     10  C   UNL d   1     -39.190  14.594  18.070  0.00  0.00     0.121 A 
ATOM     11  O   UNL d   1     -41.855  14.195  19.367  0.00  0.00    -0.267 OA
ATOM     12  O   UNL d   1     -39.919  14.640  16.946  0.00  0.00    -0.300 OA
ATOM     13  O   UNL d   1     -38.689  14.712  17.413  0.00  0.00    -0.299 OA
ATOM     14  C   UNL d   1     -39.131  14.742  16.714  0.00  0.00     0.304 A 
ENDROOT
BRANCH   1  15
ATOM     15  C   UNL d   1     -41.584  14.048  21.014  0.00  0.00     0.085 C 
BRANCH  15  16
ATOM     16  C   UNL d   1     -42.045  13.379  20.944  0.00  0.00     0.024 C 
BRANCH  16  17
ATOM     17  C   UNL d   1     -42.783  13.352  21.323  0.00  0.00     0.064 C 
BRANCH  17  18
ATOM     18  C   UNL d   1     -43.106  12.630  21.551  0.00  0.00     0.279 C 
ATOM     19  N   UNL d   1     -43.894  12.592  21.794  0.00  0.00    -0.206 NA
ATOM     20  O   UNL d   1     -42.647  11.950  21.538  0.00  0.00    -0.265 OA
BRANCH  19  21
ATOM     21  C   UNL d   1     -44.356  13.274  21.808  0.00  0.00     0.102 C 
BRANCH  21  22
ATOM     22  C   UNL d   1     -45.084  13.264  22.189  0.00  0.00     0.021 A 
ATOM     23  C   UNL d   1     -45.343  12.568  22.549  0.00  0.00     0.028 A 
ATOM     24  C   UNL d   1     -46.070  12.559  22.930  0.00  0.00     0.119 A 
ATOM     25  O   UNL d   1     -46.473  11.961  23.333  0.00  0.00    -0.300 OA
ATOM     26  C   UNL d   1     -46.537  13.237  22.952  0.00  0.00     0.119 A 
ATOM     27  C   UNL d   1     -47.185  12.275  23.601  0.00  0.00     0.304 A 
ATOM     28  O   UNL d   1     -47.226  13.063  23.366  0.00  0.00    -0.300 OA
ATOM     29  C   UNL d   1     -46.269  13.928  22.588  0.00  0.00     0.026 A 
ATOM     30  C   UNL d   1     -45.547  13.939  22.210  0.00  0.00     0.004 A 
ENDBRANCH  21  22
ENDBRANCH  19  21
ENDBRANCH  17  18
ENDBRANCH  16  17
ENDBRANCH  15  16
ENDBRANCH   1  15
BRANCH   2  31
ATOM     31  S   UNL d   1     -40.057  14.138  21.587  0.00  0.00    -0.044 SA
BRANCH  31  32
ATOM     32  C   UNL d   1     -39.284  14.187  21.890  0.00  0.00     0.102 C 
BRANCH  32  33
ATOM     33  C   UNL d   1     -39.158  14.103  22.703  0.00  0.00     0.303 C 
ATOM     34  O   UNL d   1     -39.145  13.351  23.038  0.00  0.00    -0.263 OA
ATOM     35  N   UNL d   1     -39.046  14.773  23.164  0.00  0.00    -0.102 N 
ENDBRANCH  32  33
ENDBRANCH  31  32
ENDBRANCH   2  31
TORSDOF 9
ENDMDL
MODEL 2
REMARK VINA RESULT:      -5.1      2.280      7.214
REMARK  9 active torsions:
REMARK  status: ('A' for Active; 'I' for Inactive)
REMARK    1  A    between atoms: C_27  and  N_1 
REMARK    2  A    between atoms: S_11  and  C_2 
REMARK    3  A    between atoms: C_28  and  S_11 
REMARK    4  A    between atoms: C_18  and  C_28 
REMARK    5  A    between atoms: C_19  and  C_35 
REMARK       I    between atoms: N_23  and  C_19 
REMARK    6  A    between atoms: C_32  and  N_23 
REMARK    7  A    between atoms: C_34  and  C_27 
REMARK    8  A    between atoms: C_30  and  C_32 
REMARK    9  A    between atoms: C_35  and  C_34 
ROOT
ATOM      1  N   UNL d   1     -45.853  13.363  22.710  0.00  0.00    -0.253 N 
ATOM      2  C   UNL d   1     -46.262  12.701  22.978  0.00  0.00     0.182 A 
ATOM      3  C   UNL d   1     -46.268  14.063  22.538  0.00  0.00     0.268 A 
ATOM      4  C   UNL d   1     -47.087  14.097  22.635  0.00  0.00     0.076 A 
ATOM      5  N   UNL d   1     -47.082  12.749  23.070  0.00  0.00    -0.222 NA
ATOM      6  C   UNL d   1     -47.497  13.435  22.902  0.00  0.00     0.090 A 
ATOM      7  C   UNL d   1     -47.499  14.795  22.463  0.00  0.00     0.033 A 
ATOM      8  C   UNL d   1     -48.324  13.488  22.994  0.00  0.00     0.046 A 
ATOM      9  C   UNL d   1     -48.336  14.839  22.558  0.00  0.00     0.119 A 
ATOM     10  C   UNL d   1     -48.746  14.178  22.826  0.00  0.00     0.121 A 
ATOM     11  O   UNL d   1     -45.858  14.725  22.270  0.00  0.00    -0.267 OA
ATOM     12  O   UNL d   1     -48.901  15.450  22.435  0.00  0.00    -0.300 OA
ATOM     13  O   UNL d   1     -49.553  14.388  22.864  0.00  0.00    -0.299 OA
ATOM     14  C   UNL d   1     -49.657  15.173  22.624  0.00  0.00     0.304 A 
ENDROOT
BRANCH   1  15
ATOM     15  C   UNL d   1     -45.016  13.318  22.615  0.00  0.00     0.085 C 
BRANCH  15  16
ATOM     16  C   UNL d   1     -44.703  13.269  21.864  0.00  0.00     0.024 C 
BRANCH  16  17
ATOM     17  C   UNL d   1     -43.895  13.421  21.749  0.00  0.00     0.064 C 
BRANCH  17  18
ATOM     18  C   UNL d   1     -43.479  13.029  21.157  0.00  0.00     0.279 C 
ATOM     19  N   UNL d   1     -42.728  13.293  20.939  0.00  0.00    -0.206 NA
ATOM     20  O   UNL d   1     -43.809  12.376  20.784  0.00  0.00    -0.265 OA
BRANCH  19  21
ATOM     21  C   UNL d   1     -42.396  13.948  21.313  0.00  0.00     0.102 C 
BRANCH  21  22
ATOM     22  C   UNL d   1     -41.648  14.207  21.091  0.00  0.00     0.021 A 
ATOM     23  C   UNL d   1     -41.561  14.957  20.759  0.00  0.00     0.028 A 
ATOM     24  C   UNL d   1     -40.814  15.215  20.538  0.00  0.00     0.119 A 
ATOM     25  O   UNL d   1     -40.553  15.922  20.199  0.00  0.00    -0.300 OA
ATOM     26  C   UNL d   1     -40.158  14.730  20.646  0.00  0.00     0.119 A 
ATOM     27  C   UNL d   1     -39.738  15.867  20.100  0.00  0.00     0.304 A 
ATOM     28  O   UNL d   1     -39.492  15.131  20.376  0.00  0.00    -0.300 OA
ATOM     29  C   UNL d   1     -40.254  13.980  20.979  0.00  0.00     0.026 A 
ATOM     30  C   UNL d   1     -40.996  13.723  21.199  0.00  0.00     0.004 A 
ENDBRANCH  21  22
ENDBRANCH  19  21
ENDBRANCH  17  18
ENDBRANCH  16  17
ENDBRANCH  15  16
ENDBRANCH   1  15
BRANCH   2  31
ATOM     31  S   UNL d   1     -45.829  12.005  23.146  0.00  0.00    -0.044 SA
BRANCH  31  32
ATOM     32  C   UNL d   1     -46.135  11.458  23.692  0.00  0.00     0.102 C 
BRANCH  32  33
ATOM     33  C   UNL d   1     -45.852  10.681  23.695  0.00  0.00     0.303 C 
ATOM     34  O   UNL d   1     -45.041  10.542  23.697  0.00  0.00    -0.263 OA
ATOM     35  N   UNL d   1     -46.387  10.058  23.697  0.00  0.00    -0.102 N 
ENDBRANCH  32  33
ENDBRANCH  31  32
ENDBRANCH   2  31
TORSDOF 9
ENDMDL
