MODEL 1
REMARK VINA RESULT:      -3.1      0.000      0.000
REMARK  1 active torsions:
REMARK  status: ('A' for Active; 'I' for Inactive)
REMARK    1  A    between atoms: C_7  and  C_1 
ROOT
ATOM      1  C   UNL d   1      29.507  16.593 -24.172  0.00  0.00     0.102 A 
ATOM      2  C   UNL d   1      29.544  17.307 -24.588  0.00  0.00     0.303 A 
ATOM      3  C   UNL d   1      30.196  16.288 -23.828  0.00  0.00     0.011 A 
ATOM      4  O   UNL d   1      30.269  17.716 -24.661  0.00  0.00    -0.273 OA
ATOM      5  C   UNL d   1      30.908  16.682 -23.896  0.00  0.00     0.023 A 
ATOM      6  C   UNL d   1      30.945  17.396 -24.312  0.00  0.00     0.103 A 
ATOM      7  O   UNL d   1      28.845  17.626 -24.942  0.00  0.00    -0.259 OA
ATOM      8  C   UNL d   1      31.584  16.375 -23.555  0.00  0.00     0.002 A 
ATOM      9  C   UNL d   1      31.658  17.804 -24.387  0.00  0.00     0.025 A 
ATOM     10  C   UNL d   1      32.292  16.769 -23.623  0.00  0.00     0.000 A 
ATOM     11  C   UNL d   1      32.328  17.483 -24.039  0.00  0.00     0.002 A 
ENDROOT
BRANCH   1  12
ATOM     12  C   UNL d   1      28.771  16.197 -24.109  0.00  0.00     0.201 C 
ATOM     13  O   UNL d   1      28.565  15.641 -24.686  0.00  0.00    -0.286 OA
ATOM     14  C   UNL d   1      28.257  16.352 -23.492  0.00  0.00     0.045 C 
ENDBRANCH   1  12
TORSDOF 1
ENDMDL
MODEL 2
REMARK VINA RESULT:      -3.0      1.368      3.076
REMARK  1 active torsions:
REMARK  status: ('A' for Active; 'I' for Inactive)
REMARK    1  A    between atoms: C_7  and  C_1 
ROOT
ATOM      1  C   UNL d   1      31.254  16.873 -24.067  0.00  0.00     0.102 A 
ATOM      2  C   UNL d   1      31.455  16.279 -23.528  0.00  0.00     0.303 A 
ATOM      3  C   UNL d   1      30.458  16.988 -24.266  0.00  0.00     0.011 A 
ATOM      4  O   UNL d   1      30.861  15.799 -23.187  0.00  0.00    -0.273 OA
ATOM      5  C   UNL d   1      29.872  16.523 -23.937  0.00  0.00     0.023 A 
ATOM      6  C   UNL d   1      30.074  15.929 -23.398  0.00  0.00     0.103 A 
ATOM      7  O   UNL d   1      32.266  16.155 -23.320  0.00  0.00    -0.259 OA
ATOM      8  C   UNL d   1      29.089  16.641 -24.137  0.00  0.00     0.002 A 
ATOM      9  C   UNL d   1      29.492  15.453 -23.058  0.00  0.00     0.025 A 
ATOM     10  C   UNL d   1      28.508  16.177 -23.808  0.00  0.00     0.000 A 
ATOM     11  C   UNL d   1      28.710  15.583 -23.269  0.00  0.00     0.002 A 
ENDROOT
BRANCH   1  12
ATOM     12  C   UNL d   1      31.862  17.344 -24.399  0.00  0.00     0.201 C 
ATOM     13  O   UNL d   1      32.228  17.092 -25.097  0.00  0.00    -0.286 OA
ATOM     14  C   UNL d   1      32.098  18.043 -24.046  0.00  0.00     0.045 C 
ENDBRANCH   1  12
TORSDOF 1
ENDMDL
MODEL 3
REMARK VINA RESULT:      -2.8      0.921      2.761
REMARK  1 active torsions:
REMARK  status: ('A' for Active; 'I' for Inactive)
REMARK    1  A    between atoms: C_7  and  C_1 
ROOT
ATOM      1  C   UNL d   1      31.216  16.761 -24.002  0.00  0.00     0.102 A 
ATOM      2  C   UNL d   1      30.769  17.326 -24.407  0.00  0.00     0.303 A 
ATOM      3  C   UNL d   1      30.828  16.151 -23.597  0.00  0.00     0.011 A 
ATOM      4  O   UNL d   1      29.934  17.283 -24.408  0.00  0.00    -0.273 OA
ATOM      5  C   UNL d   1      30.012  16.102 -23.594  0.00  0.00     0.023 A 
ATOM      6  C   UNL d   1      29.565  16.668 -23.999  0.00  0.00     0.103 A 
ATOM      7  O   UNL d   1      31.157  17.952 -24.823  0.00  0.00    -0.259 OA
ATOM      8  C   UNL d   1      29.636  15.499 -23.192  0.00  0.00     0.002 A 
ATOM      9  C   UNL d   1      28.741  16.630 -24.004  0.00  0.00     0.025 A 
ATOM     10  C   UNL d   1      28.824  15.452 -23.190  0.00  0.00     0.000 A 
ATOM     11  C   UNL d   1      28.377  16.018 -23.596  0.00  0.00     0.002 A 
ENDROOT
BRANCH   1  12
ATOM     12  C   UNL d   1      32.051  16.820 -24.012  0.00  0.00     0.201 C 
ATOM     13  O   UNL d   1      32.474  16.425 -24.603  0.00  0.00    -0.286 OA
ATOM     14  C   UNL d   1      32.452  17.260 -23.451  0.00  0.00     0.045 C 
ENDBRANCH   1  12
TORSDOF 1
ENDMDL
MODEL 4
REMARK VINA RESULT:      -2.6      5.198      6.346
REMARK  1 active torsions:
REMARK  status: ('A' for Active; 'I' for Inactive)
REMARK    1  A    between atoms: C_7  and  C_1 
ROOT
ATOM      1  C   UNL d   1      32.687  22.328 -21.234  0.00  0.00     0.102 A 
ATOM      2  C   UNL d   1      32.867  22.552 -22.009  0.00  0.00     0.303 A 
ATOM      3  C   UNL d   1      32.693  21.524 -21.032  0.00  0.00     0.011 A 
ATOM      4  O   UNL d   1      33.054  21.973 -22.584  0.00  0.00    -0.273 OA
ATOM      5  C   UNL d   1      32.875  20.954 -21.588  0.00  0.00     0.023 A 
ATOM      6  C   UNL d   1      33.055  21.178 -22.363  0.00  0.00     0.103 A 
ATOM      7  O   UNL d   1      32.863  23.370 -22.224  0.00  0.00    -0.259 OA
ATOM      8  C   UNL d   1      32.880  20.163 -21.383  0.00  0.00     0.002 A 
ATOM      9  C   UNL d   1      33.240  20.612 -22.934  0.00  0.00     0.025 A 
ATOM     10  C   UNL d   1      33.061  19.597 -21.937  0.00  0.00     0.000 A 
ATOM     11  C   UNL d   1      33.241  19.822 -22.713  0.00  0.00     0.002 A 
ENDROOT
BRANCH   1  12
ATOM     12  C   UNL d   1      32.502  22.921 -20.672  0.00  0.00     0.201 C 
ATOM     13  O   UNL d   1      31.719  23.178 -20.604  0.00  0.00    -0.286 OA
ATOM     14  C   UNL d   1      33.080  23.248 -20.194  0.00  0.00     0.045 C 
ENDBRANCH   1  12
TORSDOF 1
ENDMDL
MODEL 5
REMARK VINA RESULT:      -2.3      2.398      2.917
REMARK  1 active torsions:
REMARK  status: ('A' for Active; 'I' for Inactive)
REMARK    1  A    between atoms: C_7  and  C_1 
ROOT
ATOM      1  C   UNL d   1      32.363  16.831 -23.700  0.00  0.00     0.102 A 
ATOM      2  C   UNL d   1      32.297  16.982 -24.511  0.00  0.00     0.303 A 
ATOM      3  C   UNL d   1      32.618  17.435 -23.194  0.00  0.00     0.011 A 
ATOM      4  O   UNL d   1      32.487  17.737 -24.816  0.00  0.00    -0.273 OA
ATOM      5  C   UNL d   1      32.805  18.175 -23.486  0.00  0.00     0.023 A 
ATOM      6  C   UNL d   1      32.739  18.326 -24.296  0.00  0.00     0.103 A 
ATOM      7  O   UNL d   1      32.038  16.370 -25.034  0.00  0.00    -0.259 OA
ATOM      8  C   UNL d   1      33.056  18.767 -22.982  0.00  0.00     0.002 A 
ATOM      9  C   UNL d   1      32.925  19.069 -24.604  0.00  0.00     0.025 A 
ATOM     10  C   UNL d   1      33.241  19.502 -23.274  0.00  0.00     0.000 A 
ATOM     11  C   UNL d   1      33.175  19.653 -24.085  0.00  0.00     0.002 A 
ENDROOT
BRANCH   1  12
ATOM     12  C   UNL d   1      32.169  16.068 -23.412  0.00  0.00     0.201 C 
ATOM     13  O   UNL d   1      31.391  15.915 -23.176  0.00  0.00    -0.286 OA
ATOM     14  C   UNL d   1      32.732  15.478 -23.362  0.00  0.00     0.045 C 
ENDBRANCH   1  12
TORSDOF 1
ENDMDL
MODEL 6
REMARK VINA RESULT:      -2.0      3.256      4.441
REMARK  1 active torsions:
REMARK  status: ('A' for Active; 'I' for Inactive)
REMARK    1  A    between atoms: C_7  and  C_1 
ROOT
ATOM      1  C   UNL d   1      32.738  19.028 -23.089  0.00  0.00     0.102 A 
ATOM      2  C   UNL d   1      32.904  19.575 -23.686  0.00  0.00     0.303 A 
ATOM      3  C   UNL d   1      32.741  19.277 -22.299  0.00  0.00     0.011 A 
ATOM      4  O   UNL d   1      33.074  20.371 -23.495  0.00  0.00    -0.273 OA
ATOM      5  C   UNL d   1      32.906  20.053 -22.104  0.00  0.00     0.023 A 
ATOM      6  C   UNL d   1      33.072  20.600 -22.702  0.00  0.00     0.103 A 
ATOM      7  O   UNL d   1      32.903  19.329 -24.496  0.00  0.00    -0.259 OA
ATOM      8  C   UNL d   1      32.907  20.293 -21.323  0.00  0.00     0.002 A 
ATOM      9  C   UNL d   1      33.241  21.387 -22.519  0.00  0.00     0.025 A 
ATOM     10  C   UNL d   1      33.072  21.065 -21.132  0.00  0.00     0.000 A 
ATOM     11  C   UNL d   1      33.239  21.612 -21.730  0.00  0.00     0.002 A 
ENDROOT
BRANCH   1  12
ATOM     12  C   UNL d   1      32.570  18.235 -23.300  0.00  0.00     0.201 C 
ATOM     13  O   UNL d   1      31.818  18.048 -23.591  0.00  0.00    -0.286 OA
ATOM     14  C   UNL d   1      33.133  17.647 -23.222  0.00  0.00     0.045 C 
ENDBRANCH   1  12
TORSDOF 1
ENDMDL
