MODEL 1
REMARK VINA RESULT:      44.6      0.000      0.000
REMARK  9 active torsions:
REMARK  status: ('A' for Active; 'I' for Inactive)
REMARK    1  A    between atoms: N_3  and  C_1 
REMARK       I    between atoms: C_7  and  N_3 
REMARK    2  A    between atoms: S_10  and  C_4 
REMARK    3  A    between atoms: C_9  and  C_7 
REMARK    4  A    between atoms: C_8  and  C_17 
REMARK       I    between atoms: N_12  and  C_8 
REMARK    5  A    between atoms: C_17  and  S_10 
REMARK    6  A    between atoms: C_18  and  N_12 
REMARK    7  A    between atoms: C_22  and  C_18 
REMARK    8  A    between atoms: O_23  and  C_19 
REMARK    9  A    between atoms: C_25  and  O_23 
ROOT
ATOM      1  C   UNL d   1     -55.385-102.236 -42.065  0.00  0.00     0.219 A 
ATOM      2  S   UNL d   1     -54.819-101.828 -42.502  0.00  0.00    -0.019 SA
ATOM      3  C   UNL d   1     -55.110-101.704 -43.259  0.00  0.00     0.165 A 
ATOM      4  N   UNL d   1     -56.035-102.365 -42.561  0.00  0.00    -0.120 NA
ATOM      5  N   UNL d   1     -55.865-102.036 -43.297  0.00  0.00    -0.133 NA
ENDROOT
BRANCH   1   6
ATOM      6  N   UNL d   1     -55.313-102.472 -41.273  0.00  0.00    -0.181 NA
ATOM      7  C   UNL d   1     -55.547-101.952 -40.673  0.00  0.00     0.281 C 
ATOM      8  O   UNL d   1     -55.847-101.210 -40.860  0.00  0.00    -0.265 OA
BRANCH   7   9
ATOM      9  C   UNL d   1     -55.476-102.185 -39.882  0.00  0.00     0.058 A 
ATOM     10  C   UNL d   1     -56.091-102.599 -39.524  0.00  0.00     0.007 A 
ATOM     11  C   UNL d   1     -56.014-102.828 -38.735  0.00  0.00     0.025 A 
ATOM     12  C   UNL d   1     -55.337-102.646 -38.315  0.00  0.00     0.100 A 
ATOM     13  C   UNL d   1     -54.720-102.229 -38.678  0.00  0.00     0.025 A 
ATOM     14  C   UNL d   1     -54.797-102.000 -39.467  0.00  0.00     0.007 A 
BRANCH  12  15
ATOM     15  O   UNL d   1     -55.255-102.872 -37.527  0.00  0.00    -0.305 OA
BRANCH  15  16
ATOM     16  C   UNL d   1     -54.903-102.379 -36.979  0.00  0.00     0.123 C 
ATOM     17  C   UNL d   1     -55.001-102.515 -36.156  0.00  0.00     0.029 C 
ENDBRANCH  15  16
ENDBRANCH  12  15
ENDBRANCH   7   9
ENDBRANCH   1   6
BRANCH   3  18
ATOM     18  S   UNL d   1     -54.715-101.315 -43.869  0.00  0.00    -0.054 SA
BRANCH  18  19
ATOM     19  C   UNL d   1     -55.154-100.977 -44.488  0.00  0.00     0.100 C 
BRANCH  19  20
ATOM     20  C   UNL d   1     -55.429-100.204 -44.422  0.00  0.00     0.286 C 
ATOM     21  N   UNL d   1     -56.229-100.047 -44.522  0.00  0.00    -0.204 NA
ATOM     22  O   UNL d   1     -54.906 -99.582 -44.254  0.00  0.00    -0.265 OA
BRANCH  21  23
ATOM     23  C   UNL d   1     -56.508 -99.267 -44.455  0.00  0.00     0.127 C 
BRANCH  23  24
ATOM     24  C   UNL d   1     -57.316 -99.123 -44.436  0.00  0.00     0.119 A 
ATOM     25  O   UNL d   1     -57.859 -99.261 -45.046  0.00  0.00    -0.304 OA
ATOM     26  C   UNL d   1     -58.615 -99.033 -44.781  0.00  0.00     0.123 A 
ATOM     27  C   UNL d   1     -58.545 -98.755 -44.013  0.00  0.00     0.029 A 
ATOM     28  C   UNL d   1     -57.749 -98.811 -43.804  0.00  0.00     0.028 A 
ENDBRANCH  23  24
ENDBRANCH  21  23
ENDBRANCH  19  20
ENDBRANCH  18  19
ENDBRANCH   3  18
TORSDOF 9
ENDMDL
