MODEL 1
REMARK VINA RESULT:       2.0      0.000      0.000
REMARK  6 active torsions:
REMARK  status: ('A' for Active; 'I' for Inactive)
REMARK    1  A    between atoms: C_3  and  N_1 
REMARK       I    between atoms: C_4  and  N_1 
REMARK    2  A    between atoms: C_6  and  N_1 
REMARK    3  A    between atoms: N_2  and  C_3 
REMARK    4  A    between atoms: C_7  and  C_4 
REMARK    5  A    between atoms: O_14  and  C_16 
REMARK    6  A    between atoms: C_24  and  O_14 
ROOT
ATOM      1  N   UNL d   1      58.536  -0.366  30.201  0.00  0.00    -0.258 N 
ATOM      2  C   UNL d   1      58.297   0.048  30.879  0.00  0.00     0.266 C 
ATOM      3  O   UNL d   1      58.668   0.681  31.123  0.00  0.00    -0.267 OA
ENDROOT
BRANCH   1   4
ATOM      4  C   UNL d   1      58.127  -1.041  29.954  0.00  0.00     0.171 C 
BRANCH   4   5
ATOM      5  N   UNL d   1      58.409  -1.774  29.700  0.00  0.00    -0.257 N 
ATOM      6  C   UNL d   1      58.151  -2.209  29.049  0.00  0.00     0.266 A 
ATOM      7  O   UNL d   1      57.549  -1.983  28.522  0.00  0.00    -0.267 OA
ATOM      8  C   UNL d   1      58.594  -2.914  29.008  0.00  0.00     0.063 A 
ATOM      9  C   UNL d   1      59.129  -2.914  29.639  0.00  0.00     0.024 A 
ATOM     10  C   UNL d   1      59.023  -2.217  30.070  0.00  0.00     0.085 A 
ENDBRANCH   4   5
ENDBRANCH   1   4
BRANCH   1  11
ATOM     11  C   UNL d   1      59.191  -0.103  29.765  0.00  0.00     0.068 A 
ATOM     12  C   UNL d   1      59.960  -0.231  30.052  0.00  0.00     0.018 A 
ATOM     13  C   UNL d   1      60.596   0.034  29.609  0.00  0.00     0.002 A 
ATOM     14  C   UNL d   1      60.485   0.418  28.900  0.00  0.00     0.000 A 
ATOM     15  C   UNL d   1      59.727   0.544  28.617  0.00  0.00     0.002 A 
ATOM     16  C   UNL d   1      61.133   0.682  28.461  0.00  0.00     0.000 C 
ATOM     17  C   UNL d   1      59.077   0.287  29.042  0.00  0.00     0.018 A 
ENDBRANCH   1  11
BRANCH   2  18
ATOM     18  C   UNL d   1      57.646  -0.223  31.302  0.00  0.00     0.057 A 
ATOM     19  C   UNL d   1      56.889   0.039  31.111  0.00  0.00     0.007 A 
ATOM     20  C   UNL d   1      56.237  -0.227  31.527  0.00  0.00     0.025 A 
ATOM     21  C   UNL d   1      56.336  -0.764  32.147  0.00  0.00     0.100 A 
ATOM     22  C   UNL d   1      57.107  -1.031  32.342  0.00  0.00     0.025 A 
ATOM     23  C   UNL d   1      57.749  -0.760  31.920  0.00  0.00     0.007 A 
BRANCH  21  24
ATOM     24  O   UNL d   1      55.694  -1.027  32.559  0.00  0.00    -0.307 OA
BRANCH  24  25
ATOM     25  C   UNL d   1      55.700  -1.036  33.386  0.00  0.00     0.100 C 
ATOM     26  C   UNL d   1      55.541  -1.738  33.785  0.00  0.00     0.027 C 
ATOM     27  C   UNL d   1      55.865  -0.348  33.810  0.00  0.00     0.027 C 
ENDBRANCH  24  25
ENDBRANCH  21  24
ENDBRANCH   2  18
TORSDOF 6
ENDMDL
MODEL 2
REMARK VINA RESULT:       4.7      1.455      4.843
REMARK  6 active torsions:
REMARK  status: ('A' for Active; 'I' for Inactive)
REMARK    1  A    between atoms: C_3  and  N_1 
REMARK       I    between atoms: C_4  and  N_1 
REMARK    2  A    between atoms: C_6  and  N_1 
REMARK    3  A    between atoms: N_2  and  C_3 
REMARK    4  A    between atoms: C_7  and  C_4 
REMARK    5  A    between atoms: O_14  and  C_16 
REMARK    6  A    between atoms: C_24  and  O_14 
ROOT
ATOM      1  N   UNL d   1      57.120  -0.023  31.912  0.00  0.00    -0.258 N 
ATOM      2  C   UNL d   1      56.991  -0.422  31.197  0.00  0.00     0.266 C 
ATOM      3  O   UNL d   1      56.335  -0.807  31.056  0.00  0.00    -0.267 OA
ENDROOT
BRANCH   1   4
ATOM      4  C   UNL d   1      57.827   0.383  32.046  0.00  0.00     0.171 C 
BRANCH   4   5
ATOM      5  N   UNL d   1      58.268   0.478  32.738  0.00  0.00    -0.257 N 
ATOM      6  C   UNL d   1      59.078   0.613  32.798  0.00  0.00     0.266 A 
ATOM      7  O   UNL d   1      59.608   0.680  32.160  0.00  0.00    -0.267 OA
ATOM      8  C   UNL d   1      59.279   0.672  33.605  0.00  0.00     0.063 A 
ATOM      9  C   UNL d   1      58.587   0.572  34.045  0.00  0.00     0.024 A 
ATOM     10  C   UNL d   1      57.959   0.452  33.521  0.00  0.00     0.085 A 
ENDBRANCH   4   5
ENDBRANCH   1   4
BRANCH   1  11
ATOM     11  C   UNL d   1      56.536  -0.030  32.501  0.00  0.00     0.068 A 
ATOM     12  C   UNL d   1      56.180   0.681  32.742  0.00  0.00     0.018 A 
ATOM     13  C   UNL d   1      55.605   0.657  33.326  0.00  0.00     0.002 A 
ATOM     14  C   UNL d   1      55.380  -0.047  33.667  0.00  0.00     0.000 A 
ATOM     15  C   UNL d   1      55.730  -0.748  33.429  0.00  0.00     0.002 A 
ATOM     16  C   UNL d   1      54.799  -0.061  34.254  0.00  0.00     0.000 C 
ATOM     17  C   UNL d   1      56.307  -0.748  32.849  0.00  0.00     0.018 A 
ENDBRANCH   1  11
BRANCH   2  18
ATOM     18  C   UNL d   1      57.578  -0.407  30.621  0.00  0.00     0.057 A 
ATOM     19  C   UNL d   1      57.994  -1.093  30.436  0.00  0.00     0.007 A 
ATOM     20  C   UNL d   1      58.580  -1.086  29.865  0.00  0.00     0.025 A 
ATOM     21  C   UNL d   1      58.758  -0.384  29.467  0.00  0.00     0.100 A 
ATOM     22  C   UNL d   1      58.334   0.315  29.656  0.00  0.00     0.025 A 
ATOM     23  C   UNL d   1      57.753   0.296  30.227  0.00  0.00     0.007 A 
BRANCH  21  24
ATOM     24  O   UNL d   1      59.335  -0.374  28.904  0.00  0.00    -0.307 OA
BRANCH  24  25
ATOM     25  C   UNL d   1      60.061  -0.008  29.052  0.00  0.00     0.100 C 
ATOM     26  C   UNL d   1      60.280   0.651  28.610  0.00  0.00     0.027 C 
ATOM     27  C   UNL d   1      60.564  -0.298  29.637  0.00  0.00     0.027 C 
ENDBRANCH  24  25
ENDBRANCH  21  24
ENDBRANCH   2  18
TORSDOF 6
ENDMDL
