MODEL 1
REMARK VINA RESULT:      -8.3      0.000      0.000
REMARK  5 active torsions:
REMARK  status: ('A' for Active; 'I' for Inactive)
REMARK    1  A    between atoms: C_8  and  C_1 
REMARK    2  A    between atoms: N_4  and  C_2 
REMARK       I    between atoms: C_6  and  N_4 
REMARK    3  A    between atoms: C_9  and  C_6 
REMARK    4  A    between atoms: O_20  and  C_15 
REMARK    5  A    between atoms: C_21  and  O_20 
ROOT
ATOM      1  C   UNL d   1     -50.012  13.727  21.943  0.00  0.00     0.177 A 
ATOM      2  C   UNL d   1     -49.404  14.129  22.332  0.00  0.00     0.114 A 
ATOM      3  O   UNL d   1     -50.739  14.073  22.163  0.00  0.00    -0.301 OA
ATOM      4  C   UNL d   1     -49.742  14.722  22.793  0.00  0.00     0.043 A 
ATOM      5  C   UNL d   1     -50.582  14.685  22.685  0.00  0.00     0.102 A 
ATOM      6  C   UNL d   1     -49.417  15.287  23.292  0.00  0.00     0.004 A 
ATOM      7  C   UNL d   1     -51.061  15.218  23.083  0.00  0.00     0.025 A 
ATOM      8  C   UNL d   1     -49.902  15.828  23.695  0.00  0.00     0.000 A 
ATOM      9  C   UNL d   1     -50.714  15.797  23.595  0.00  0.00     0.002 A 
ENDROOT
BRANCH   2  10
ATOM     10  N   UNL d   1     -48.580  13.944  22.255  0.00  0.00    -0.206 NA
ATOM     11  C   UNL d   1     -48.177  13.602  22.891  0.00  0.00     0.279 C 
ATOM     12  O   UNL d   1     -48.558  13.437  23.599  0.00  0.00    -0.265 OA
BRANCH  11  13
ATOM     13  C   UNL d   1     -47.374  13.422  22.815  0.00  0.00     0.058 A 
ATOM     14  C   UNL d   1     -46.873  13.973  22.498  0.00  0.00     0.007 A 
ATOM     15  C   UNL d   1     -46.052  13.788  22.421  0.00  0.00     0.025 A 
ATOM     16  C   UNL d   1     -45.779  13.056  22.668  0.00  0.00     0.100 A 
ATOM     17  C   UNL d   1     -46.291  12.484  22.996  0.00  0.00     0.025 A 
ATOM     18  C   UNL d   1     -47.112  12.669  23.074  0.00  0.00     0.007 A 
BRANCH  16  19
ATOM     19  O   UNL d   1     -44.959  12.872  22.591  0.00  0.00    -0.305 OA
BRANCH  19  20
ATOM     20  C   UNL d   1     -44.580  12.975  21.867  0.00  0.00     0.123 C 
ATOM     21  C   UNL d   1     -43.822  12.684  21.755  0.00  0.00     0.029 C 
ENDBRANCH  19  20
ENDBRANCH  16  19
ENDBRANCH  11  13
ENDBRANCH   2  10
BRANCH   1  22
ATOM     22  C   UNL d   1     -49.886  13.095  21.431  0.00  0.00     0.321 C 
ATOM     23  O   UNL d   1     -49.391  13.194  20.758  0.00  0.00    -0.261 OA
ATOM     24  N   UNL d   1     -50.247  12.353  21.573  0.00  0.00    -0.101 N 
ENDBRANCH   1  22
TORSDOF 5
ENDMDL
MODEL 2
REMARK VINA RESULT:      -8.0      1.300      1.573
REMARK  5 active torsions:
REMARK  status: ('A' for Active; 'I' for Inactive)
REMARK    1  A    between atoms: C_8  and  C_1 
REMARK    2  A    between atoms: N_4  and  C_2 
REMARK       I    between atoms: C_6  and  N_4 
REMARK    3  A    between atoms: C_9  and  C_6 
REMARK    4  A    between atoms: O_20  and  C_15 
REMARK    5  A    between atoms: C_21  and  O_20 
ROOT
ATOM      1  C   UNL d   1     -50.269  12.986  22.914  0.00  0.00     0.177 A 
ATOM      2  C   UNL d   1     -49.583  13.382  23.149  0.00  0.00     0.114 A 
ATOM      3  O   UNL d   1     -50.863  13.554  22.768  0.00  0.00    -0.301 OA
ATOM      4  C   UNL d   1     -49.740  14.191  23.151  0.00  0.00     0.043 A 
ATOM      5  C   UNL d   1     -50.546  14.296  22.911  0.00  0.00     0.102 A 
ATOM      6  C   UNL d   1     -49.277  14.843  23.333  0.00  0.00     0.004 A 
ATOM      7  C   UNL d   1     -50.854  15.054  22.864  0.00  0.00     0.025 A 
ATOM      8  C   UNL d   1     -49.588  15.611  23.286  0.00  0.00     0.000 A 
ATOM      9  C   UNL d   1     -50.366  15.721  23.055  0.00  0.00     0.002 A 
ENDROOT
BRANCH   2  10
ATOM     10  N   UNL d   1     -48.853  12.999  23.348  0.00  0.00    -0.206 NA
ATOM     11  C   UNL d   1     -48.226  13.009  22.810  0.00  0.00     0.279 C 
ATOM     12  O   UNL d   1     -48.294  13.384  22.082  0.00  0.00    -0.265 OA
BRANCH  11  13
ATOM     13  C   UNL d   1     -47.514  12.636  23.004  0.00  0.00     0.058 A 
ATOM     14  C   UNL d   1     -47.533  11.938  23.412  0.00  0.00     0.007 A 
ATOM     15  C   UNL d   1     -46.806  11.556  23.611  0.00  0.00     0.025 A 
ATOM     16  C   UNL d   1     -46.096  11.900  23.387  0.00  0.00     0.100 A 
ATOM     17  C   UNL d   1     -46.071  12.620  22.966  0.00  0.00     0.025 A 
ATOM     18  C   UNL d   1     -46.799  13.002  22.767  0.00  0.00     0.007 A 
BRANCH  16  19
ATOM     19  O   UNL d   1     -45.370  11.519  23.586  0.00  0.00    -0.305 OA
BRANCH  19  20
ATOM     20  C   UNL d   1     -45.350  10.702  23.698  0.00  0.00     0.123 C 
ATOM     21  C   UNL d   1     -44.633  10.307  23.698  0.00  0.00     0.029 C 
ENDBRANCH  19  20
ENDBRANCH  16  19
ENDBRANCH  11  13
ENDBRANCH   2  10
BRANCH   1  22
ATOM     22  C   UNL d   1     -50.323  12.168  22.847  0.00  0.00     0.321 C 
ATOM     23  O   UNL d   1     -50.235  11.803  22.094  0.00  0.00    -0.261 OA
ATOM     24  N   UNL d   1     -50.466  11.693  23.522  0.00  0.00    -0.101 N 
ENDBRANCH   1  22
TORSDOF 5
ENDMDL
MODEL 3
REMARK VINA RESULT:      -7.4      1.186      1.875
REMARK  5 active torsions:
REMARK  status: ('A' for Active; 'I' for Inactive)
REMARK    1  A    between atoms: C_8  and  C_1 
REMARK    2  A    between atoms: N_4  and  C_2 
REMARK       I    between atoms: C_6  and  N_4 
REMARK    3  A    between atoms: C_9  and  C_6 
REMARK    4  A    between atoms: O_20  and  C_15 
REMARK    5  A    between atoms: C_21  and  O_20 
ROOT
ATOM      1  C   UNL d   1     -49.681  14.502  22.718  0.00  0.00     0.177 A 
ATOM      2  C   UNL d   1     -49.230  13.815  22.633  0.00  0.00     0.114 A 
ATOM      3  O   UNL d   1     -50.447  14.284  22.968  0.00  0.00    -0.301 OA
ATOM      4  C   UNL d   1     -49.705  13.170  22.827  0.00  0.00     0.043 A 
ATOM      5  C   UNL d   1     -50.470  13.468  23.037  0.00  0.00     0.102 A 
ATOM      6  C   UNL d   1     -49.560  12.363  22.844  0.00  0.00     0.004 A 
ATOM      7  C   UNL d   1     -51.059  12.941  23.256  0.00  0.00     0.025 A 
ATOM      8  C   UNL d   1     -50.156  11.828  23.066  0.00  0.00     0.000 A 
ATOM      9  C   UNL d   1     -50.897  12.109  23.270  0.00  0.00     0.002 A 
ENDROOT
BRANCH   2  10
ATOM     10  N   UNL d   1     -48.419  13.802  22.387  0.00  0.00    -0.206 NA
ATOM     11  C   UNL d   1     -47.833  13.577  22.925  0.00  0.00     0.279 C 
ATOM     12  O   UNL d   1     -48.020  13.366  23.697  0.00  0.00    -0.265 OA
BRANCH  11  13
ATOM     13  C   UNL d   1     -47.042  13.564  22.685  0.00  0.00     0.058 A 
ATOM     14  C   UNL d   1     -46.523  14.097  23.004  0.00  0.00     0.007 A 
ATOM     15  C   UNL d   1     -45.715  14.083  22.759  0.00  0.00     0.025 A 
ATOM     16  C   UNL d   1     -45.471  13.531  22.204  0.00  0.00     0.100 A 
ATOM     17  C   UNL d   1     -46.002  12.979  21.872  0.00  0.00     0.025 A 
ATOM     18  C   UNL d   1     -46.811  12.993  22.117  0.00  0.00     0.007 A 
BRANCH  16  19
ATOM     19  O   UNL d   1     -44.664  13.518  21.959  0.00  0.00    -0.305 OA
BRANCH  19  20
ATOM     20  C   UNL d   1     -44.244  12.808  21.962  0.00  0.00     0.123 C 
ATOM     21  C   UNL d   1     -43.577  12.725  21.494  0.00  0.00     0.029 C 
ENDBRANCH  19  20
ENDBRANCH  16  19
ENDBRANCH  11  13
ENDBRANCH   2  10
BRANCH   1  22
ATOM     22  C   UNL d   1     -49.392  15.259  22.573  0.00  0.00     0.321 C 
ATOM     23  O   UNL d   1     -49.206  15.491  21.786  0.00  0.00    -0.261 OA
ATOM     24  N   UNL d   1     -49.281  15.800  23.202  0.00  0.00    -0.101 N 
ENDBRANCH   1  22
TORSDOF 5
ENDMDL
MODEL 4
REMARK VINA RESULT:      -5.9      9.237     10.051
REMARK  5 active torsions:
REMARK  status: ('A' for Active; 'I' for Inactive)
REMARK    1  A    between atoms: C_8  and  C_1 
REMARK    2  A    between atoms: N_4  and  C_2 
REMARK       I    between atoms: C_6  and  N_4 
REMARK    3  A    between atoms: C_9  and  C_6 
REMARK    4  A    between atoms: O_20  and  C_15 
REMARK    5  A    between atoms: C_21  and  O_20 
ROOT
ATOM      1  C   UNL d   1     -39.296  13.824  17.342  0.00  0.00     0.177 A 
ATOM      2  C   UNL d   1     -39.672  14.183  17.983  0.00  0.00     0.114 A 
ATOM      3  O   UNL d   1     -39.538  14.212  16.644  0.00  0.00    -0.301 OA
ATOM      4  C   UNL d   1     -40.148  14.791  17.695  0.00  0.00     0.043 A 
ATOM      5  C   UNL d   1     -40.062  14.807  16.852  0.00  0.00     0.102 A 
ATOM      6  C   UNL d   1     -40.643  15.329  18.068  0.00  0.00     0.004 A 
ATOM      7  C   UNL d   1     -40.477  15.365  16.418  0.00  0.00     0.025 A 
ATOM      8  C   UNL d   1     -41.064  15.894  17.629  0.00  0.00     0.000 A 
ATOM      9  C   UNL d   1     -40.986  15.915  16.814  0.00  0.00     0.002 A 
ENDROOT
BRANCH   2  10
ATOM     10  N   UNL d   1     -39.571  13.948  18.791  0.00  0.00    -0.206 NA
ATOM     11  C   UNL d   1     -39.132  14.426  19.304  0.00  0.00     0.279 C 
ATOM     12  O   UNL d   1     -38.790  15.127  19.046  0.00  0.00    -0.265 OA
BRANCH  11  13
ATOM     13  C   UNL d   1     -39.033  14.196  20.092  0.00  0.00     0.058 A 
ATOM     14  C   UNL d   1     -39.656  14.265  20.604  0.00  0.00     0.007 A 
ATOM     15  C   UNL d   1     -39.555  14.030  21.410  0.00  0.00     0.025 A 
ATOM     16  C   UNL d   1     -38.829  13.738  21.657  0.00  0.00     0.100 A 
ATOM     17  C   UNL d   1     -38.184  13.666  21.132  0.00  0.00     0.025 A 
ATOM     18  C   UNL d   1     -38.285  13.900  20.326  0.00  0.00     0.007 A 
BRANCH  16  19
ATOM     19  O   UNL d   1     -38.729  13.504  22.461  0.00  0.00    -0.305 OA
BRANCH  19  20
ATOM     20  C   UNL d   1     -38.106  13.812  22.905  0.00  0.00     0.123 C 
ATOM     21  C   UNL d   1     -38.012  13.590  23.688  0.00  0.00     0.029 C 
ENDBRANCH  19  20
ENDBRANCH  16  19
ENDBRANCH  11  13
ENDBRANCH   2  10
BRANCH   1  22
ATOM     22  C   UNL d   1     -38.774  13.192  17.414  0.00  0.00     0.321 C 
ATOM     23  O   UNL d   1     -39.063  12.434  17.638  0.00  0.00    -0.261 OA
ATOM     24  N   UNL d   1     -37.956  13.295  17.266  0.00  0.00    -0.101 N 
ENDBRANCH   1  22
TORSDOF 5
ENDMDL
MODEL 5
REMARK VINA RESULT:      -5.5      8.282     10.183
REMARK  5 active torsions:
REMARK  status: ('A' for Active; 'I' for Inactive)
REMARK    1  A    between atoms: C_8  and  C_1 
REMARK    2  A    between atoms: N_4  and  C_2 
REMARK       I    between atoms: C_6  and  N_4 
REMARK    3  A    between atoms: C_9  and  C_6 
REMARK    4  A    between atoms: O_20  and  C_15 
REMARK    5  A    between atoms: C_21  and  O_20 
ROOT
ATOM      1  C   UNL d   1     -40.097  14.682  21.098  0.00  0.00     0.177 A 
ATOM      2  C   UNL d   1     -39.543  14.208  20.710  0.00  0.00     0.114 A 
ATOM      3  O   UNL d   1     -39.936  14.657  21.916  0.00  0.00    -0.301 OA
ATOM      4  C   UNL d   1     -39.038  13.886  21.275  0.00  0.00     0.043 A 
ATOM      5  C   UNL d   1     -39.288  14.170  22.034  0.00  0.00     0.102 A 
ATOM      6  C   UNL d   1     -38.394  13.381  21.218  0.00  0.00     0.004 A 
ATOM      7  C   UNL d   1     -38.879  13.935  22.704  0.00  0.00     0.025 A 
ATOM      8  C   UNL d   1     -37.979  13.143  21.896  0.00  0.00     0.000 A 
ATOM      9  C   UNL d   1     -38.214  13.413  22.632  0.00  0.00     0.002 A 
ENDROOT
BRANCH   2  10
ATOM     10  N   UNL d   1     -39.519  14.088  19.870  0.00  0.00    -0.206 NA
ATOM     11  C   UNL d   1     -38.898  14.409  19.430  0.00  0.00     0.279 C 
ATOM     12  O   UNL d   1     -38.300  14.844  19.788  0.00  0.00    -0.265 OA
BRANCH  11  13
ATOM     13  C   UNL d   1     -38.874  14.292  18.612  0.00  0.00     0.058 A 
ATOM     14  C   UNL d   1     -38.987  13.548  18.316  0.00  0.00     0.007 A 
ATOM     15  C   UNL d   1     -38.963  13.428  17.480  0.00  0.00     0.025 A 
ATOM     16  C   UNL d   1     -38.826  14.067  16.985  0.00  0.00     0.100 A 
ATOM     17  C   UNL d   1     -38.709  14.837  17.285  0.00  0.00     0.025 A 
ATOM     18  C   UNL d   1     -38.733  14.957  18.122  0.00  0.00     0.007 A 
BRANCH  16  19
ATOM     19  O   UNL d   1     -38.802  13.948  16.150  0.00  0.00    -0.305 OA
BRANCH  19  20
ATOM     20  C   UNL d   1     -38.084  13.791  15.776  0.00  0.00     0.123 C 
ATOM     21  C   UNL d   1     -38.051  13.729  14.960  0.00  0.00     0.029 C 
ENDBRANCH  19  20
ENDBRANCH  16  19
ENDBRANCH  11  13
ENDBRANCH   2  10
BRANCH   1  22
ATOM     22  C   UNL d   1     -40.694  15.097  20.711  0.00  0.00     0.321 C 
ATOM     23  O   UNL d   1     -40.607  15.921  20.570  0.00  0.00    -0.261 OA
ATOM     24  N   UNL d   1     -41.388  14.704  20.456  0.00  0.00    -0.101 N 
ENDBRANCH   1  22
TORSDOF 5
ENDMDL
