MODEL 1
REMARK VINA RESULT:      84.5      0.000      0.000
REMARK  2 active torsions:
REMARK  status: ('A' for Active; 'I' for Inactive)
REMARK    1  A    between atoms: C_6  and  C_1 
REMARK       I    between atoms: N_10  and  C_6 
REMARK    2  A    between atoms: C_12  and  N_10 
ROOT
ATOM      1  C   UNL d   1      13.944  15.915  -5.111  0.00  0.00     0.108 A 
ATOM      2  C   UNL d   1      13.658  14.638  -4.908  0.00  0.00     0.044 A 
ATOM      3  C   UNL d   1      13.898  14.972  -4.186  0.00  0.00     0.112 A 
ATOM      4  S   UNL d   1      14.073  15.765  -4.324  0.00  0.00    -0.061 SA
ATOM      5  C   UNL d   1      13.687  15.229  -5.484  0.00  0.00     0.116 A 
ATOM      6  N   UNL d   1      13.920  14.494  -3.505  0.00  0.00    -0.239 NA
ATOM      7  C   UNL d   1      13.470  13.373  -4.260  0.00  0.00     0.056 A 
ATOM      8  C   UNL d   1      13.710  13.707  -3.538  0.00  0.00     0.081 A 
ATOM      9  C   UNL d   1      13.443  13.832  -4.938  0.00  0.00     0.008 A 
ATOM     10  C   UNL d   1      13.258  12.584  -4.299  0.00  0.00     0.193 A 
ATOM     11  C   UNL d   1      13.522  12.442  -2.891  0.00  0.00     0.042 A 
ATOM     12  C   UNL d   1      13.735  13.246  -2.866  0.00  0.00    -0.003 A 
ATOM     13  C   UNL d   1      13.281  12.108  -3.613  0.00  0.00     0.019 A 
ATOM     14  O   UNL d   1      13.015  12.247  -5.027  0.00  0.00    -0.287 OA
ATOM     15  N   UNL d   1      13.491  15.144  -6.299  0.00  0.00    -0.147 N 
ATOM     16  C   UNL d   1      13.674  12.373  -2.096  0.00  0.00     0.009 C 
ATOM     17  C   UNL d   1      13.455  11.780  -2.404  0.00  0.00     0.009 C 
ENDROOT
BRANCH   1  18
ATOM     18  C   UNL d   1      14.058  16.651  -5.467  0.00  0.00     0.287 C 
ATOM     19  N   UNL d   1      14.017  17.352  -5.025  0.00  0.00    -0.208 NA
ATOM     20  O   UNL d   1      14.214  16.682  -6.269  0.00  0.00    -0.265 OA
BRANCH  19  21
ATOM     21  C   UNL d   1      14.130  18.082  -5.378  0.00  0.00     0.085 A 
ATOM     22  C   UNL d   1      13.628  18.354  -5.973  0.00  0.00     0.018 A 
ATOM     23  C   UNL d   1      13.740  19.077  -6.323  0.00  0.00     0.002 A 
ATOM     24  C   UNL d   1      12.986  17.885  -6.230  0.00  0.00     0.002 C 
ATOM     25  C   UNL d   1      14.387  19.547  -6.062  0.00  0.00     0.000 A 
ATOM     26  C   UNL d   1      14.884  19.274  -5.471  0.00  0.00     0.002 A 
ATOM     27  C   UNL d   1      14.542  20.289  -6.387  0.00  0.00     0.000 C 
ATOM     28  C   UNL d   1      14.757  18.548  -5.132  0.00  0.00     0.018 A 
ATOM     29  C   UNL d   1      15.267  18.266  -4.524  0.00  0.00     0.002 C 
ENDBRANCH  19  21
ENDBRANCH   1  18
TORSDOF 2
ENDMDL
MODEL 2
REMARK VINA RESULT:      85.4      1.072      1.772
REMARK  2 active torsions:
REMARK  status: ('A' for Active; 'I' for Inactive)
REMARK    1  A    between atoms: C_6  and  C_1 
REMARK       I    between atoms: N_10  and  C_6 
REMARK    2  A    between atoms: C_12  and  N_10 
ROOT
ATOM      1  C   UNL d   1      13.963  16.636  -4.613  0.00  0.00     0.108 A 
ATOM      2  C   UNL d   1      14.002  15.449  -4.026  0.00  0.00     0.044 A 
ATOM      3  C   UNL d   1      13.580  15.376  -4.738  0.00  0.00     0.112 A 
ATOM      4  S   UNL d   1      13.563  16.120  -5.094  0.00  0.00    -0.061 SA
ATOM      5  C   UNL d   1      14.240  16.237  -3.950  0.00  0.00     0.116 A 
ATOM      6  N   UNL d   1      13.274  14.634  -4.954  0.00  0.00    -0.239 NA
ATOM      7  C   UNL d   1      13.804  14.054  -3.766  0.00  0.00     0.056 A 
ATOM      8  C   UNL d   1      13.382  13.981  -4.478  0.00  0.00     0.081 A 
ATOM      9  C   UNL d   1      14.111  14.779  -3.541  0.00  0.00     0.008 A 
ATOM     10  C   UNL d   1      13.915  13.402  -3.284  0.00  0.00     0.193 A 
ATOM     11  C   UNL d   1      13.184  12.585  -4.218  0.00  0.00     0.042 A 
ATOM     12  C   UNL d   1      13.078  13.257  -4.698  0.00  0.00    -0.003 A 
ATOM     13  C   UNL d   1      13.605  12.658  -3.505  0.00  0.00     0.019 A 
ATOM     14  O   UNL d   1      14.340  13.475  -2.566  0.00  0.00    -0.287 OA
ATOM     15  N   UNL d   1      14.683  16.568  -3.314  0.00  0.00    -0.147 N 
ATOM     16  C   UNL d   1      12.769  12.135  -4.751  0.00  0.00     0.009 C 
ATOM     17  C   UNL d   1      13.001  11.782  -4.188  0.00  0.00     0.009 C 
ENDROOT
BRANCH   1  18
ATOM     18  C   UNL d   1      14.067  17.438  -4.780  0.00  0.00     0.287 C 
ATOM     19  N   UNL d   1      14.297  17.693  -5.535  0.00  0.00    -0.208 NA
ATOM     20  O   UNL d   1      13.939  17.985  -4.185  0.00  0.00    -0.265 OA
BRANCH  19  21
ATOM     21  C   UNL d   1      14.400  18.488  -5.700  0.00  0.00     0.085 A 
ATOM     22  C   UNL d   1      15.117  18.868  -5.552  0.00  0.00     0.018 A 
ATOM     23  C   UNL d   1      15.219  19.656  -5.715  0.00  0.00     0.002 A 
ATOM     24  C   UNL d   1      15.759  18.444  -5.226  0.00  0.00     0.002 C 
ATOM     25  C   UNL d   1      14.570  20.079  -6.042  0.00  0.00     0.000 A 
ATOM     26  C   UNL d   1      13.860  19.699  -6.189  0.00  0.00     0.002 A 
ATOM     27  C   UNL d   1      14.626  20.882  -6.225  0.00  0.00     0.000 C 
ATOM     28  C   UNL d   1      13.776  18.910  -6.019  0.00  0.00     0.018 A 
ATOM     29  C   UNL d   1      13.046  18.518  -6.169  0.00  0.00     0.002 C 
ENDBRANCH  19  21
ENDBRANCH   1  18
TORSDOF 2
ENDMDL
MODEL 3
REMARK VINA RESULT:      86.9      1.135      1.591
REMARK  2 active torsions:
REMARK  status: ('A' for Active; 'I' for Inactive)
REMARK    1  A    between atoms: C_6  and  C_1 
REMARK       I    between atoms: N_10  and  C_6 
REMARK    2  A    between atoms: C_12  and  N_10 
ROOT
ATOM      1  C   UNL d   1      13.933  15.424  -3.865  0.00  0.00     0.108 A 
ATOM      2  C   UNL d   1      13.856  14.185  -3.399  0.00  0.00     0.044 A 
ATOM      3  C   UNL d   1      14.274  14.647  -2.849  0.00  0.00     0.112 A 
ATOM      4  S   UNL d   1      14.315  15.414  -3.149  0.00  0.00    -0.061 SA
ATOM      5  C   UNL d   1      13.644  14.672  -4.033  0.00  0.00     0.116 A 
ATOM      6  N   UNL d   1      14.555  14.292  -2.152  0.00  0.00    -0.239 NA
ATOM      7  C   UNL d   1      14.008  13.039  -2.553  0.00  0.00     0.056 A 
ATOM      8  C   UNL d   1      14.426  13.501  -2.003  0.00  0.00     0.081 A 
ATOM      9  C   UNL d   1      13.726  13.376  -3.243  0.00  0.00     0.008 A 
ATOM     10  C   UNL d   1      13.876  12.245  -2.408  0.00  0.00     0.193 A 
ATOM     11  C   UNL d   1      14.578  12.354  -1.156  0.00  0.00     0.042 A 
ATOM     12  C   UNL d   1      14.705  13.161  -1.316  0.00  0.00    -0.003 A 
ATOM     13  C   UNL d   1      14.160  11.892  -1.706  0.00  0.00     0.019 A 
ATOM     14  O   UNL d   1      13.455  11.779  -2.963  0.00  0.00    -0.287 OA
ATOM     15  N   UNL d   1      13.214  14.443  -4.720  0.00  0.00    -0.147 N 
ATOM     16  C   UNL d   1      14.976  12.428  -0.452  0.00  0.00     0.009 C 
ATOM     17  C   UNL d   1      14.734  11.781  -0.585  0.00  0.00     0.009 C 
ENDROOT
BRANCH   1  18
ATOM     18  C   UNL d   1      13.855  16.095  -4.339  0.00  0.00     0.287 C 
ATOM     19  N   UNL d   1      14.518  16.536  -4.570  0.00  0.00    -0.208 NA
ATOM     20  O   UNL d   1      13.108  16.322  -4.581  0.00  0.00    -0.265 OA
BRANCH  19  21
ATOM     21  C   UNL d   1      14.441  17.201  -5.040  0.00  0.00     0.085 A 
ATOM     22  C   UNL d   1      14.151  17.151  -5.811  0.00  0.00     0.018 A 
ATOM     23  C   UNL d   1      14.074  17.810  -6.277  0.00  0.00     0.002 A 
ATOM     24  C   UNL d   1      13.929  16.412  -6.131  0.00  0.00     0.002 C 
ATOM     25  C   UNL d   1      14.299  18.553  -5.952  0.00  0.00     0.000 A 
ATOM     26  C   UNL d   1      14.586  18.600  -5.187  0.00  0.00     0.002 A 
ATOM     27  C   UNL d   1      14.238  19.252  -6.387  0.00  0.00     0.000 C 
ATOM     28  C   UNL d   1      14.656  17.930  -4.735  0.00  0.00     0.018 A 
ATOM     29  C   UNL d   1      14.951  17.976  -3.948  0.00  0.00     0.002 C 
ENDBRANCH  19  21
ENDBRANCH   1  18
TORSDOF 2
ENDMDL
