MODEL 1
REMARK VINA RESULT:      -8.9      0.000      0.000
REMARK  5 active torsions:
REMARK  status: ('A' for Active; 'I' for Inactive)
REMARK    1  A    between atoms: N_2  and  S_1 
REMARK    2  A    between atoms: C_14  and  S_1 
REMARK    3  A    between atoms: C_4  and  N_2 
REMARK    4  A    between atoms: S_6  and  C_3 
REMARK    5  A    between atoms: C_10  and  S_6 
ROOT
ATOM      1  C   UNL d   1      53.487  32.392  53.958  0.00  0.00     0.070 A 
ATOM      2  C   UNL d   1      53.018  33.709  54.231  0.00  0.00     0.095 A 
ATOM      3  C   UNL d   1      54.223  32.589  54.275  0.00  0.00     0.202 A 
ATOM      4  C   UNL d   1      52.884  32.953  53.936  0.00  0.00     0.030 A 
ATOM      5  C   UNL d   1      54.356  33.346  54.569  0.00  0.00     0.041 A 
ATOM      6  C   UNL d   1      53.754  33.906  54.547  0.00  0.00     0.022 A 
ATOM      7  O   UNL d   1      54.841  32.020  54.299  0.00  0.00    -0.286 OA
ATOM      8  C   UNL d   1      55.100  33.545  54.890  0.00  0.00     0.003 A 
ATOM      9  C   UNL d   1      53.885  34.667  54.843  0.00  0.00     0.002 A 
ATOM     10  C   UNL d   1      55.233  34.302  55.184  0.00  0.00     0.000 A 
ATOM     11  C   UNL d   1      54.629  34.866  55.163  0.00  0.00     0.000 A 
ENDROOT
BRANCH   1  12
ATOM     12  S   UNL d   1      53.354  31.635  53.663  0.00  0.00    -0.082 SA
BRANCH  12  13
ATOM     13  C   UNL d   1      53.218  30.877  53.365  0.00  0.00     0.047 A 
ATOM     14  C   UNL d   1      53.185  30.229  53.875  0.00  0.00     0.087 A 
ATOM     15  N   UNL d   1      53.288  30.342  54.686  0.00  0.00    -0.244 NA
ATOM     16  C   UNL d   1      53.049  29.475  53.575  0.00  0.00     0.018 A 
ATOM     17  C   UNL d   1      53.255  29.694  55.195  0.00  0.00     0.099 A 
ATOM     18  C   UNL d   1      53.118  28.937  54.891  0.00  0.00     0.021 A 
ATOM     19  C   UNL d   1      53.016  28.821  54.089  0.00  0.00     0.003 A 
ATOM     20  C   UNL d   1      52.946  29.362  52.770  0.00  0.00     0.002 A 
ATOM     21  C   UNL d   1      52.978  30.002  52.251  0.00  0.00     0.001 A 
ATOM     22  C   UNL d   1      53.114  30.766  52.549  0.00  0.00     0.008 A 
ENDBRANCH  12  13
ENDBRANCH   1  12
BRANCH   2  23
ATOM     23  N   UNL d   1      52.400  34.278  54.206  0.00  0.00    -0.158 NA
BRANCH  23  24
ATOM     24  S   UNL d   1      51.855  34.266  53.584  0.00  0.00     0.285 S 
ATOM     25  O   UNL d   1      52.367  34.738  53.123  0.00  0.00    -0.198 OA
ATOM     26  O   UNL d   1      51.347  33.799  54.037  0.00  0.00    -0.198 OA
BRANCH  24  27
ATOM     27  C   UNL d   1      51.308  34.253  52.959  0.00  0.00     0.105 A 
ATOM     28  C   UNL d   1      51.569  34.300  52.180  0.00  0.00     0.013 A 
ATOM     29  C   UNL d   1      51.026  34.287  51.550  0.00  0.00     0.001 A 
ATOM     30  C   UNL d   1      50.214  34.228  51.710  0.00  0.00     0.000 A 
ATOM     31  C   UNL d   1      49.955  34.181  52.502  0.00  0.00     0.001 A 
ATOM     32  C   UNL d   1      50.500  34.194  53.118  0.00  0.00     0.013 A 
ENDBRANCH  24  27
ENDBRANCH  23  24
ENDBRANCH   2  23
TORSDOF 5
ENDMDL
MODEL 2
REMARK VINA RESULT:      -8.8      0.917      4.136
REMARK  5 active torsions:
REMARK  status: ('A' for Active; 'I' for Inactive)
REMARK    1  A    between atoms: N_2  and  S_1 
REMARK    2  A    between atoms: C_14  and  S_1 
REMARK    3  A    between atoms: C_4  and  N_2 
REMARK    4  A    between atoms: S_6  and  C_3 
REMARK    5  A    between atoms: C_10  and  S_6 
ROOT
ATOM      1  C   UNL d   1      52.714  33.704  53.861  0.00  0.00     0.070 A 
ATOM      2  C   UNL d   1      53.859  32.856  53.887  0.00  0.00     0.095 A 
ATOM      3  C   UNL d   1      53.094  34.232  54.369  0.00  0.00     0.202 A 
ATOM      4  C   UNL d   1      53.097  33.016  53.620  0.00  0.00     0.030 A 
ATOM      5  C   UNL d   1      53.856  34.071  54.636  0.00  0.00     0.041 A 
ATOM      6  C   UNL d   1      54.239  33.384  54.395  0.00  0.00     0.022 A 
ATOM      7  O   UNL d   1      52.706  34.935  54.618  0.00  0.00    -0.286 OA
ATOM      8  C   UNL d   1      54.239  34.605  55.150  0.00  0.00     0.003 A 
ATOM      9  C   UNL d   1      55.004  33.221  54.662  0.00  0.00     0.002 A 
ATOM     10  C   UNL d   1      55.001  34.445  55.416  0.00  0.00     0.000 A 
ATOM     11  C   UNL d   1      55.388  33.754  55.176  0.00  0.00     0.000 A 
ENDROOT
BRANCH   1  12
ATOM     12  S   UNL d   1      51.952  33.864  53.594  0.00  0.00    -0.082 SA
BRANCH  12  13
ATOM     13  C   UNL d   1      51.187  34.021  53.327  0.00  0.00     0.047 A 
ATOM     14  C   UNL d   1      51.047  34.172  52.528  0.00  0.00     0.087 A 
ATOM     15  N   UNL d   1      51.677  34.166  51.995  0.00  0.00    -0.244 NA
ATOM     16  C   UNL d   1      50.283  34.329  52.266  0.00  0.00     0.018 A 
ATOM     17  C   UNL d   1      51.537  34.317  51.197  0.00  0.00     0.099 A 
ATOM     18  C   UNL d   1      50.768  34.474  50.935  0.00  0.00     0.021 A 
ATOM     19  C   UNL d   1      50.142  34.482  51.459  0.00  0.00     0.003 A 
ATOM     20  C   UNL d   1      49.656  34.336  52.794  0.00  0.00     0.002 A 
ATOM     21  C   UNL d   1      49.785  34.186  53.595  0.00  0.00     0.001 A 
ATOM     22  C   UNL d   1      50.554  34.027  53.865  0.00  0.00     0.008 A 
ENDBRANCH  12  13
ENDBRANCH   1  12
BRANCH   2  23
ATOM     23  N   UNL d   1      54.247  32.153  53.638  0.00  0.00    -0.158 NA
BRANCH  23  24
ATOM     24  S   UNL d   1      53.816  31.450  53.569  0.00  0.00     0.285 S 
ATOM     25  O   UNL d   1      53.747  31.570  52.746  0.00  0.00    -0.198 OA
ATOM     26  O   UNL d   1      53.883  31.329  54.384  0.00  0.00    -0.198 OA
BRANCH  24  27
ATOM     27  C   UNL d   1      53.384  30.744  53.501  0.00  0.00     0.105 A 
ATOM     28  C   UNL d   1      53.480  30.146  54.059  0.00  0.00     0.013 A 
ATOM     29  C   UNL d   1      53.050  29.437  53.996  0.00  0.00     0.001 A 
ATOM     30  C   UNL d   1      52.520  29.332  53.365  0.00  0.00     0.000 A 
ATOM     31  C   UNL d   1      52.428  29.942  52.804  0.00  0.00     0.001 A 
ATOM     32  C   UNL d   1      52.858  30.640  52.874  0.00  0.00     0.013 A 
ENDBRANCH  24  27
ENDBRANCH  23  24
ENDBRANCH   2  23
TORSDOF 5
ENDMDL
MODEL 3
REMARK VINA RESULT:      -7.1      1.047      3.180
REMARK  5 active torsions:
REMARK  status: ('A' for Active; 'I' for Inactive)
REMARK    1  A    between atoms: N_2  and  S_1 
REMARK    2  A    between atoms: C_14  and  S_1 
REMARK    3  A    between atoms: C_4  and  N_2 
REMARK    4  A    between atoms: S_6  and  C_3 
REMARK    5  A    between atoms: C_10  and  S_6 
ROOT
ATOM      1  C   UNL d   1      52.206  32.350  53.153  0.00  0.00     0.070 A 
ATOM      2  C   UNL d   1      52.460  33.732  53.394  0.00  0.00     0.095 A 
ATOM      3  C   UNL d   1      51.417  32.524  52.989  0.00  0.00     0.202 A 
ATOM      4  C   UNL d   1      52.729  32.954  53.355  0.00  0.00     0.030 A 
ATOM      5  C   UNL d   1      51.149  33.302  53.028  0.00  0.00     0.041 A 
ATOM      6  C   UNL d   1      51.670  33.905  53.230  0.00  0.00     0.022 A 
ATOM      7  O   UNL d   1      50.881  31.911  52.782  0.00  0.00    -0.286 OA
ATOM      8  C   UNL d   1      50.351  33.477  52.863  0.00  0.00     0.003 A 
ATOM      9  C   UNL d   1      51.404  34.687  53.270  0.00  0.00     0.002 A 
ATOM     10  C   UNL d   1      50.083  34.254  52.902  0.00  0.00     0.000 A 
ATOM     11  C   UNL d   1      50.605  34.863  53.105  0.00  0.00     0.000 A 
ENDROOT
BRANCH   1  12
ATOM     12  S   UNL d   1      52.475  31.573  53.114  0.00  0.00    -0.082 SA
BRANCH  12  13
ATOM     13  C   UNL d   1      52.746  30.794  53.073  0.00  0.00     0.047 A 
ATOM     14  C   UNL d   1      52.968  30.393  53.759  0.00  0.00     0.087 A 
ATOM     15  N   UNL d   1      52.918  30.775  54.488  0.00  0.00    -0.244 NA
ATOM     16  C   UNL d   1      53.237  29.617  53.714  0.00  0.00     0.018 A 
ATOM     17  C   UNL d   1      53.140  30.374  55.174  0.00  0.00     0.099 A 
ATOM     18  C   UNL d   1      53.411  29.594  55.127  0.00  0.00     0.021 A 
ATOM     19  C   UNL d   1      53.462  29.213  54.407  0.00  0.00     0.003 A 
ATOM     20  C   UNL d   1      53.287  29.237  52.990  0.00  0.00     0.002 A 
ATOM     21  C   UNL d   1      53.068  29.628  52.297  0.00  0.00     0.001 A 
ATOM     22  C   UNL d   1      52.795  30.411  52.337  0.00  0.00     0.008 A 
ENDBRANCH  12  13
ENDBRANCH   1  12
BRANCH   2  23
ATOM     23  N   UNL d   1      52.996  34.345  53.601  0.00  0.00    -0.158 NA
BRANCH  23  24
ATOM     24  S   UNL d   1      53.638  34.179  54.095  0.00  0.00     0.285 S 
ATOM     25  O   UNL d   1      53.160  34.315  54.766  0.00  0.00    -0.198 OA
ATOM     26  O   UNL d   1      54.114  34.044  53.434  0.00  0.00    -0.198 OA
BRANCH  24  27
ATOM     27  C   UNL d   1      54.283  34.013  54.592  0.00  0.00     0.105 A 
ATOM     28  C   UNL d   1      54.166  33.909  55.400  0.00  0.00     0.013 A 
ATOM     29  C   UNL d   1      54.808  33.742  55.902  0.00  0.00     0.001 A 
ATOM     30  C   UNL d   1      55.572  33.680  55.584  0.00  0.00     0.000 A 
ATOM     31  C   UNL d   1      55.684  33.786  54.764  0.00  0.00     0.001 A 
ATOM     32  C   UNL d   1      55.043  33.951  54.276  0.00  0.00     0.013 A 
ENDBRANCH  24  27
ENDBRANCH  23  24
ENDBRANCH   2  23
TORSDOF 5
ENDMDL
MODEL 4
REMARK VINA RESULT:      -6.2      1.236      4.389
REMARK  5 active torsions:
REMARK  status: ('A' for Active; 'I' for Inactive)
REMARK    1  A    between atoms: N_2  and  S_1 
REMARK    2  A    between atoms: C_14  and  S_1 
REMARK    3  A    between atoms: C_4  and  N_2 
REMARK    4  A    between atoms: S_6  and  C_3 
REMARK    5  A    between atoms: C_10  and  S_6 
ROOT
ATOM      1  C   UNL d   1      52.549  32.158  53.101  0.00  0.00     0.070 A 
ATOM      2  C   UNL d   1      53.521  31.655  54.014  0.00  0.00     0.095 A 
ATOM      3  C   UNL d   1      52.372  31.387  52.866  0.00  0.00     0.202 A 
ATOM      4  C   UNL d   1      53.125  32.292  53.675  0.00  0.00     0.030 A 
ATOM      5  C   UNL d   1      52.769  30.751  53.205  0.00  0.00     0.041 A 
ATOM      6  C   UNL d   1      53.344  30.885  53.779  0.00  0.00     0.022 A 
ATOM      7  O   UNL d   1      51.785  31.246  52.280  0.00  0.00    -0.286 OA
ATOM      8  C   UNL d   1      52.589  29.972  52.968  0.00  0.00     0.003 A 
ATOM      9  C   UNL d   1      53.744  30.247  54.121  0.00  0.00     0.002 A 
ATOM     10  C   UNL d   1      52.986  29.336  53.306  0.00  0.00     0.000 A 
ATOM     11  C   UNL d   1      53.564  29.468  53.883  0.00  0.00     0.000 A 
ENDROOT
BRANCH   1  12
ATOM     12  S   UNL d   1      52.153  32.795  52.763  0.00  0.00    -0.082 SA
BRANCH  12  13
ATOM     13  C   UNL d   1      51.757  33.435  52.422  0.00  0.00     0.047 A 
ATOM     14  C   UNL d   1      51.097  33.762  52.794  0.00  0.00     0.087 A 
ATOM     15  N   UNL d   1      50.833  33.446  53.508  0.00  0.00    -0.244 NA
ATOM     16  C   UNL d   1      50.706  34.400  52.452  0.00  0.00     0.018 A 
ATOM     17  C   UNL d   1      50.173  33.773  53.880  0.00  0.00     0.099 A 
ATOM     18  C   UNL d   1      49.781  34.414  53.534  0.00  0.00     0.021 A 
ATOM     19  C   UNL d   1      50.039  34.730  52.827  0.00  0.00     0.003 A 
ATOM     20  C   UNL d   1      50.967  34.715  51.742  0.00  0.00     0.002 A 
ATOM     21  C   UNL d   1      51.626  34.396  51.362  0.00  0.00     0.001 A 
ATOM     22  C   UNL d   1      52.025  33.752  51.702  0.00  0.00     0.008 A 
ENDBRANCH  12  13
ENDBRANCH   1  12
BRANCH   2  23
ATOM     23  N   UNL d   1      54.107  31.797  54.599  0.00  0.00    -0.158 NA
BRANCH  23  24
ATOM     24  S   UNL d   1      54.328  32.573  54.780  0.00  0.00     0.285 S 
ATOM     25  O   UNL d   1      54.821  32.593  54.108  0.00  0.00    -0.198 OA
ATOM     26  O   UNL d   1      53.840  32.556  55.447  0.00  0.00    -0.198 OA
BRANCH  24  27
ATOM     27  C   UNL d   1      54.548  33.353  54.963  0.00  0.00     0.105 A 
ATOM     28  C   UNL d   1      53.995  33.875  55.277  0.00  0.00     0.013 A 
ATOM     29  C   UNL d   1      54.210  34.657  55.462  0.00  0.00     0.001 A 
ATOM     30  C   UNL d   1      54.989  34.911  55.329  0.00  0.00     0.000 A 
ATOM     31  C   UNL d   1      55.544  34.377  55.011  0.00  0.00     0.001 A 
ATOM     32  C   UNL d   1      55.322  33.605  54.831  0.00  0.00     0.013 A 
ENDBRANCH  24  27
ENDBRANCH  23  24
ENDBRANCH   2  23
TORSDOF 5
ENDMDL
MODEL 5
REMARK VINA RESULT:      -6.2      9.434     11.000
REMARK  5 active torsions:
REMARK  status: ('A' for Active; 'I' for Inactive)
REMARK    1  A    between atoms: N_2  and  S_1 
REMARK    2  A    between atoms: C_14  and  S_1 
REMARK    3  A    between atoms: C_4  and  N_2 
REMARK    4  A    between atoms: S_6  and  C_3 
REMARK    5  A    between atoms: C_10  and  S_6 
ROOT
ATOM      1  C   UNL d   1      44.919  29.823  58.791  0.00  0.00     0.070 A 
ATOM      2  C   UNL d   1      45.215  29.069  57.618  0.00  0.00     0.095 A 
ATOM      3  C   UNL d   1      44.620  30.433  58.323  0.00  0.00     0.202 A 
ATOM      4  C   UNL d   1      45.217  29.140  58.438  0.00  0.00     0.030 A 
ATOM      5  C   UNL d   1      44.619  30.361  57.503  0.00  0.00     0.041 A 
ATOM      6  C   UNL d   1      44.916  29.680  57.151  0.00  0.00     0.022 A 
ATOM      7  O   UNL d   1      44.315  31.131  58.679  0.00  0.00    -0.286 OA
ATOM      8  C   UNL d   1      44.317  30.978  57.030  0.00  0.00     0.003 A 
ATOM      9  C   UNL d   1      44.916  29.605  56.327  0.00  0.00     0.002 A 
ATOM     10  C   UNL d   1      44.315  30.906  56.211  0.00  0.00     0.000 A 
ATOM     11  C   UNL d   1      44.614  30.223  55.854  0.00  0.00     0.000 A 
ENDROOT
BRANCH   1  12
ATOM     12  S   UNL d   1      44.921  29.893  59.611  0.00  0.00    -0.082 SA
BRANCH  12  13
ATOM     13  C   UNL d   1      44.924  29.967  60.434  0.00  0.00     0.047 A 
ATOM     14  C   UNL d   1      44.727  29.323  60.910  0.00  0.00     0.087 A 
ATOM     15  N   UNL d   1      44.525  28.603  60.561  0.00  0.00    -0.244 NA
ATOM     16  C   UNL d   1      44.731  29.399  61.729  0.00  0.00     0.018 A 
ATOM     17  C   UNL d   1      44.327  27.959  61.037  0.00  0.00     0.099 A 
ATOM     18  C   UNL d   1      44.333  28.039  61.860  0.00  0.00     0.021 A 
ATOM     19  C   UNL d   1      44.532  28.749  62.210  0.00  0.00     0.003 A 
ATOM     20  C   UNL d   1      44.932  30.113  62.078  0.00  0.00     0.002 A 
ATOM     21  C   UNL d   1      45.131  30.764  61.611  0.00  0.00     0.001 A 
ATOM     22  C   UNL d   1      45.128  30.692  60.784  0.00  0.00     0.008 A 
ENDBRANCH  12  13
ENDBRANCH   1  12
BRANCH   2  23
ATOM     23  N   UNL d   1      45.520  28.372  57.262  0.00  0.00    -0.158 NA
BRANCH  23  24
ATOM     24  S   UNL d   1      45.289  27.631  57.549  0.00  0.00     0.285 S 
ATOM     25  O   UNL d   1      44.536  27.729  57.204  0.00  0.00    -0.198 OA
ATOM     26  O   UNL d   1      46.034  27.531  57.891  0.00  0.00    -0.198 OA
BRANCH  24  27
ATOM     27  C   UNL d   1      45.059  26.886  57.837  0.00  0.00     0.105 A 
ATOM     28  C   UNL d   1      44.551  26.412  57.395  0.00  0.00     0.013 A 
ATOM     29  C   UNL d   1      44.316  25.666  57.678  0.00  0.00     0.001 A 
ATOM     30  C   UNL d   1      44.597  25.399  58.412  0.00  0.00     0.000 A 
ATOM     31  C   UNL d   1      45.111  25.884  58.854  0.00  0.00     0.001 A 
ATOM     32  C   UNL d   1      45.338  26.620  58.566  0.00  0.00     0.013 A 
ENDBRANCH  24  27
ENDBRANCH  23  24
ENDBRANCH   2  23
TORSDOF 5
ENDMDL
MODEL 6
REMARK VINA RESULT:      -6.1      1.275      4.312
REMARK  5 active torsions:
REMARK  status: ('A' for Active; 'I' for Inactive)
REMARK    1  A    between atoms: N_2  and  S_1 
REMARK    2  A    between atoms: C_14  and  S_1 
REMARK    3  A    between atoms: C_4  and  N_2 
REMARK    4  A    between atoms: S_6  and  C_3 
REMARK    5  A    between atoms: C_10  and  S_6 
ROOT
ATOM      1  C   UNL d   1      52.357  33.700  53.768  0.00  0.00     0.070 A 
ATOM      2  C   UNL d   1      51.552  32.821  52.987  0.00  0.00     0.095 A 
ATOM      3  C   UNL d   1      51.858  34.328  53.577  0.00  0.00     0.202 A 
ATOM      4  C   UNL d   1      52.205  32.946  53.473  0.00  0.00     0.030 A 
ATOM      5  C   UNL d   1      51.205  34.202  53.091  0.00  0.00     0.041 A 
ATOM      6  C   UNL d   1      51.052  33.449  52.796  0.00  0.00     0.022 A 
ATOM      7  O   UNL d   1      52.010  35.099  53.875  0.00  0.00    -0.286 OA
ATOM      8  C   UNL d   1      50.700  34.837  52.897  0.00  0.00     0.003 A 
ATOM      9  C   UNL d   1      50.397  33.320  52.308  0.00  0.00     0.002 A 
ATOM     10  C   UNL d   1      50.048  34.711  52.412  0.00  0.00     0.000 A 
ATOM     11  C   UNL d   1      49.892  33.955  52.114  0.00  0.00     0.000 A 
ENDROOT
BRANCH   1  12
ATOM     12  S   UNL d   1      53.010  33.825  54.254  0.00  0.00    -0.082 SA
BRANCH  12  13
ATOM     13  C   UNL d   1      53.666  33.948  54.741  0.00  0.00     0.047 A 
ATOM     14  C   UNL d   1      54.425  33.771  54.469  0.00  0.00     0.087 A 
ATOM     15  N   UNL d   1      54.526  33.471  53.708  0.00  0.00    -0.244 NA
ATOM     16  C   UNL d   1      55.076  33.894  54.957  0.00  0.00     0.018 A 
ATOM     17  C   UNL d   1      55.285  33.295  53.436  0.00  0.00     0.099 A 
ATOM     18  C   UNL d   1      55.938  33.420  53.928  0.00  0.00     0.021 A 
ATOM     19  C   UNL d   1      55.842  33.716  54.683  0.00  0.00     0.003 A 
ATOM     20  C   UNL d   1      54.976  34.193  55.714  0.00  0.00     0.002 A 
ATOM     21  C   UNL d   1      54.222  34.372  55.996  0.00  0.00     0.001 A 
ATOM     22  C   UNL d   1      53.561  34.250  55.507  0.00  0.00     0.008 A 
ENDBRANCH  12  13
ENDBRANCH   1  12
BRANCH   2  23
ATOM     23  N   UNL d   1      51.400  32.051  52.689  0.00  0.00    -0.158 NA
BRANCH  23  24
ATOM     24  S   UNL d   1      51.892  31.422  52.904  0.00  0.00     0.285 S 
ATOM     25  O   UNL d   1      52.393  31.589  52.258  0.00  0.00    -0.198 OA
ATOM     26  O   UNL d   1      51.399  31.254  53.545  0.00  0.00    -0.198 OA
BRANCH  24  27
ATOM     27  C   UNL d   1      52.387  30.791  53.122  0.00  0.00     0.105 A 
ATOM     28  C   UNL d   1      52.181  30.304  53.753  0.00  0.00     0.013 A 
ATOM     29  C   UNL d   1      52.672  29.670  53.975  0.00  0.00     0.001 A 
ATOM     30  C   UNL d   1      53.375  29.529  53.556  0.00  0.00     0.000 A 
ATOM     31  C   UNL d   1      53.577  30.026  52.918  0.00  0.00     0.001 A 
ATOM     32  C   UNL d   1      53.085  30.650  52.705  0.00  0.00     0.013 A 
ENDBRANCH  24  27
ENDBRANCH  23  24
ENDBRANCH   2  23
TORSDOF 5
ENDMDL
MODEL 7
REMARK VINA RESULT:      -6.0      1.136      3.717
REMARK  5 active torsions:
REMARK  status: ('A' for Active; 'I' for Inactive)
REMARK    1  A    between atoms: N_2  and  S_1 
REMARK    2  A    between atoms: C_14  and  S_1 
REMARK    3  A    between atoms: C_4  and  N_2 
REMARK    4  A    between atoms: S_6  and  C_3 
REMARK    5  A    between atoms: C_10  and  S_6 
ROOT
ATOM      1  C   UNL d   1      53.658  32.018  53.823  0.00  0.00     0.070 A 
ATOM      2  C   UNL d   1      52.565  31.579  53.021  0.00  0.00     0.095 A 
ATOM      3  C   UNL d   1      53.821  31.236  54.029  0.00  0.00     0.202 A 
ATOM      4  C   UNL d   1      53.030  32.190  53.319  0.00  0.00     0.030 A 
ATOM      5  C   UNL d   1      53.356  30.626  53.731  0.00  0.00     0.041 A 
ATOM      6  C   UNL d   1      52.728  30.797  53.228  0.00  0.00     0.022 A 
ATOM      7  O   UNL d   1      54.461  31.057  54.544  0.00  0.00    -0.286 OA
ATOM      8  C   UNL d   1      53.520  29.835  53.940  0.00  0.00     0.003 A 
ATOM      9  C   UNL d   1      52.259  30.185  52.927  0.00  0.00     0.002 A 
ATOM     10  C   UNL d   1      53.055  29.225  53.642  0.00  0.00     0.000 A 
ATOM     11  C   UNL d   1      52.424  29.395  53.136  0.00  0.00     0.000 A 
ENDROOT
BRANCH   1  12
ATOM     12  S   UNL d   1      54.123  32.629  54.120  0.00  0.00    -0.082 SA
BRANCH  12  13
ATOM     13  C   UNL d   1      54.589  33.244  54.417  0.00  0.00     0.047 A 
ATOM     14  C   UNL d   1      54.241  33.868  54.830  0.00  0.00     0.087 A 
ATOM     15  N   UNL d   1      53.425  33.875  54.946  0.00  0.00    -0.244 NA
ATOM     16  C   UNL d   1      54.708  34.478  55.123  0.00  0.00     0.018 A 
ATOM     17  C   UNL d   1      53.077  34.499  55.359  0.00  0.00     0.099 A 
ATOM     18  C   UNL d   1      53.548  35.111  55.653  0.00  0.00     0.021 A 
ATOM     19  C   UNL d   1      54.357  35.108  55.540  0.00  0.00     0.003 A 
ATOM     20  C   UNL d   1      55.519  34.472  55.008  0.00  0.00     0.002 A 
ATOM     21  C   UNL d   1      55.878  33.853  54.596  0.00  0.00     0.001 A 
ATOM     22  C   UNL d   1      55.411  33.234  54.298  0.00  0.00     0.008 A 
ENDBRANCH  12  13
ENDBRANCH   1  12
BRANCH   2  23
ATOM     23  N   UNL d   1      51.925  31.758  52.507  0.00  0.00    -0.158 NA
BRANCH  23  24
ATOM     24  S   UNL d   1      51.556  32.497  52.554  0.00  0.00     0.285 S 
ATOM     25  O   UNL d   1      51.032  32.201  53.133  0.00  0.00    -0.198 OA
ATOM     26  O   UNL d   1      52.072  32.792  51.982  0.00  0.00    -0.198 OA
BRANCH  24  27
ATOM     27  C   UNL d   1      51.185  33.239  52.601  0.00  0.00     0.105 A 
ATOM     28  C   UNL d   1      50.567  33.358  53.131  0.00  0.00     0.013 A 
ATOM     29  C   UNL d   1      50.192  34.099  53.182  0.00  0.00     0.001 A 
ATOM     30  C   UNL d   1      50.444  34.722  52.694  0.00  0.00     0.000 A 
ATOM     31  C   UNL d   1      51.072  34.594  52.160  0.00  0.00     0.001 A 
ATOM     32  C   UNL d   1      51.436  33.857  52.117  0.00  0.00     0.013 A 
ENDBRANCH  24  27
ENDBRANCH  23  24
ENDBRANCH   2  23
TORSDOF 5
ENDMDL
