MODEL 1
REMARK VINA RESULT:      67.8      0.000      0.000
REMARK  6 active torsions:
REMARK  status: ('A' for Active; 'I' for Inactive)
REMARK       I    between atoms: N_6  and  C_1 
REMARK       I    between atoms: N_9  and  C_1 
REMARK    1  A    between atoms: N_2  and  C_3 
REMARK    2  A    between atoms: C_3  and  C_5 
REMARK    3  A    between atoms: C_7  and  C_3 
REMARK    4  A    between atoms: C_16  and  N_4 
REMARK    5  A    between atoms: C_5  and  N_6 
REMARK    6  A    between atoms: C_19  and  N_9 
ROOT
ATOM      1  C   UNL d   1     -55.325-100.646 -43.635  0.00  0.00     0.088 C 
ENDROOT
BRANCH   1   2
ATOM      2  N   UNL d   1     -55.225-100.929 -42.863  0.00  0.00    -0.300 N 
ATOM      3  C   UNL d   1     -54.812-100.478 -42.311  0.00  0.00     0.100 A 
ATOM      4  C   UNL d   1     -54.712-100.758 -41.547  0.00  0.00     0.100 A 
ATOM      5  N   UNL d   1     -55.022-101.494 -41.318  0.00  0.00    -0.301 N 
ATOM      6  C   UNL d   1     -55.443-101.949 -41.892  0.00  0.00     0.100 A 
ATOM      7  C   UNL d   1     -55.535-101.657 -42.650  0.00  0.00     0.100 A 
BRANCH   5   8
ATOM      8  C   UNL d   1     -54.931-101.785 -40.565  0.00  0.00     0.064 A 
ATOM      9  C   UNL d   1     -54.894-102.592 -40.419  0.00  0.00     0.018 A 
ATOM     10  C   UNL d   1     -54.801-102.878 -39.649  0.00  0.00     0.002 A 
ATOM     11  C   UNL d   1     -54.744-102.344 -39.016  0.00  0.00     0.000 A 
ATOM     12  C   UNL d   1     -54.781-101.528 -39.161  0.00  0.00     0.002 A 
ATOM     13  C   UNL d   1     -54.874-101.251 -39.932  0.00  0.00     0.018 A 
ENDBRANCH   5   8
ENDBRANCH   1   2
BRANCH   1  14
ATOM     14  C   UNL d   1     -55.380 -99.837 -43.776  0.00  0.00     0.103 C 
ATOM     15  C   UNL d   1     -54.714 -99.368 -43.718  0.00  0.00     0.022 C 
BRANCH  14  16
ATOM     16  N   UNL d   1     -56.107 -99.511 -43.975  0.00  0.00    -0.190 NA
ATOM     17  C   UNL d   1     -56.196 -99.109 -44.694  0.00  0.00     0.369 C 
ATOM     18  N   UNL d   1     -56.923 -98.783 -44.892  0.00  0.00    -0.191 NA
ATOM     19  O   UNL d   1     -55.554 -99.042 -45.202  0.00  0.00    -0.242 OA
BRANCH  18  20
ATOM     20  C   UNL d   1     -57.567 -98.851 -44.381  0.00  0.00     0.086 A 
ATOM     21  C   UNL d   1     -58.321 -99.014 -44.694  0.00  0.00     0.019 A 
ATOM     22  C   UNL d   1     -58.963 -99.082 -44.188  0.00  0.00     0.002 A 
ATOM     23  C   UNL d   1     -58.863 -98.990 -43.375  0.00  0.00     0.000 A 
ATOM     24  C   UNL d   1     -58.113 -98.828 -43.070  0.00  0.00     0.002 A 
ATOM     25  C   UNL d   1     -57.461 -98.758 -43.575  0.00  0.00     0.019 A 
ENDBRANCH  18  20
ENDBRANCH  14  16
ENDBRANCH   1  14
BRANCH   1  26
ATOM     26  C   UNL d   1     -55.370-101.177 -44.260  0.00  0.00     0.047 A 
ATOM     27  S   UNL d   1     -56.059-101.479 -44.603  0.00  0.00    -0.085 SA
ATOM     28  C   UNL d   1     -55.843-101.990 -45.209  0.00  0.00     0.035 A 
ATOM     29  C   UNL d   1     -55.017-102.010 -45.248  0.00  0.00     0.007 A 
ATOM     30  C   UNL d   1     -54.728-101.508 -44.663  0.00  0.00     0.009 A 
ENDBRANCH   1  26
TORSDOF 6
ENDMDL
