MODEL 1
REMARK VINA RESULT:      -5.3      0.000      0.000
REMARK  6 active torsions:
REMARK  status: ('A' for Active; 'I' for Inactive)
REMARK    1  A    between atoms: S_10  and  C_6 
REMARK    2  A    between atoms: C_14  and  S_10 
REMARK    3  A    between atoms: C_11  and  C_14 
REMARK       I    between atoms: N_15  and  C_11 
REMARK    4  A    between atoms: C_20  and  N_15 
REMARK    5  A    between atoms: C_18  and  C_20 
REMARK    6  A    between atoms: C_21  and  C_18 
ROOT
ATOM      1  C   UNL d   1     -41.456-122.873 -49.039  0.00  0.00     0.187 A 
ATOM      2  C   UNL d   1     -42.199-123.228 -48.993  0.00  0.00     0.081 A 
ATOM      3  N   UNL d   1     -41.180-122.600 -49.772  0.00  0.00    -0.197 NA
ATOM      4  N   UNL d   1     -42.397-123.042 -50.395  0.00  0.00    -0.200 NA
ATOM      5  C   UNL d   1     -42.668-123.313 -49.666  0.00  0.00     0.189 A 
ATOM      6  C   UNL d   1     -41.652-122.684 -50.454  0.00  0.00     0.198 A 
ATOM      7  C   UNL d   1     -42.324-123.442 -48.207  0.00  0.00     0.029 A 
ATOM      8  O   UNL d   1     -41.124-122.867 -48.292  0.00  0.00    -0.289 OA
ATOM      9  C   UNL d   1     -41.658-123.220 -47.766  0.00  0.00     0.102 A 
ATOM     10  N   UNL d   1     -43.409-123.670 -49.606  0.00  0.00    -0.127 N 
ATOM     11  C   UNL d   1     -43.003-123.817 -47.906  0.00  0.00     0.002 C 
ATOM     12  C   UNL d   1     -41.554-123.332 -46.955  0.00  0.00     0.027 C 
ENDROOT
BRANCH   6  13
ATOM     13  S   UNL d   1     -41.374-122.411 -51.178  0.00  0.00    -0.043 SA
BRANCH  13  14
ATOM     14  C   UNL d   1     -41.718-122.664 -51.881  0.00  0.00     0.101 C 
BRANCH  14  15
ATOM     15  C   UNL d   1     -41.590-122.245 -52.575  0.00  0.00     0.286 C 
ATOM     16  O   UNL d   1     -41.123-121.561 -52.568  0.00  0.00    -0.265 OA
ATOM     17  N   UNL d   1     -41.925-122.502 -53.280  0.00  0.00    -0.206 NA
BRANCH  17  18
ATOM     18  C   UNL d   1     -41.794-122.077 -53.980  0.00  0.00     0.106 C 
BRANCH  18  19
ATOM     19  C   UNL d   1     -42.063-122.379 -54.686  0.00  0.00     0.066 C 
BRANCH  19  20
ATOM     20  C   UNL d   1     -42.054-121.904 -55.365  0.00  0.00     0.236 C 
ATOM     21  O   UNL d   1     -42.668-121.943 -55.899  0.00  0.00    -0.283 OA
ENDBRANCH  19  20
ENDBRANCH  18  19
ENDBRANCH  17  18
ENDBRANCH  14  15
ENDBRANCH  13  14
ENDBRANCH   6  13
TORSDOF 6
ENDMDL
MODEL 2
REMARK VINA RESULT:      -4.8      0.991      5.506
REMARK  6 active torsions:
REMARK  status: ('A' for Active; 'I' for Inactive)
REMARK    1  A    between atoms: S_10  and  C_6 
REMARK    2  A    between atoms: C_14  and  S_10 
REMARK    3  A    between atoms: C_11  and  C_14 
REMARK       I    between atoms: N_15  and  C_11 
REMARK    4  A    between atoms: C_20  and  N_15 
REMARK    5  A    between atoms: C_18  and  C_20 
REMARK    6  A    between atoms: C_21  and  C_18 
ROOT
ATOM      1  C   UNL d   1     -41.979-121.845 -53.899  0.00  0.00     0.187 A 
ATOM      2  C   UNL d   1     -41.733-122.527 -54.291  0.00  0.00     0.081 A 
ATOM      3  N   UNL d   1     -41.851-121.777 -53.082  0.00  0.00    -0.197 NA
ATOM      4  N   UNL d   1     -41.235-123.075 -53.069  0.00  0.00    -0.200 NA
ATOM      5  C   UNL d   1     -41.364-123.140 -53.880  0.00  0.00     0.189 A 
ATOM      6  C   UNL d   1     -41.478-122.394 -52.664  0.00  0.00     0.198 A 
ATOM      7  C   UNL d   1     -41.930-122.441 -55.087  0.00  0.00     0.029 A 
ATOM      8  O   UNL d   1     -42.323-121.342 -54.444  0.00  0.00    -0.289 OA
ATOM      9  C   UNL d   1     -42.297-121.706 -55.188  0.00  0.00     0.102 A 
ATOM     10  N   UNL d   1     -41.123-123.817 -54.285  0.00  0.00    -0.127 N 
ATOM     11  C   UNL d   1     -41.785-122.999 -55.688  0.00  0.00     0.002 C 
ATOM     12  C   UNL d   1     -42.582-121.399 -55.899  0.00  0.00     0.027 C 
ENDROOT
BRANCH   6  13
ATOM     13  S   UNL d   1     -41.354-122.320 -51.855  0.00  0.00    -0.043 SA
BRANCH  13  14
ATOM     14  C   UNL d   1     -41.973-122.434 -51.325  0.00  0.00     0.101 C 
BRANCH  14  15
ATOM     15  C   UNL d   1     -41.840-122.369 -50.518  0.00  0.00     0.286 C 
ATOM     16  O   UNL d   1     -41.227-121.889 -50.234  0.00  0.00    -0.265 OA
ATOM     17  N   UNL d   1     -42.313-122.782 -49.987  0.00  0.00    -0.206 NA
BRANCH  17  18
ATOM     18  C   UNL d   1     -42.176-122.715 -49.172  0.00  0.00     0.106 C 
BRANCH  18  19
ATOM     19  C   UNL d   1     -42.631-123.149 -48.654  0.00  0.00     0.066 C 
BRANCH  19  20
ATOM     20  C   UNL d   1     -42.307-123.397 -47.934  0.00  0.00     0.236 C 
ATOM     21  O   UNL d   1     -42.267-122.880 -47.305  0.00  0.00    -0.283 OA
ENDBRANCH  19  20
ENDBRANCH  18  19
ENDBRANCH  17  18
ENDBRANCH  14  15
ENDBRANCH  13  14
ENDBRANCH   6  13
TORSDOF 6
ENDMDL
