MODEL 1
REMARK VINA RESULT:       3.8      0.000      0.000
REMARK  5 active torsions:
REMARK  status: ('A' for Active; 'I' for Inactive)
REMARK    1  A    between atoms: C_3  and  C_1 
REMARK    2  A    between atoms: N_8  and  C_3 
REMARK    3  A    between atoms: C_9  and  C_3 
REMARK    4  A    between atoms: C_17  and  C_7 
REMARK    5  A    between atoms: C_10  and  N_8 
ROOT
ATOM      1  C   UNL d   1     -42.217-123.068 -50.175  0.00  0.00     0.109 C 
ENDROOT
BRANCH   1   2
ATOM      2  C   UNL d   1     -41.855-122.655 -50.793  0.00  0.00     0.160 A 
ATOM      3  C   UNL d   1     -41.674-123.026 -51.515  0.00  0.00     0.258 A 
ATOM      4  C   UNL d   1     -41.305-122.580 -52.124  0.00  0.00     0.238 A 
ATOM      5  O   UNL d   1     -41.852-123.814 -51.627  0.00  0.00    -0.281 OA
ATOM      6  O   UNL d   1     -41.123-122.951 -52.847  0.00  0.00    -0.283 OA
ATOM      7  C   UNL d   1     -41.127-121.792 -52.012  0.00  0.00     0.073 A 
ATOM      8  C   UNL d   1     -41.309-121.421 -51.290  0.00  0.00     0.146 A 
ATOM      9  O   UNL d   1     -41.666-121.842 -50.690  0.00  0.00    -0.299 OA
BRANCH   8  10
ATOM     10  C   UNL d   1     -41.123-120.614 -51.184  0.00  0.00     0.259 C 
ATOM     11  O   UNL d   1     -41.160-120.070 -51.824  0.00  0.00    -0.281 OA
ENDBRANCH   8  10
ENDBRANCH   1   2
BRANCH   1  12
ATOM     12  N   UNL d   1     -41.784-123.566 -49.676  0.00  0.00    -0.225 NA
BRANCH  12  13
ATOM     13  C   UNL d   1     -41.720-123.402 -48.881  0.00  0.00     0.163 A 
ATOM     14  N   UNL d   1     -41.181-122.839 -48.611  0.00  0.00    -0.225 NA
ATOM     15  C   UNL d   1     -41.123-122.680 -47.805  0.00  0.00     0.101 A 
ATOM     16  C   UNL d   1     -41.602-123.080 -47.269  0.00  0.00     0.021 A 
ATOM     17  C   UNL d   1     -42.147-123.646 -47.519  0.00  0.00     0.005 A 
ATOM     18  C   UNL d   1     -42.209-123.809 -48.322  0.00  0.00     0.039 A 
ENDBRANCH  12  13
ENDBRANCH   1  12
BRANCH   1  19
ATOM     19  C   UNL d   1     -43.040-122.977 -50.057  0.00  0.00     0.022 A 
ATOM     20  C   UNL d   1     -43.370-122.223 -49.998  0.00  0.00     0.031 A 
ATOM     21  C   UNL d   1     -44.178-122.142 -49.882  0.00  0.00     0.140 A 
ATOM     22  F   UNL d   1     -44.518-121.380 -49.822  0.00  0.00    -0.204 F 
ATOM     23  C   UNL d   1     -44.659-122.809 -49.823  0.00  0.00     0.030 A 
ATOM     24  C   UNL d   1     -44.336-123.564 -49.880  0.00  0.00     0.002 A 
ATOM     25  C   UNL d   1     -43.520-123.644 -49.998  0.00  0.00     0.002 A 
ENDBRANCH   1  19
TORSDOF 5
ENDMDL
