MODEL 1
REMARK VINA RESULT:      23.1      0.000      0.000
REMARK  3 active torsions:
REMARK  status: ('A' for Active; 'I' for Inactive)
REMARK    1  A    between atoms: C_6  and  C_1 
REMARK    2  A    between atoms: C_7  and  N_3 
REMARK    3  A    between atoms: C_10  and  C_7 
ROOT
ATOM      1  C   UNL d   1      24.264  12.382  -2.694  0.00  0.00     0.148 A 
ATOM      2  N   UNL d   1      24.767  12.029  -2.133  0.00  0.00    -0.227 NA
ATOM      3  N   UNL d   1      23.618  12.664  -2.267  0.00  0.00    -0.289 N 
ATOM      4  C   UNL d   1      23.711  12.498  -1.485  0.00  0.00     0.083 A 
ATOM      5  C   UNL d   1      24.433  12.100  -1.401  0.00  0.00     0.099 A 
ATOM      6  C   UNL d   1      23.247  12.648  -0.821  0.00  0.00     0.019 A 
ATOM      7  C   UNL d   1      24.658  11.868  -0.655  0.00  0.00     0.021 A 
ATOM      8  C   UNL d   1      23.498  12.406  -0.098  0.00  0.00     0.002 A 
ATOM      9  C   UNL d   1      24.220  12.008  -0.014  0.00  0.00     0.002 A 
ENDROOT
BRANCH   1  10
ATOM     10  C   UNL d   1      24.389  12.436  -3.510  0.00  0.00     0.035 A 
ATOM     11  C   UNL d   1      24.263  11.780  -3.992  0.00  0.00     0.005 A 
ATOM     12  C   UNL d   1      24.389  11.834  -4.808  0.00  0.00     0.021 A 
ATOM     13  C   UNL d   1      24.640  12.544  -5.143  0.00  0.00     0.103 A 
ATOM     14  C   UNL d   1      24.767  13.203  -4.660  0.00  0.00     0.021 A 
ATOM     15  N   UNL d   1      24.765  12.598  -5.958  0.00  0.00    -0.148 N 
ATOM     16  C   UNL d   1      24.642  13.149  -3.843  0.00  0.00     0.005 A 
ENDBRANCH   1  10
BRANCH   3  17
ATOM     17  C   UNL d   1      23.052  13.034  -2.724  0.00  0.00     0.082 C 
BRANCH  17  18
ATOM     18  C   UNL d   1      22.266  13.069  -2.514  0.00  0.00     0.019 C 
ATOM     19  C   UNL d   1      21.679  13.346  -3.016  0.00  0.00     0.002 C 
ENDBRANCH  17  18
ENDBRANCH   3  17
TORSDOF 3
ENDMDL
MODEL 2
REMARK VINA RESULT:      25.3      9.525     10.014
REMARK  3 active torsions:
REMARK  status: ('A' for Active; 'I' for Inactive)
REMARK    1  A    between atoms: C_6  and  C_1 
REMARK    2  A    between atoms: C_7  and  N_3 
REMARK    3  A    between atoms: C_10  and  C_7 
ROOT
ATOM      1  C   UNL d   1      14.017  12.387  -2.569  0.00  0.00     0.148 A 
ATOM      2  N   UNL d   1      14.094  11.781  -2.004  0.00  0.00    -0.227 NA
ATOM      3  N   UNL d   1      14.290  13.071  -2.200  0.00  0.00    -0.289 N 
ATOM      4  C   UNL d   1      14.524  12.903  -1.448  0.00  0.00     0.083 A 
ATOM      5  C   UNL d   1      14.401  12.094  -1.326  0.00  0.00     0.099 A 
ATOM      6  C   UNL d   1      14.836  13.366  -0.841  0.00  0.00     0.019 A 
ATOM      7  C   UNL d   1      14.596  11.781  -0.601  0.00  0.00     0.021 A 
ATOM      8  C   UNL d   1      15.018  13.026  -0.137  0.00  0.00     0.002 A 
ATOM      9  C   UNL d   1      14.895  12.217  -0.015  0.00  0.00     0.002 A 
ENDROOT
BRANCH   1  10
ATOM     10  C   UNL d   1      13.727  12.315  -3.341  0.00  0.00     0.035 A 
ATOM     11  C   UNL d   1      13.061  11.854  -3.490  0.00  0.00     0.005 A 
ATOM     12  C   UNL d   1      12.770  11.781  -4.262  0.00  0.00     0.021 A 
ATOM     13  C   UNL d   1      13.146  12.169  -4.884  0.00  0.00     0.103 A 
ATOM     14  C   UNL d   1      13.815  12.633  -4.735  0.00  0.00     0.021 A 
ATOM     15  N   UNL d   1      12.855  12.097  -5.654  0.00  0.00    -0.148 N 
ATOM     16  C   UNL d   1      14.105  12.705  -3.963  0.00  0.00     0.005 A 
ENDBRANCH   1  10
BRANCH   3  17
ATOM     17  C   UNL d   1      14.260  13.738  -2.668  0.00  0.00     0.082 C 
BRANCH  17  18
ATOM     18  C   UNL d   1      14.317  14.494  -2.369  0.00  0.00     0.019 C 
ATOM     19  C   UNL d   1      14.277  15.166  -2.837  0.00  0.00     0.002 C 
ENDBRANCH  17  18
ENDBRANCH   3  17
TORSDOF 3
ENDMDL
