MODEL 1
REMARK VINA RESULT:       3.0      0.000      0.000
REMARK  1 active torsions:
REMARK  status: ('A' for Active; 'I' for Inactive)
REMARK    1  A    between atoms: C_4  and  N_1 
ROOT
ATOM      1  N   UNL d   1      45.288 -14.412  44.598  0.00  0.00    -0.240 N 
ATOM      2  C   UNL d   1      44.543 -14.683  44.839  0.00  0.00     0.267 A 
ATOM      3  C   UNL d   1      45.794 -15.071  44.567  0.00  0.00     0.267 A 
ATOM      4  C   UNL d   1      45.361 -15.735  44.786  0.00  0.00     0.066 A 
ATOM      5  C   UNL d   1      44.588 -15.501  44.955  0.00  0.00     0.066 A 
ATOM      6  O   UNL d   1      43.868 -14.212  44.944  0.00  0.00    -0.267 OA
ATOM      7  O   UNL d   1      46.589 -15.049  44.352  0.00  0.00    -0.267 OA
ENDROOT
BRANCH   1   8
ATOM      8  C   UNL d   1      45.491 -13.633  44.422  0.00  0.00     0.097 A 
ATOM      9  C   UNL d   1      45.240 -13.295  43.713  0.00  0.00     0.156 A 
ATOM     10  F   UNL d   1      44.786 -13.738  43.182  0.00  0.00    -0.203 F 
ATOM     11  C   UNL d   1      45.441 -12.515  43.532  0.00  0.00     0.031 A 
ATOM     12  C   UNL d   1      45.895 -12.080  44.069  0.00  0.00     0.002 A 
ATOM     13  C   UNL d   1      46.145 -12.422  44.778  0.00  0.00     0.002 A 
ATOM     14  C   UNL d   1      45.940 -13.202  44.951  0.00  0.00     0.020 A 
ENDBRANCH   1   8
TORSDOF 1
ENDMDL
MODEL 2
REMARK VINA RESULT:       5.0      4.869      5.804
REMARK  1 active torsions:
REMARK  status: ('A' for Active; 'I' for Inactive)
REMARK    1  A    between atoms: C_4  and  N_1 
ROOT
ATOM      1  N   UNL d   1      46.537 -18.919  42.595  0.00  0.00    -0.240 N 
ATOM      2  C   UNL d   1      46.500 -18.131  42.342  0.00  0.00     0.267 A 
ATOM      3  C   UNL d   1      46.580 -19.396  41.916  0.00  0.00     0.267 A 
ATOM      4  C   UNL d   1      46.568 -18.903  41.257  0.00  0.00     0.066 A 
ATOM      5  C   UNL d   1      46.519 -18.121  41.516  0.00  0.00     0.066 A 
ATOM      6  O   UNL d   1      46.451 -17.467  42.838  0.00  0.00    -0.267 OA
ATOM      7  O   UNL d   1      46.626 -20.219  41.916  0.00  0.00    -0.267 OA
ENDROOT
BRANCH   1   8
ATOM      8  C   UNL d   1      46.533 -19.183  43.376  0.00  0.00     0.097 A 
ATOM      9  C   UNL d   1      46.584 -18.638  43.992  0.00  0.00     0.156 A 
ATOM     10  F   UNL d   1      46.639 -17.829  43.825  0.00  0.00    -0.203 F 
ATOM     11  C   UNL d   1      46.581 -18.897  44.775  0.00  0.00     0.031 A 
ATOM     12  C   UNL d   1      46.526 -19.706  44.933  0.00  0.00     0.002 A 
ATOM     13  C   UNL d   1      46.475 -20.250  44.314  0.00  0.00     0.002 A 
ATOM     14  C   UNL d   1      46.479 -19.983  43.533  0.00  0.00     0.020 A 
ENDBRANCH   1   8
TORSDOF 1
ENDMDL
