MODEL 1
REMARK VINA RESULT:     -11.6      0.000      0.000
REMARK  3 active torsions:
REMARK  status: ('A' for Active; 'I' for Inactive)
REMARK       I    between atoms: C_3  and  N_1 
REMARK    1  A    between atoms: C_5  and  C_3 
REMARK    2  A    between atoms: C_9  and  C_4 
REMARK    3  A    between atoms: C_14  and  C_6 
ROOT
ATOM      1  N   UNL d   1      53.179  32.856  53.601  0.00  0.00    -0.193 N 
ATOM      2  N   UNL d   1      52.778  32.203  53.272  0.00  0.00    -0.162 NA
ATOM      3  C   UNL d   1      52.926  33.633  53.515  0.00  0.00     0.303 C 
ATOM      4  C   UNL d   1      53.202  31.520  53.479  0.00  0.00     0.109 A 
ATOM      5  C   UNL d   1      53.840  32.557  54.002  0.00  0.00     0.088 A 
ATOM      6  C   UNL d   1      53.859  31.740  53.931  0.00  0.00     0.041 A 
ATOM      7  O   UNL d   1      53.356  34.271  53.861  0.00  0.00    -0.263 OA
ENDROOT
BRANCH   3   8
ATOM      8  C   UNL d   1      52.267  33.816  53.103  0.00  0.00     0.158 A 
ATOM      9  O   UNL d   1      51.493  33.853  53.414  0.00  0.00    -0.296 OA
ATOM     10  C   UNL d   1      50.983  34.060  52.802  0.00  0.00     0.134 A 
ATOM     11 BR   UNL d   1      50.141  34.160  52.875  0.00  0.00    -0.022 Br
ATOM     12  C   UNL d   1      51.425  34.150  52.133  0.00  0.00     0.034 A 
ATOM     13  C   UNL d   1      52.205  34.005  52.303  0.00  0.00     0.032 A 
ENDBRANCH   3   8
BRANCH   5  14
ATOM     14  C   UNL d   1      54.102  32.783  54.196  0.00  0.00     0.018 A 
ATOM     15  C   UNL d   1      54.739  33.163  53.834  0.00  0.00     0.002 A 
ATOM     16  C   UNL d   1      55.235  33.611  54.299  0.00  0.00     0.000 A 
ATOM     17  C   UNL d   1      55.135  33.702  55.099  0.00  0.00     0.000 A 
ATOM     18  C   UNL d   1      54.499  33.322  55.461  0.00  0.00     0.000 A 
ATOM     19  C   UNL d   1      55.631  34.149  55.562  0.00  0.00     0.000 C 
ATOM     20  C   UNL d   1      53.982  32.862  55.011  0.00  0.00     0.002 A 
ENDBRANCH   5  14
BRANCH   4  21
ATOM     21  C   UNL d   1      53.012  30.743  53.276  0.00  0.00     0.049 A 
ATOM     22  S   UNL d   1      52.911  30.154  53.824  0.00  0.00    -0.085 SA
ATOM     23  C   UNL d   1      52.725  29.460  53.382  0.00  0.00     0.035 A 
ATOM     24  C   UNL d   1      52.716  29.642  52.578  0.00  0.00     0.007 A 
ATOM     25  C   UNL d   1      52.897  30.445  52.533  0.00  0.00     0.009 A 
ENDBRANCH   4  21
TORSDOF 3
ENDMDL
MODEL 2
REMARK VINA RESULT:     -11.1      1.719      3.850
REMARK  3 active torsions:
REMARK  status: ('A' for Active; 'I' for Inactive)
REMARK       I    between atoms: C_3  and  N_1 
REMARK    1  A    between atoms: C_5  and  C_3 
REMARK    2  A    between atoms: C_9  and  C_4 
REMARK    3  A    between atoms: C_14  and  C_6 
ROOT
ATOM      1  N   UNL d   1      52.741  32.531  53.469  0.00  0.00    -0.193 N 
ATOM      2  N   UNL d   1      53.462  32.480  53.885  0.00  0.00    -0.162 NA
ATOM      3  C   UNL d   1      52.377  31.886  53.114  0.00  0.00     0.303 C 
ATOM      4  C   UNL d   1      53.646  33.242  54.159  0.00  0.00     0.109 A 
ATOM      5  C   UNL d   1      52.500  33.324  53.499  0.00  0.00     0.088 A 
ATOM      6  C   UNL d   1      53.051  33.763  53.920  0.00  0.00     0.041 A 
ATOM      7  O   UNL d   1      51.646  31.972  52.701  0.00  0.00    -0.263 OA
ENDROOT
BRANCH   3   8
ATOM      8  C   UNL d   1      52.696  31.155  53.145  0.00  0.00     0.158 A 
ATOM      9  O   UNL d   1      52.672  30.639  53.801  0.00  0.00    -0.296 OA
ATOM     10  C   UNL d   1      53.067  29.947  53.595  0.00  0.00     0.134 A 
ATOM     11 BR   UNL d   1      53.173  29.272  54.101  0.00  0.00    -0.022 Br
ATOM     12  C   UNL d   1      53.328  30.029  52.835  0.00  0.00     0.034 A 
ATOM     13  C   UNL d   1      53.109  30.758  52.552  0.00  0.00     0.032 A 
ENDBRANCH   3   8
BRANCH   5  14
ATOM     14  C   UNL d   1      52.167  33.461  53.332  0.00  0.00     0.018 A 
ATOM     15  C   UNL d   1      51.417  33.370  53.661  0.00  0.00     0.002 A 
ATOM     16  C   UNL d   1      50.779  33.678  53.259  0.00  0.00     0.000 A 
ATOM     17  C   UNL d   1      50.845  34.068  52.550  0.00  0.00     0.000 A 
ATOM     18  C   UNL d   1      51.596  34.158  52.221  0.00  0.00     0.000 A 
ATOM     19  C   UNL d   1      50.208  34.375  52.149  0.00  0.00     0.000 C 
ATOM     20  C   UNL d   1      52.257  33.855  52.610  0.00  0.00     0.002 A 
ENDBRANCH   5  14
BRANCH   4  21
ATOM     21  C   UNL d   1      54.310  33.459  54.599  0.00  0.00     0.049 A 
ATOM     22  S   UNL d   1      54.324  33.456  55.410  0.00  0.00    -0.085 SA
ATOM     23  C   UNL d   1      55.098  33.712  55.626  0.00  0.00     0.035 A 
ATOM     24  C   UNL d   1      55.537  33.864  54.944  0.00  0.00     0.007 A 
ATOM     25  C   UNL d   1      55.028  33.700  54.316  0.00  0.00     0.009 A 
ENDBRANCH   4  21
TORSDOF 3
ENDMDL
MODEL 3
REMARK VINA RESULT:     -10.6      1.707      2.988
REMARK  3 active torsions:
REMARK  status: ('A' for Active; 'I' for Inactive)
REMARK       I    between atoms: C_3  and  N_1 
REMARK    1  A    between atoms: C_5  and  C_3 
REMARK    2  A    between atoms: C_9  and  C_4 
REMARK    3  A    between atoms: C_14  and  C_6 
ROOT
ATOM      1  N   UNL d   1      53.180  32.516  53.619  0.00  0.00    -0.193 N 
ATOM      2  N   UNL d   1      52.449  32.576  53.221  0.00  0.00    -0.162 NA
ATOM      3  C   UNL d   1      53.587  31.809  53.715  0.00  0.00     0.303 C 
ATOM      4  C   UNL d   1      52.219  33.373  53.241  0.00  0.00     0.109 A 
ATOM      5  C   UNL d   1      53.380  33.280  53.874  0.00  0.00     0.088 A 
ATOM      6  C   UNL d   1      52.795  33.808  53.645  0.00  0.00     0.041 A 
ATOM      7  O   UNL d   1      54.325  31.784  54.124  0.00  0.00    -0.263 OA
ENDROOT
BRANCH   3   8
ATOM      8  C   UNL d   1      53.304  31.120  53.428  0.00  0.00     0.158 A 
ATOM      9  O   UNL d   1      52.933  30.522  53.876  0.00  0.00    -0.296 OA
ATOM     10  C   UNL d   1      52.728  29.911  53.364  0.00  0.00     0.134 A 
ATOM     11 BR   UNL d   1      52.337  29.189  53.589  0.00  0.00    -0.022 Br
ATOM     12  C   UNL d   1      52.964  30.123  52.621  0.00  0.00     0.034 A 
ATOM     13  C   UNL d   1      53.314  30.854  52.648  0.00  0.00     0.032 A 
ENDBRANCH   3   8
BRANCH   5  14
ATOM     14  C   UNL d   1      53.710  33.367  54.075  0.00  0.00     0.018 A 
ATOM     15  C   UNL d   1      54.453  33.451  53.725  0.00  0.00     0.002 A 
ATOM     16  C   UNL d   1      55.087  33.629  54.204  0.00  0.00     0.000 A 
ATOM     17  C   UNL d   1      55.025  33.730  55.007  0.00  0.00     0.000 A 
ATOM     18  C   UNL d   1      54.282  33.646  55.357  0.00  0.00     0.000 A 
ATOM     19  C   UNL d   1      55.658  33.908  55.484  0.00  0.00     0.000 C 
ATOM     20  C   UNL d   1      53.625  33.465  54.892  0.00  0.00     0.002 A 
ENDBRANCH   5  14
BRANCH   4  21
ATOM     21  C   UNL d   1      51.531  33.694  52.916  0.00  0.00     0.049 A 
ATOM     22  S   UNL d   1      50.816  33.688  53.299  0.00  0.00    -0.085 SA
ATOM     23  C   UNL d   1      50.274  34.066  52.776  0.00  0.00     0.035 A 
ATOM     24  C   UNL d   1      50.669  34.294  52.089  0.00  0.00     0.007 A 
ATOM     25  C   UNL d   1      51.450  34.053  52.196  0.00  0.00     0.009 A 
ENDBRANCH   4  21
TORSDOF 3
ENDMDL
MODEL 4
REMARK VINA RESULT:     -10.1      1.401      3.119
REMARK  3 active torsions:
REMARK  status: ('A' for Active; 'I' for Inactive)
REMARK       I    between atoms: C_3  and  N_1 
REMARK    1  A    between atoms: C_5  and  C_3 
REMARK    2  A    between atoms: C_9  and  C_4 
REMARK    3  A    between atoms: C_14  and  C_6 
ROOT
ATOM      1  N   UNL d   1      52.780  32.964  53.635  0.00  0.00    -0.193 N 
ATOM      2  N   UNL d   1      53.176  32.237  53.737  0.00  0.00    -0.162 NA
ATOM      3  C   UNL d   1      53.039  33.671  53.963  0.00  0.00     0.303 C 
ATOM      4  C   UNL d   1      52.746  31.659  53.324  0.00  0.00     0.109 A 
ATOM      5  C   UNL d   1      52.115  32.813  53.162  0.00  0.00     0.088 A 
ATOM      6  C   UNL d   1      52.090  32.016  52.969  0.00  0.00     0.041 A 
ATOM      7  O   UNL d   1      52.614  34.389  53.840  0.00  0.00    -0.263 OA
ENDROOT
BRANCH   3   8
ATOM      8  C   UNL d   1      53.700  33.708  54.410  0.00  0.00     0.158 A 
ATOM      9  O   UNL d   1      54.480  33.776  54.121  0.00  0.00    -0.296 OA
ATOM     10  C   UNL d   1      54.990  33.796  54.767  0.00  0.00     0.134 A 
ATOM     11 BR   UNL d   1      55.836  33.861  54.724  0.00  0.00    -0.022 Br
ATOM     12  C   UNL d   1      54.541  33.742  55.436  0.00  0.00     0.034 A 
ATOM     13  C   UNL d   1      53.757  33.689  55.232  0.00  0.00     0.032 A 
ENDBRANCH   3   8
BRANCH   5  14
ATOM     14  C   UNL d   1      51.855  33.091  53.051  0.00  0.00     0.018 A 
ATOM     15  C   UNL d   1      51.986  33.624  52.435  0.00  0.00     0.002 A 
ATOM     16  C   UNL d   1      51.405  34.168  52.264  0.00  0.00     0.000 A 
ATOM     17  C   UNL d   1      50.703  34.212  52.670  0.00  0.00     0.000 A 
ATOM     18  C   UNL d   1      50.572  33.679  53.286  0.00  0.00     0.000 A 
ATOM     19  C   UNL d   1      50.123  34.755  52.499  0.00  0.00     0.000 C 
ATOM     20  C   UNL d   1      51.147  33.119  53.477  0.00  0.00     0.002 A 
ENDBRANCH   5  14
BRANCH   4  21
ATOM     21  C   UNL d   1      52.930  30.856  53.269  0.00  0.00     0.049 A 
ATOM     22  S   UNL d   1      53.162  30.411  53.905  0.00  0.00    -0.085 SA
ATOM     23  C   UNL d   1      53.292  29.634  53.605  0.00  0.00     0.035 A 
ATOM     24  C   UNL d   1      53.136  29.623  52.795  0.00  0.00     0.007 A 
ATOM     25  C   UNL d   1      52.912  30.394  52.606  0.00  0.00     0.009 A 
ENDBRANCH   4  21
TORSDOF 3
ENDMDL
MODEL 5
REMARK VINA RESULT:     -10.0      1.092      3.108
REMARK  3 active torsions:
REMARK  status: ('A' for Active; 'I' for Inactive)
REMARK       I    between atoms: C_3  and  N_1 
REMARK    1  A    between atoms: C_5  and  C_3 
REMARK    2  A    between atoms: C_9  and  C_4 
REMARK    3  A    between atoms: C_14  and  C_6 
ROOT
ATOM      1  N   UNL d   1      52.978  32.332  53.501  0.00  0.00    -0.193 N 
ATOM      2  N   UNL d   1      53.347  33.017  53.803  0.00  0.00    -0.162 NA
ATOM      3  C   UNL d   1      52.278  32.346  53.073  0.00  0.00     0.303 C 
ATOM      4  C   UNL d   1      54.036  32.775  54.198  0.00  0.00     0.109 A 
ATOM      5  C   UNL d   1      53.452  31.686  53.719  0.00  0.00     0.088 A 
ATOM      6  C   UNL d   1      54.100  31.953  54.146  0.00  0.00     0.041 A 
ATOM      7  O   UNL d   1      51.932  31.633  52.782  0.00  0.00    -0.263 OA
ENDROOT
BRANCH   3   8
ATOM      8  C   UNL d   1      51.896  33.029  52.916  0.00  0.00     0.158 A 
ATOM      9  O   UNL d   1      51.227  33.319  53.322  0.00  0.00    -0.296 OA
ATOM     10  C   UNL d   1      51.014  34.037  52.981  0.00  0.00     0.134 A 
ATOM     11 BR   UNL d   1      50.360  34.523  53.226  0.00  0.00    -0.022 Br
ATOM     12  C   UNL d   1      51.534  34.190  52.383  0.00  0.00     0.034 A 
ATOM     13  C   UNL d   1      52.073  33.585  52.333  0.00  0.00     0.032 A 
ENDBRANCH   3   8
BRANCH   5  14
ATOM     14  C   UNL d   1      53.369  31.310  53.626  0.00  0.00     0.018 A 
ATOM     15  C   UNL d   1      53.476  30.987  52.875  0.00  0.00     0.002 A 
ATOM     16  C   UNL d   1      53.283  30.205  52.760  0.00  0.00     0.000 A 
ATOM     17  C   UNL d   1      52.991  29.727  53.347  0.00  0.00     0.000 A 
ATOM     18  C   UNL d   1      52.884  30.049  54.099  0.00  0.00     0.000 A 
ATOM     19  C   UNL d   1      52.798  28.946  53.231  0.00  0.00     0.000 C 
ATOM     20  C   UNL d   1      53.072  30.840  54.239  0.00  0.00     0.002 A 
ENDBRANCH   5  14
BRANCH   4  21
ATOM     21  C   UNL d   1      54.577  33.264  54.585  0.00  0.00     0.049 A 
ATOM     22  S   UNL d   1      54.496  33.489  55.360  0.00  0.00    -0.085 SA
ATOM     23  C   UNL d   1      55.161  33.979  55.527  0.00  0.00     0.035 A 
ATOM     24  C   UNL d   1      55.631  34.043  54.852  0.00  0.00     0.007 A 
ATOM     25  C   UNL d   1      55.250  33.591  54.277  0.00  0.00     0.009 A 
ENDBRANCH   4  21
TORSDOF 3
ENDMDL
MODEL 6
REMARK VINA RESULT:      -9.7      1.721      3.774
REMARK  3 active torsions:
REMARK  status: ('A' for Active; 'I' for Inactive)
REMARK       I    between atoms: C_3  and  N_1 
REMARK    1  A    between atoms: C_5  and  C_3 
REMARK    2  A    between atoms: C_9  and  C_4 
REMARK    3  A    between atoms: C_14  and  C_6 
ROOT
ATOM      1  N   UNL d   1      53.089  32.212  53.659  0.00  0.00    -0.193 N 
ATOM      2  N   UNL d   1      52.769  32.977  53.568  0.00  0.00    -0.162 NA
ATOM      3  C   UNL d   1      53.750  32.049  54.118  0.00  0.00     0.303 C 
ATOM      4  C   UNL d   1      52.110  32.914  53.067  0.00  0.00     0.109 A 
ATOM      5  C   UNL d   1      52.617  31.698  53.210  0.00  0.00     0.088 A 
ATOM      6  C   UNL d   1      52.016  32.123  52.846  0.00  0.00     0.041 A 
ATOM      7  O   UNL d   1      54.048  31.263  54.188  0.00  0.00    -0.263 OA
ENDROOT
BRANCH   3   8
ATOM      8  C   UNL d   1      54.136  32.624  54.515  0.00  0.00     0.158 A 
ATOM      9  O   UNL d   1      54.761  33.089  54.214  0.00  0.00    -0.296 OA
ATOM     10  C   UNL d   1      54.997  33.611  54.805  0.00  0.00     0.134 A 
ATOM     11 BR   UNL d   1      55.619  34.187  54.734  0.00  0.00    -0.022 Br
ATOM     12  C   UNL d   1      54.533  33.476  55.452  0.00  0.00     0.034 A 
ATOM     13  C   UNL d   1      54.008  32.880  55.288  0.00  0.00     0.032 A 
ENDBRANCH   3   8
BRANCH   5  14
ATOM     14  C   UNL d   1      52.680  31.308  53.182  0.00  0.00     0.018 A 
ATOM     15  C   UNL d   1      53.246  30.968  52.687  0.00  0.00     0.002 A 
ATOM     16  C   UNL d   1      53.318  30.157  52.684  0.00  0.00     0.000 A 
ATOM     17  C   UNL d   1      52.862  29.666  53.142  0.00  0.00     0.000 A 
ATOM     18  C   UNL d   1      52.296  30.006  53.637  0.00  0.00     0.000 A 
ATOM     19  C   UNL d   1      52.935  28.857  53.138  0.00  0.00     0.000 C 
ATOM     20  C   UNL d   1      52.204  30.826  53.657  0.00  0.00     0.002 A 
ENDBRANCH   5  14
BRANCH   4  21
ATOM     21  C   UNL d   1      51.619  33.530  52.821  0.00  0.00     0.049 A 
ATOM     22  S   UNL d   1      50.939  33.737  53.211  0.00  0.00    -0.085 SA
ATOM     23  C   UNL d   1      50.614  34.384  52.778  0.00  0.00     0.035 A 
ATOM     24  C   UNL d   1      51.102  34.556  52.136  0.00  0.00     0.007 A 
ATOM     25  C   UNL d   1      51.721  34.014  52.181  0.00  0.00     0.009 A 
ENDBRANCH   4  21
TORSDOF 3
ENDMDL
