MODEL 1
REMARK VINA RESULT:       4.4      0.000      0.000
REMARK  2 active torsions:
REMARK  status: ('A' for Active; 'I' for Inactive)
REMARK       I    between atoms: N_3  and  C_1 
REMARK       I    between atoms: N_4  and  C_1 
REMARK       I    between atoms: C_2  and  N_5 
REMARK       I    between atoms: N_6  and  C_2 
REMARK    1  A    between atoms: C_13  and  N_4 
REMARK    2  A    between atoms: C_14  and  N_4 
ROOT
ATOM      1  C   UNL d   1      57.817   0.448  33.344  0.00  0.00     0.339 C 
ATOM      2  C   UNL d   1      58.038  -0.016  30.085  0.00  0.00     0.340 C 
ATOM      3  N   UNL d   1      57.874   0.330  32.517  0.00  0.00    -0.254 N 
ATOM      4  N   UNL d   1      57.099   0.333  33.729  0.00  0.00    -0.260 N 
ATOM      5  N   UNL d   1      57.985   0.100  30.900  0.00  0.00    -0.254 N 
ATOM      6  N   UNL d   1      58.756   0.098  29.696  0.00  0.00    -0.253 N 
ATOM      7  O   UNL d   1      58.488   0.681  33.775  0.00  0.00    -0.245 OA
ATOM      8  O   UNL d   1      57.374  -0.247  29.663  0.00  0.00    -0.245 OA
ATOM      9  C   UNL d   1      58.612   0.452  32.142  0.00  0.00     0.104 A 
ATOM     10  C   UNL d   1      57.219   0.102  32.096  0.00  0.00     0.104 A 
ATOM     11  C   UNL d   1      57.275  -0.013  31.285  0.00  0.00     0.104 A 
ATOM     12  C   UNL d   1      58.668   0.337  31.331  0.00  0.00     0.104 A 
ATOM     13  O   UNL d   1      60.194   0.328  28.914  0.00  0.00    -0.300 OA
ATOM     14  C   UNL d   1      58.804  -0.019  28.881  0.00  0.00     0.111 A 
ATOM     15  C   UNL d   1      59.423   0.331  30.126  0.00  0.00     0.111 A 
ATOM     16  C   UNL d   1      60.142   0.445  29.729  0.00  0.00     0.142 A 
ATOM     17  C   UNL d   1      59.519   0.094  28.488  0.00  0.00     0.142 A 
ENDROOT
BRANCH   4  18
ATOM     18  C   UNL d   1      57.043   0.450  34.552  0.00  0.00     0.068 A 
ATOM     19  C   UNL d   1      57.736   0.559  35.002  0.00  0.00     0.018 A 
ATOM     20  C   UNL d   1      57.680   0.675  35.817  0.00  0.00     0.002 A 
ATOM     21  C   UNL d   1      56.939   0.682  36.182  0.00  0.00     0.000 A 
ATOM     22  C   UNL d   1      56.249   0.573  35.733  0.00  0.00     0.002 A 
ATOM     23  C   UNL d   1      56.305   0.457  34.919  0.00  0.00     0.018 A 
ENDBRANCH   4  18
BRANCH   4  24
ATOM     24  C   UNL d   1      56.436   0.102  33.308  0.00  0.00     0.068 A 
ATOM     25  C   UNL d   1      56.288  -0.695  33.165  0.00  0.00     0.018 A 
ATOM     26  C   UNL d   1      55.624  -0.914  32.744  0.00  0.00     0.002 A 
ATOM     27  C   UNL d   1      55.098  -0.346  32.458  0.00  0.00     0.000 A 
ATOM     28  C   UNL d   1      55.250   0.458  32.604  0.00  0.00     0.002 A 
ATOM     29  C   UNL d   1      55.918   0.681  33.028  0.00  0.00     0.018 A 
ENDBRANCH   4  24
TORSDOF 2
ENDMDL
MODEL 2
REMARK VINA RESULT:       5.8      0.740      1.001
REMARK  2 active torsions:
REMARK  status: ('A' for Active; 'I' for Inactive)
REMARK       I    between atoms: N_3  and  C_1 
REMARK       I    between atoms: N_4  and  C_1 
REMARK       I    between atoms: C_2  and  N_5 
REMARK       I    between atoms: N_6  and  C_2 
REMARK    1  A    between atoms: C_13  and  N_4 
REMARK    2  A    between atoms: C_14  and  N_4 
ROOT
ATOM      1  C   UNL d   1      57.261   0.146  33.342  0.00  0.00     0.339 C 
ATOM      2  C   UNL d   1      57.927  -0.918  30.291  0.00  0.00     0.340 C 
ATOM      3  N   UNL d   1      57.431  -0.123  32.568  0.00  0.00    -0.254 N 
ATOM      4  N   UNL d   1      56.587  -0.118  33.732  0.00  0.00    -0.260 N 
ATOM      5  N   UNL d   1      57.763  -0.651  31.053  0.00  0.00    -0.254 N 
ATOM      6  N   UNL d   1      58.603  -0.655  29.897  0.00  0.00    -0.253 N 
ATOM      7  O   UNL d   1      57.776   0.681  33.715  0.00  0.00    -0.245 OA
ATOM      8  O   UNL d   1      57.417  -1.446  29.925  0.00  0.00    -0.245 OA
ATOM      9  C   UNL d   1      58.121   0.155  32.185  0.00  0.00     0.104 A 
ATOM     10  C   UNL d   1      56.929  -0.646  32.203  0.00  0.00     0.104 A 
ATOM     11  C   UNL d   1      57.095  -0.910  31.443  0.00  0.00     0.104 A 
ATOM     12  C   UNL d   1      58.288  -0.109  31.426  0.00  0.00     0.104 A 
ATOM     13  O   UNL d   1      59.955  -0.130  29.105  0.00  0.00    -0.300 OA
ATOM     14  C   UNL d   1      58.763  -0.925  29.134  0.00  0.00     0.111 A 
ATOM     15  C   UNL d   1      59.114  -0.123  30.269  0.00  0.00     0.111 A 
ATOM     16  C   UNL d   1      59.791   0.137  29.867  0.00  0.00     0.142 A 
ATOM     17  C   UNL d   1      59.436  -0.666  28.736  0.00  0.00     0.142 A 
ENDROOT
BRANCH   4  18
ATOM     18  C   UNL d   1      56.418   0.150  34.503  0.00  0.00     0.068 A 
ATOM     19  C   UNL d   1      57.025   0.176  35.073  0.00  0.00     0.018 A 
ATOM     20  C   UNL d   1      56.857   0.442  35.836  0.00  0.00     0.002 A 
ATOM     21  C   UNL d   1      56.091   0.680  36.031  0.00  0.00     0.000 A 
ATOM     22  C   UNL d   1      55.486   0.654  35.462  0.00  0.00     0.002 A 
ATOM     23  C   UNL d   1      55.654   0.388  34.699  0.00  0.00     0.018 A 
ENDBRANCH   4  18
BRANCH   4  24
ATOM     24  C   UNL d   1      56.077  -0.646  33.367  0.00  0.00     0.068 A 
ATOM     25  C   UNL d   1      55.429  -0.372  32.938  0.00  0.00     0.018 A 
ATOM     26  C   UNL d   1      54.928  -0.905  32.579  0.00  0.00     0.002 A 
ATOM     27  C   UNL d   1      55.061  -1.718  32.639  0.00  0.00     0.000 A 
ATOM     28  C   UNL d   1      55.715  -1.991  33.072  0.00  0.00     0.002 A 
ATOM     29  C   UNL d   1      56.222  -1.455  33.436  0.00  0.00     0.018 A 
ENDBRANCH   4  24
TORSDOF 2
ENDMDL
