MODEL 1
REMARK VINA RESULT:      32.9      0.000      0.000
REMARK  2 active torsions:
REMARK  status: ('A' for Active; 'I' for Inactive)
REMARK    1  A    between atoms: O_3  and  C_1 
REMARK    2  A    between atoms: C_2  and  O_3 
REMARK       I    between atoms: N_7  and  C_2 
ROOT
ATOM      1  C   UNL d   1      14.091  13.006  -1.791  0.00  0.00     0.133 A 
ATOM      2  C   UNL d   1      14.588  13.423  -1.260  0.00  0.00     0.106 A 
ATOM      3  C   UNL d   1      14.990  13.013  -0.677  0.00  0.00     0.030 A 
ATOM      4  C   UNL d   1      14.010  12.190  -1.724  0.00  0.00     0.083 A 
ATOM      5  C   UNL d   1      14.915  12.197  -0.603  0.00  0.00     0.060 A 
ATOM      6  C   UNL d   1      14.418  11.780  -1.133  0.00  0.00     0.025 A 
ATOM      7  N   UNL d   1      14.663  14.242  -1.336  0.00  0.00    -0.242 NA
ATOM      8 CL   UNL d   1      13.520  11.779  -2.246  0.00  0.00    -0.080 Cl
ATOM      9 CL   UNL d   1      15.319  11.779  -0.015  0.00  0.00    -0.082 Cl
ATOM     10  C   UNL d   1      15.480  13.424  -0.154  0.00  0.00     0.004 A 
ATOM     11  C   UNL d   1      15.152  14.653  -0.814  0.00  0.00     0.099 A 
ATOM     12  C   UNL d   1      15.561  14.239  -0.221  0.00  0.00     0.021 A 
ENDROOT
BRANCH   1  13
ATOM     13  O   UNL d   1      13.674  13.413  -2.391  0.00  0.00    -0.257 OA
BRANCH  13  14
ATOM     14  C   UNL d   1      13.558  13.051  -3.138  0.00  0.00     0.378 C 
ATOM     15  N   UNL d   1      13.297  13.496  -3.775  0.00  0.00    -0.252 N 
ATOM     16  C   UNL d   1      13.184  13.134  -4.511  0.00  0.00     0.085 A 
ATOM     17  C   UNL d   1      13.146  14.302  -3.686  0.00  0.00     0.085 A 
ATOM     18  C   UNL d   1      12.921  13.579  -5.153  0.00  0.00     0.019 A 
ATOM     19  C   UNL d   1      12.770  14.385  -5.063  0.00  0.00     0.003 A 
ATOM     20  C   UNL d   1      12.883  14.742  -4.332  0.00  0.00     0.019 A 
ATOM     21  O   UNL d   1      13.711  12.234  -3.229  0.00  0.00    -0.237 OA
ENDBRANCH  13  14
ENDBRANCH   1  13
TORSDOF 2
ENDMDL
