MODEL 1
REMARK VINA RESULT:       9.0      0.000      0.000
REMARK  4 active torsions:
REMARK  status: ('A' for Active; 'I' for Inactive)
REMARK    1  A    between atoms: C_8  and  C_1 
REMARK    2  A    between atoms: N_5  and  C_2 
REMARK       I    between atoms: C_7  and  N_5 
REMARK    3  A    between atoms: C_10  and  C_7 
REMARK    4  A    between atoms: O_17  and  C_16 
ROOT
ATOM      1  N   UNL d   1      46.126 -15.677  44.200  0.00  0.00    -0.165 NA
ATOM      2  C   UNL d   1      45.514 -15.223  44.494  0.00  0.00     0.282 C 
ATOM      3  O   UNL d   1      44.863 -15.580  44.860  0.00  0.00    -0.265 OA
ENDROOT
BRANCH   1   4
ATOM      4  C   UNL d   1      46.102 -16.499  44.265  0.00  0.00     0.297 A 
ATOM      5  O   UNL d   1      46.296 -17.030  43.664  0.00  0.00    -0.253 OA
ATOM      6  C   UNL d   1      46.196 -17.797  43.961  0.00  0.00     0.212 A 
ATOM      7  N   UNL d   1      45.943 -17.731  44.738  0.00  0.00    -0.119 NA
ATOM      8  N   UNL d   1      45.885 -16.931  44.925  0.00  0.00    -0.101 NA
BRANCH   6   9
ATOM      9  C   UNL d   1      46.331 -18.499  43.541  0.00  0.00     0.072 A 
ATOM     10  S   UNL d   1      46.395 -19.251  43.864  0.00  0.00    -0.083 SA
ATOM     11  C   UNL d   1      46.527 -19.782  43.248  0.00  0.00     0.035 A 
ATOM     12  C   UNL d   1      46.545 -19.354  42.538  0.00  0.00     0.008 A 
ATOM     13  C   UNL d   1      46.423 -18.556  42.723  0.00  0.00     0.011 A 
ENDBRANCH   6   9
ENDBRANCH   1   4
BRANCH   2  14
ATOM     14  C   UNL d   1      45.539 -14.398  44.429  0.00  0.00     0.060 A 
ATOM     15  C   UNL d   1      45.109 -14.012  43.839  0.00  0.00     0.029 A 
ATOM     16  C   UNL d   1      45.136 -13.196  43.778  0.00  0.00     0.094 A 
ATOM     17  C   UNL d   1      45.594 -12.760  44.305  0.00  0.00     0.024 A 
ATOM     18  C   UNL d   1      46.027 -13.143  44.898  0.00  0.00     0.002 A 
ATOM     19  C   UNL d   1      45.996 -13.961  44.955  0.00  0.00     0.005 A 
BRANCH  16  20
ATOM     20  O   UNL d   1      44.699 -12.795  43.178  0.00  0.00    -0.328 OA
ATOM     21  C   UNL d   1      45.069 -12.251  42.694  0.00  0.00     0.181 C 
ENDBRANCH  16  20
ENDBRANCH   2  14
TORSDOF 4
ENDMDL
MODEL 2
REMARK VINA RESULT:      10.5      1.680      4.929
REMARK  4 active torsions:
REMARK  status: ('A' for Active; 'I' for Inactive)
REMARK    1  A    between atoms: C_8  and  C_1 
REMARK    2  A    between atoms: N_5  and  C_2 
REMARK       I    between atoms: C_7  and  N_5 
REMARK    3  A    between atoms: C_10  and  C_7 
REMARK    4  A    between atoms: O_17  and  C_16 
ROOT
ATOM      1  N   UNL d   1      45.812 -16.491  44.640  0.00  0.00    -0.165 NA
ATOM      2  C   UNL d   1      45.718 -16.929  43.957  0.00  0.00     0.282 C 
ATOM      3  O   UNL d   1      45.312 -16.613  43.308  0.00  0.00    -0.265 OA
ENDROOT
BRANCH   1   4
ATOM      4  C   UNL d   1      45.504 -15.728  44.691  0.00  0.00     0.297 A 
ATOM      5  O   UNL d   1      45.917 -15.035  44.520  0.00  0.00    -0.253 OA
ATOM      6  C   UNL d   1      45.403 -14.397  44.644  0.00  0.00     0.212 A 
ATOM      7  N   UNL d   1      44.683 -14.702  44.889  0.00  0.00    -0.119 NA
ATOM      8  N   UNL d   1      44.745 -15.523  44.918  0.00  0.00    -0.101 NA
BRANCH   6   9
ATOM      9  C   UNL d   1      45.593 -13.596  44.537  0.00  0.00     0.072 A 
ATOM     10  S   UNL d   1      46.160 -13.174  44.953  0.00  0.00    -0.083 SA
ATOM     11  C   UNL d   1      46.163 -12.401  44.667  0.00  0.00     0.035 A 
ATOM     12  C   UNL d   1      45.592 -12.346  44.068  0.00  0.00     0.008 A 
ATOM     13  C   UNL d   1      45.239 -13.091  43.989  0.00  0.00     0.011 A 
ENDBRANCH   6   9
ENDBRANCH   1   4
BRANCH   2  14
ATOM     14  C   UNL d   1      46.028 -17.695  43.907  0.00  0.00     0.060 A 
ATOM     15  C   UNL d   1      46.105 -18.067  43.173  0.00  0.00     0.029 A 
ATOM     16  C   UNL d   1      46.412 -18.824  43.128  0.00  0.00     0.094 A 
ATOM     17  C   UNL d   1      46.644 -19.216  43.814  0.00  0.00     0.024 A 
ATOM     18  C   UNL d   1      46.568 -18.847  44.551  0.00  0.00     0.002 A 
ATOM     19  C   UNL d   1      46.259 -18.087  44.591  0.00  0.00     0.005 A 
BRANCH  16  20
ATOM     20  O   UNL d   1      46.495 -19.211  42.382  0.00  0.00    -0.328 OA
ATOM     21  C   UNL d   1      46.554 -20.025  42.345  0.00  0.00     0.181 C 
ENDBRANCH  16  20
ENDBRANCH   2  14
TORSDOF 4
ENDMDL
