MODEL 1
REMARK VINA RESULT:      40.9      0.000      0.000
REMARK  5 active torsions:
REMARK  status: ('A' for Active; 'I' for Inactive)
REMARK    1  A    between atoms: S_6  and  C_2 
REMARK    2  A    between atoms: C_11  and  S_6 
REMARK    3  A    between atoms: C_7  and  C_11 
REMARK       I    between atoms: N_8  and  C_7 
REMARK    4  A    between atoms: C_13  and  N_8 
REMARK    5  A    between atoms: C_14  and  C_13 
ROOT
ATOM      1  S   UNL d   1     -49.934  26.858  33.348  0.00  0.00    -0.080 SA
ENDROOT
BRANCH   1   2
ATOM      2  C   UNL d   1     -50.665  26.475  33.337  0.00  0.00     0.049 A 
ATOM      3  C   UNL d   1     -51.402  26.836  33.330  0.00  0.00     0.087 A 
ATOM      4  N   UNL d   1     -51.985  26.236  33.320  0.00  0.00    -0.302 N 
ATOM      5  C   UNL d   1     -51.589  25.504  33.321  0.00  0.00     0.065 A 
ATOM      6  C   UNL d   1     -52.801  26.351  33.311  0.00  0.00     0.100 C 
ATOM      7  C   UNL d   1     -50.777  25.650  33.332  0.00  0.00     0.024 A 
ATOM      8  C   UNL d   1     -51.879  24.732  33.314  0.00  0.00     0.018 A 
ATOM      9  C   UNL d   1     -50.251  25.014  33.335  0.00  0.00     0.002 A 
ATOM     10  C   UNL d   1     -50.532  24.245  33.328  0.00  0.00     0.000 A 
ATOM     11  C   UNL d   1     -51.344  24.099  33.317  0.00  0.00     0.002 A 
ENDBRANCH   1   2
BRANCH   1  12
ATOM     12  C   UNL d   1     -49.773  27.417  33.938  0.00  0.00     0.098 C 
BRANCH  12  13
ATOM     13  C   UNL d   1     -48.991  27.618  34.113  0.00  0.00     0.286 C 
ATOM     14  N   UNL d   1     -48.832  28.125  34.743  0.00  0.00    -0.204 NA
ATOM     15  O   UNL d   1     -48.375  27.313  33.661  0.00  0.00    -0.265 OA
BRANCH  14  16
ATOM     16  C   UNL d   1     -48.050  28.326  34.919  0.00  0.00     0.127 C 
BRANCH  16  17
ATOM     17  C   UNL d   1     -47.878  29.067  35.203  0.00  0.00     0.119 A 
ATOM     18  O   UNL d   1     -48.155  29.784  34.905  0.00  0.00    -0.304 OA
ATOM     19  C   UNL d   1     -47.837  30.399  35.368  0.00  0.00     0.123 A 
ATOM     20  C   UNL d   1     -47.363  30.058  35.950  0.00  0.00     0.029 A 
ATOM     21  C   UNL d   1     -47.389  29.243  35.849  0.00  0.00     0.028 A 
ENDBRANCH  16  17
ENDBRANCH  14  16
ENDBRANCH  12  13
ENDBRANCH   1  12
TORSDOF 5
ENDMDL
