MODEL 1
REMARK VINA RESULT:      -2.9      0.000      0.000
REMARK  6 active torsions:
REMARK  status: ('A' for Active; 'I' for Inactive)
REMARK    1  A    between atoms: S_10  and  C_6 
REMARK    2  A    between atoms: C_14  and  S_10 
REMARK    3  A    between atoms: C_11  and  C_14 
REMARK       I    between atoms: N_15  and  C_11 
REMARK    4  A    between atoms: C_20  and  N_15 
REMARK    5  A    between atoms: C_18  and  C_20 
REMARK    6  A    between atoms: C_21  and  C_18 
ROOT
ATOM      1  C   UNL d   1      31.741  17.649 -23.989  0.00  0.00     0.187 A 
ATOM      2  C   UNL d   1      32.143  16.957 -23.793  0.00  0.00     0.081 A 
ATOM      3  N   UNL d   1      32.044  18.381 -23.740  0.00  0.00    -0.197 NA
ATOM      4  N   UNL d   1      33.144  17.710 -23.105  0.00  0.00    -0.200 NA
ATOM      5  C   UNL d   1      32.841  16.985 -23.353  0.00  0.00     0.189 A 
ATOM      6  C   UNL d   1      32.748  18.412 -23.296  0.00  0.00     0.198 A 
ATOM      7  C   UNL d   1      31.720  16.325 -24.110  0.00  0.00     0.029 A 
ATOM      8  O   UNL d   1      31.076  17.450 -24.422  0.00  0.00    -0.289 OA
ATOM      9  C   UNL d   1      31.055  16.625 -24.502  0.00  0.00     0.102 A 
ATOM     10  N   UNL d   1      33.234  16.285 -23.164  0.00  0.00    -0.127 N 
ATOM     11  C   UNL d   1      31.925  15.521 -24.046  0.00  0.00     0.002 C 
ATOM     12  C   UNL d   1      30.483  16.181 -24.897  0.00  0.00     0.027 C 
ENDROOT
BRANCH   6  13
ATOM     13  S   UNL d   1      33.043  19.140 -23.052  0.00  0.00    -0.043 SA
BRANCH  13  14
ATOM     14  C   UNL d   1      32.861  19.436 -22.306  0.00  0.00     0.101 C 
BRANCH  14  15
ATOM     15  C   UNL d   1      32.984  20.230 -22.138  0.00  0.00     0.286 C 
ATOM     16  O   UNL d   1      33.241  20.746 -22.734  0.00  0.00    -0.265 OA
ATOM     17  N   UNL d   1      32.854  20.516 -21.379  0.00  0.00    -0.206 NA
BRANCH  17  18
ATOM     18  C   UNL d   1      32.979  21.319 -21.212  0.00  0.00     0.106 C 
BRANCH  18  19
ATOM     19  C   UNL d   1      32.830  21.598 -20.462  0.00  0.00     0.066 C 
BRANCH  19  20
ATOM     20  C   UNL d   1      32.735  22.412 -20.340  0.00  0.00     0.236 C 
ATOM     21  O   UNL d   1      32.505  22.691 -19.610  0.00  0.00    -0.283 OA
ENDBRANCH  19  20
ENDBRANCH  18  19
ENDBRANCH  17  18
ENDBRANCH  14  15
ENDBRANCH  13  14
ENDBRANCH   6  13
TORSDOF 6
ENDMDL
MODEL 2
REMARK VINA RESULT:      -2.7      1.136      5.648
REMARK  6 active torsions:
REMARK  status: ('A' for Active; 'I' for Inactive)
REMARK    1  A    between atoms: S_10  and  C_6 
REMARK    2  A    between atoms: C_14  and  S_10 
REMARK    3  A    between atoms: C_11  and  C_14 
REMARK       I    between atoms: N_15  and  C_11 
REMARK    4  A    between atoms: C_20  and  N_15 
REMARK    5  A    between atoms: C_18  and  C_20 
REMARK    6  A    between atoms: C_21  and  C_18 
ROOT
ATOM      1  C   UNL d   1      32.878  21.606 -20.756  0.00  0.00     0.187 A 
ATOM      2  C   UNL d   1      32.912  22.209 -21.319  0.00  0.00     0.081 A 
ATOM      3  N   UNL d   1      32.988  20.820 -20.995  0.00  0.00    -0.197 NA
ATOM      4  N   UNL d   1      33.165  21.255 -22.352  0.00  0.00    -0.200 NA
ATOM      5  C   UNL d   1      33.055  22.036 -22.113  0.00  0.00     0.189 A 
ATOM      6  C   UNL d   1      33.133  20.642 -21.797  0.00  0.00     0.198 A 
ATOM      7  C   UNL d   1      32.784  22.922 -20.927  0.00  0.00     0.029 A 
ATOM      8  O   UNL d   1      32.730  21.942 -20.025  0.00  0.00    -0.289 OA
ATOM      9  C   UNL d   1      32.670  22.763 -20.122  0.00  0.00     0.102 A 
ATOM     10  N   UNL d   1      33.088  22.647 -22.665  0.00  0.00    -0.127 N 
ATOM     11  C   UNL d   1      32.772  23.676 -21.280  0.00  0.00     0.002 C 
ATOM     12  C   UNL d   1      32.524  23.322 -19.533  0.00  0.00     0.027 C 
ENDROOT
BRANCH   6  13
ATOM     13  S   UNL d   1      33.241  19.861 -22.027  0.00  0.00    -0.043 SA
BRANCH  13  14
ATOM     14  C   UNL d   1      32.867  19.566 -22.699  0.00  0.00     0.101 C 
BRANCH  14  15
ATOM     15  C   UNL d   1      32.820  18.757 -22.821  0.00  0.00     0.286 C 
ATOM     16  O   UNL d   1      33.195  18.234 -22.299  0.00  0.00    -0.265 OA
ATOM     17  N   UNL d   1      32.399  18.460 -23.461  0.00  0.00    -0.206 NA
BRANCH  17  18
ATOM     18  C   UNL d   1      32.352  17.641 -23.582  0.00  0.00     0.106 C 
BRANCH  18  19
ATOM     19  C   UNL d   1      31.951  17.356 -24.231  0.00  0.00     0.066 C 
BRANCH  19  20
ATOM     20  C   UNL d   1      31.721  16.560 -24.253  0.00  0.00     0.236 C 
ATOM     21  O   UNL d   1      31.022  16.347 -24.614  0.00  0.00    -0.283 OA
ENDBRANCH  19  20
ENDBRANCH  18  19
ENDBRANCH  17  18
ENDBRANCH  14  15
ENDBRANCH  13  14
ENDBRANCH   6  13
TORSDOF 6
ENDMDL
MODEL 3
REMARK VINA RESULT:      -1.3      1.461      5.042
REMARK  6 active torsions:
REMARK  status: ('A' for Active; 'I' for Inactive)
REMARK    1  A    between atoms: S_10  and  C_6 
REMARK    2  A    between atoms: C_14  and  S_10 
REMARK    3  A    between atoms: C_11  and  C_14 
REMARK       I    between atoms: N_15  and  C_11 
REMARK    4  A    between atoms: C_20  and  N_15 
REMARK    5  A    between atoms: C_18  and  C_20 
REMARK    6  A    between atoms: C_21  and  C_18 
ROOT
ATOM      1  C   UNL d   1      33.005  19.241 -22.449  0.00  0.00     0.187 A 
ATOM      2  C   UNL d   1      33.103  19.797 -23.050  0.00  0.00     0.081 A 
ATOM      3  N   UNL d   1      32.946  18.437 -22.643  0.00  0.00    -0.197 NA
ATOM      4  N   UNL d   1      33.084  18.763 -24.036  0.00  0.00    -0.200 NA
ATOM      5  C   UNL d   1      33.142  19.561 -23.840  0.00  0.00     0.189 A 
ATOM      6  C   UNL d   1      32.986  18.195 -23.440  0.00  0.00     0.198 A 
ATOM      7  C   UNL d   1      33.144  20.541 -22.698  0.00  0.00     0.029 A 
ATOM      8  O   UNL d   1      32.985  19.635 -21.732  0.00  0.00    -0.289 OA
ATOM      9  C   UNL d   1      33.071  20.446 -21.878  0.00  0.00     0.102 A 
ATOM     10  N   UNL d   1      33.240  20.127 -24.432  0.00  0.00    -0.127 N 
ATOM     11  C   UNL d   1      33.241  21.264 -23.097  0.00  0.00     0.002 C 
ATOM     12  C   UNL d   1      33.083  21.051 -21.317  0.00  0.00     0.027 C 
ENDROOT
BRANCH   6  13
ATOM     13  S   UNL d   1      32.927  17.397 -23.626  0.00  0.00    -0.043 SA
BRANCH  13  14
ATOM     14  C   UNL d   1      32.325  16.936 -23.305  0.00  0.00     0.101 C 
BRANCH  14  15
ATOM     15  C   UNL d   1      31.893  16.432 -23.787  0.00  0.00     0.286 C 
ATOM     16  O   UNL d   1      32.256  16.060 -24.433  0.00  0.00    -0.265 OA
ATOM     17  N   UNL d   1      31.098  16.293 -23.632  0.00  0.00    -0.206 NA
BRANCH  17  18
ATOM     18  C   UNL d   1      30.663  15.783 -24.120  0.00  0.00     0.106 C 
BRANCH  18  19
ATOM     19  C   UNL d   1      29.930  16.015 -24.387  0.00  0.00     0.066 C 
BRANCH  19  20
ATOM     20  C   UNL d   1      29.270  15.537 -24.240  0.00  0.00     0.236 C 
ATOM     21  O   UNL d   1      28.669  15.490 -24.789  0.00  0.00    -0.283 OA
ENDBRANCH  19  20
ENDBRANCH  18  19
ENDBRANCH  17  18
ENDBRANCH  14  15
ENDBRANCH  13  14
ENDBRANCH   6  13
TORSDOF 6
ENDMDL
MODEL 4
REMARK VINA RESULT:      -0.7      2.068      2.902
REMARK  6 active torsions:
REMARK  status: ('A' for Active; 'I' for Inactive)
REMARK    1  A    between atoms: S_10  and  C_6 
REMARK    2  A    between atoms: C_14  and  S_10 
REMARK    3  A    between atoms: C_11  and  C_14 
REMARK       I    between atoms: N_15  and  C_11 
REMARK    4  A    between atoms: C_20  and  N_15 
REMARK    5  A    between atoms: C_18  and  C_20 
REMARK    6  A    between atoms: C_21  and  C_18 
ROOT
ATOM      1  C   UNL d   1      33.187  20.107 -23.210  0.00  0.00     0.187 A 
ATOM      2  C   UNL d   1      33.200  19.442 -22.722  0.00  0.00     0.081 A 
ATOM      3  N   UNL d   1      33.200  20.863 -22.870  0.00  0.00    -0.197 NA
ATOM      4  N   UNL d   1      33.238  20.273 -21.560  0.00  0.00    -0.200 NA
ATOM      5  C   UNL d   1      33.225  19.523 -21.901  0.00  0.00     0.189 A 
ATOM      6  C   UNL d   1      33.225  20.948 -22.041  0.00  0.00     0.198 A 
ATOM      7  C   UNL d   1      33.183  18.777 -23.207  0.00  0.00     0.029 A 
ATOM      8  O   UNL d   1      33.162  19.856 -23.989  0.00  0.00    -0.289 OA
ATOM      9  C   UNL d   1      33.160  19.028 -23.996  0.00  0.00     0.102 A 
ATOM     10  N   UNL d   1      33.237  18.851 -21.424  0.00  0.00    -0.127 N 
ATOM     11  C   UNL d   1      33.188  17.985 -22.948  0.00  0.00     0.002 C 
ATOM     12  C   UNL d   1      33.138  18.538 -24.661  0.00  0.00     0.027 C 
ENDROOT
BRANCH   6  13
ATOM     13  S   UNL d   1      33.238  21.700 -21.710  0.00  0.00    -0.043 SA
BRANCH  13  14
ATOM     14  C   UNL d   1      32.988  21.820 -20.934  0.00  0.00     0.101 C 
BRANCH  14  15
ATOM     15  C   UNL d   1      32.807  22.576 -20.674  0.00  0.00     0.286 C 
ATOM     16  O   UNL d   1      32.378  23.092 -21.159  0.00  0.00    -0.265 OA
ATOM     17  N   UNL d   1      33.051  22.826 -19.929  0.00  0.00    -0.206 NA
BRANCH  17  18
ATOM     18  C   UNL d   1      32.867  23.591 -19.668  0.00  0.00     0.106 C 
BRANCH  18  19
ATOM     19  C   UNL d   1      32.546  23.693 -18.927  0.00  0.00     0.066 C 
BRANCH  19  20
ATOM     20  C   UNL d   1      33.030  23.626 -18.259  0.00  0.00     0.236 C 
ATOM     21  O   UNL d   1      32.745  23.274 -17.581  0.00  0.00    -0.283 OA
ENDBRANCH  19  20
ENDBRANCH  18  19
ENDBRANCH  17  18
ENDBRANCH  14  15
ENDBRANCH  13  14
ENDBRANCH   6  13
TORSDOF 6
ENDMDL
