MODEL 1
REMARK VINA RESULT:      52.2      0.000      0.000
REMARK  3 active torsions:
REMARK  status: ('A' for Active; 'I' for Inactive)
REMARK    1  A    between atoms: N_2  and  S_1 
REMARK    2  A    between atoms: C_5  and  S_1 
REMARK    3  A    between atoms: C_4  and  C_3 
REMARK       I    between atoms: N_8  and  C_4 
ROOT
ATOM      1  N   UNL d   1      13.883  12.663  -3.088  0.00  0.00    -0.226 N 
ATOM      2  C   UNL d   1      13.776  13.435  -2.838  0.00  0.00     0.131 A 
ATOM      3  C   UNL d   1      14.194  12.107  -2.558  0.00  0.00     0.092 A 
ATOM      4  C   UNL d   1      13.975  13.656  -2.072  0.00  0.00     0.023 A 
ATOM      5  C   UNL d   1      14.390  12.327  -1.801  0.00  0.00     0.018 A 
ATOM      6  C   UNL d   1      14.280  13.108  -1.554  0.00  0.00     0.003 A 
ATOM      7  C   UNL d   1      14.700  11.780  -1.269  0.00  0.00     0.002 A 
ATOM      8  C   UNL d   1      14.473  13.345  -0.792  0.00  0.00     0.000 A 
ATOM      9  C   UNL d   1      14.784  12.793  -0.261  0.00  0.00     0.000 A 
ATOM     10  C   UNL d   1      14.897  12.006  -0.501  0.00  0.00     0.000 A 
ENDROOT
BRANCH   2  11
ATOM     11  C   UNL d   1      13.465  13.990  -3.368  0.00  0.00     0.282 C 
ATOM     12  N   UNL d   1      13.847  14.716  -3.474  0.00  0.00    -0.271 N 
ATOM     13  C   UNL d   1      14.525  14.828  -3.029  0.00  0.00     0.083 A 
ATOM     14  C   UNL d   1      13.489  15.231  -4.017  0.00  0.00     0.083 A 
ATOM     15  C   UNL d   1      15.029  15.484  -3.007  0.00  0.00     0.019 A 
ATOM     16  C   UNL d   1      14.972  16.184  -3.426  0.00  0.00     0.002 A 
ATOM     17  C   UNL d   1      14.399  16.415  -3.976  0.00  0.00     0.002 A 
ATOM     18  C   UNL d   1      13.736  15.986  -4.239  0.00  0.00     0.019 A 
ATOM     19  O   UNL d   1      12.781  13.828  -3.790  0.00  0.00    -0.265 OA
ENDBRANCH   2  11
BRANCH   1  20
ATOM     20  S   UNL d   1      13.686  12.436  -3.855  0.00  0.00     0.277 S 
ATOM     21  O   UNL d   1      14.461  12.609  -4.069  0.00  0.00    -0.199 OA
ATOM     22  O   UNL d   1      12.908  12.265  -3.634  0.00  0.00    -0.199 OA
BRANCH  20  23
ATOM     23  C   UNL d   1      13.502  12.212  -4.630  0.00  0.00     0.133 A 
ATOM     24  S   UNL d   1      12.769  11.952  -4.893  0.00  0.00    -0.074 SA
ATOM     25  C   UNL d   1      12.827  11.788  -5.698  0.00  0.00     0.036 A 
ATOM     26  C   UNL d   1      13.606  11.948  -5.936  0.00  0.00     0.008 A 
ATOM     27  C   UNL d   1      14.021  12.211  -5.271  0.00  0.00     0.020 A 
ENDBRANCH  20  23
ENDBRANCH   1  20
TORSDOF 3
ENDMDL
MODEL 2
REMARK VINA RESULT:      55.2      0.813      3.059
REMARK  3 active torsions:
REMARK  status: ('A' for Active; 'I' for Inactive)
REMARK    1  A    between atoms: N_2  and  S_1 
REMARK    2  A    between atoms: C_5  and  S_1 
REMARK    3  A    between atoms: C_4  and  C_3 
REMARK       I    between atoms: N_8  and  C_4 
ROOT
ATOM      1  N   UNL d   1      13.933  14.084  -3.376  0.00  0.00    -0.226 N 
ATOM      2  C   UNL d   1      14.023  13.952  -2.573  0.00  0.00     0.131 A 
ATOM      3  C   UNL d   1      14.133  14.825  -3.688  0.00  0.00     0.092 A 
ATOM      4  C   UNL d   1      14.309  14.547  -2.083  0.00  0.00     0.023 A 
ATOM      5  C   UNL d   1      14.415  15.412  -3.203  0.00  0.00     0.018 A 
ATOM      6  C   UNL d   1      14.505  15.274  -2.392  0.00  0.00     0.003 A 
ATOM      7  C   UNL d   1      14.617  16.151  -3.506  0.00  0.00     0.002 A 
ATOM      8  C   UNL d   1      14.789  15.857  -1.890  0.00  0.00     0.000 A 
ATOM      9  C   UNL d   1      14.990  16.597  -2.198  0.00  0.00     0.000 A 
ATOM     10  C   UNL d   1      14.903  16.744  -3.011  0.00  0.00     0.000 A 
ENDROOT
BRANCH   2  11
ATOM     11  C   UNL d   1      13.823  13.211  -2.261  0.00  0.00     0.282 C 
ATOM     12  N   UNL d   1      14.192  12.941  -1.573  0.00  0.00    -0.271 N 
ATOM     13  C   UNL d   1      14.746  13.448  -1.247  0.00  0.00     0.083 A 
ATOM     14  C   UNL d   1      13.951  12.193  -1.309  0.00  0.00     0.083 A 
ATOM     15  C   UNL d   1      15.208  13.344  -0.567  0.00  0.00     0.019 A 
ATOM     16  C   UNL d   1      15.224  12.707  -0.055  0.00  0.00     0.002 A 
ATOM     17  C   UNL d   1      14.785  12.007  -0.084  0.00  0.00     0.002 A 
ATOM     18  C   UNL d   1      14.216  11.779  -0.646  0.00  0.00     0.019 A 
ATOM     19  O   UNL d   1      13.260  12.741  -2.629  0.00  0.00    -0.265 OA
ENDBRANCH   2  11
BRANCH   1  20
ATOM     20  S   UNL d   1      13.646  13.491  -3.871  0.00  0.00     0.277 S 
ATOM     21  O   UNL d   1      12.935  13.904  -3.897  0.00  0.00    -0.199 OA
ATOM     22  O   UNL d   1      14.364  13.081  -3.840  0.00  0.00    -0.199 OA
BRANCH  20  23
ATOM     23  C   UNL d   1      13.346  12.903  -4.369  0.00  0.00     0.133 A 
ATOM     24  S   UNL d   1      12.987  12.205  -4.126  0.00  0.00    -0.074 SA
ATOM     25  C   UNL d   1      12.770  11.779  -4.795  0.00  0.00     0.036 A 
ATOM     26  C   UNL d   1      12.995  12.219  -5.463  0.00  0.00     0.008 A 
ATOM     27  C   UNL d   1      13.352  12.914  -5.193  0.00  0.00     0.020 A 
ENDBRANCH  20  23
ENDBRANCH   1  20
TORSDOF 3
ENDMDL
