MODEL 1
REMARK VINA RESULT:      -8.2      0.000      0.000
REMARK  3 active torsions:
REMARK  status: ('A' for Active; 'I' for Inactive)
REMARK       I    between atoms: N_2  and  C_1 
REMARK       I    between atoms: N_5  and  C_1 
REMARK       I    between atoms: C_4  and  N_3 
REMARK    1  A    between atoms: O_14  and  C_4 
REMARK    2  A    between atoms: C_12  and  N_5 
REMARK    3  A    between atoms: C_20  and  O_14 
ROOT
ATOM      1  C   UNL d   1     -47.825  14.793  22.592  0.00  0.00     0.354 C 
ATOM      2  N   UNL d   1     -47.609  14.022  22.816  0.00  0.00    -0.253 N 
ATOM      3  N   UNL d   1     -47.157  12.522  23.256  0.00  0.00    -0.249 N 
ATOM      4  C   UNL d   1     -46.915  11.742  23.486  0.00  0.00     0.378 C 
ATOM      5  N   UNL d   1     -48.640  14.975  22.463  0.00  0.00    -0.192 NA
ATOM      6  O   UNL d   1     -47.266  15.399  22.487  0.00  0.00    -0.244 OA
ATOM      7  C   UNL d   1     -48.176  13.421  22.918  0.00  0.00     0.104 A 
ATOM      8  C   UNL d   1     -46.821  13.860  22.937  0.00  0.00     0.104 A 
ATOM      9  C   UNL d   1     -46.594  13.091  23.162  0.00  0.00     0.104 A 
ATOM     10  C   UNL d   1     -47.932  12.674  23.139  0.00  0.00     0.104 A 
ATOM     11  O   UNL d   1     -47.451  11.139  23.591  0.00  0.00    -0.237 OA
ENDROOT
BRANCH   5  12
ATOM     12  C   UNL d   1     -49.192  14.406  22.558  0.00  0.00     0.087 A 
ATOM     13  C   UNL d   1     -49.474  13.960  21.928  0.00  0.00     0.031 A 
ATOM     14  C   UNL d   1     -50.028  13.392  22.041  0.00  0.00     0.059 A 
ATOM     15 CL   UNL d   1     -50.294  12.956  21.375  0.00  0.00    -0.082 Cl
ATOM     16  C   UNL d   1     -50.331  13.241  22.794  0.00  0.00     0.011 A 
ATOM     17  C   UNL d   1     -50.050  13.688  23.433  0.00  0.00     0.002 A 
ATOM     18  C   UNL d   1     -49.496  14.255  23.320  0.00  0.00     0.019 A 
ENDBRANCH   5  12
BRANCH   4  19
ATOM     19  O   UNL d   1     -46.110  11.590  23.605  0.00  0.00    -0.257 OA
BRANCH  19  20
ATOM     20  C   UNL d   1     -45.851  10.821  23.698  0.00  0.00     0.128 C 
ATOM     21  C   UNL d   1     -45.045  10.648  23.697  0.00  0.00     0.029 C 
ENDBRANCH  19  20
ENDBRANCH   4  19
TORSDOF 3
ENDMDL
MODEL 2
REMARK VINA RESULT:      -7.9      1.456      2.187
REMARK  3 active torsions:
REMARK  status: ('A' for Active; 'I' for Inactive)
REMARK       I    between atoms: N_2  and  C_1 
REMARK       I    between atoms: N_5  and  C_1 
REMARK       I    between atoms: C_4  and  N_3 
REMARK    1  A    between atoms: O_14  and  C_4 
REMARK    2  A    between atoms: C_12  and  N_5 
REMARK    3  A    between atoms: C_20  and  O_14 
ROOT
ATOM      1  C   UNL d   1     -49.612  11.944  23.303  0.00  0.00     0.354 C 
ATOM      2  N   UNL d   1     -48.781  11.968  23.312  0.00  0.00    -0.253 N 
ATOM      3  N   UNL d   1     -47.154  11.988  23.344  0.00  0.00    -0.249 N 
ATOM      4  C   UNL d   1     -46.306  11.991  23.363  0.00  0.00     0.378 C 
ATOM      5  N   UNL d   1     -50.042  12.593  22.975  0.00  0.00    -0.192 NA
ATOM      6  O   UNL d   1     -50.042  11.301  23.608  0.00  0.00    -0.244 OA
ATOM      7  C   UNL d   1     -48.359  12.616  23.006  0.00  0.00     0.104 A 
ATOM      8  C   UNL d   1     -48.378  11.338  23.631  0.00  0.00     0.104 A 
ATOM      9  C   UNL d   1     -47.546  11.351  23.646  0.00  0.00     0.104 A 
ATOM     10  C   UNL d   1     -47.542  12.610  23.029  0.00  0.00     0.104 A 
ATOM     11  O   UNL d   1     -45.873  12.614  23.069  0.00  0.00    -0.237 OA
ENDROOT
BRANCH   5  12
ATOM     12  C   UNL d   1     -49.647  13.220  22.678  0.00  0.00     0.087 A 
ATOM     13  C   UNL d   1     -49.518  13.904  23.116  0.00  0.00     0.031 A 
ATOM     14  C   UNL d   1     -49.120  14.524  22.802  0.00  0.00     0.059 A 
ATOM     15 CL   UNL d   1     -49.007  15.207  23.278  0.00  0.00    -0.082 Cl
ATOM     16  C   UNL d   1     -48.828  14.492  22.032  0.00  0.00     0.011 A 
ATOM     17  C   UNL d   1     -48.954  13.805  21.585  0.00  0.00     0.002 A 
ATOM     18  C   UNL d   1     -49.353  13.185  21.898  0.00  0.00     0.019 A 
ENDBRANCH   5  12
BRANCH   4  19
ATOM     19  O   UNL d   1     -45.909  11.344  23.690  0.00  0.00    -0.257 OA
BRANCH  19  20
ATOM     20  C   UNL d   1     -45.192  11.106  23.378  0.00  0.00     0.128 C 
ATOM     21  C   UNL d   1     -44.789  10.462  23.698  0.00  0.00     0.029 C 
ENDBRANCH  19  20
ENDBRANCH   4  19
TORSDOF 3
ENDMDL
MODEL 3
REMARK VINA RESULT:      -7.5      1.513      2.443
REMARK  3 active torsions:
REMARK  status: ('A' for Active; 'I' for Inactive)
REMARK       I    between atoms: N_2  and  C_1 
REMARK       I    between atoms: N_5  and  C_1 
REMARK       I    between atoms: C_4  and  N_3 
REMARK    1  A    between atoms: O_14  and  C_4 
REMARK    2  A    between atoms: C_12  and  N_5 
REMARK    3  A    between atoms: C_20  and  O_14 
ROOT
ATOM      1  C   UNL d   1     -49.609  11.813  23.345  0.00  0.00     0.354 C 
ATOM      2  N   UNL d   1     -48.918  12.222  23.131  0.00  0.00    -0.253 N 
ATOM      3  N   UNL d   1     -47.548  13.000  22.721  0.00  0.00    -0.249 N 
ATOM      4  C   UNL d   1     -46.831  13.399  22.509  0.00  0.00     0.378 C 
ATOM      5  N   UNL d   1     -50.359  12.191  23.258  0.00  0.00    -0.192 NA
ATOM      6  O   UNL d   1     -49.592  11.037  23.645  0.00  0.00    -0.244 OA
ATOM      7  C   UNL d   1     -48.944  12.998  22.832  0.00  0.00     0.104 A 
ATOM      8  C   UNL d   1     -48.202  11.847  23.220  0.00  0.00     0.104 A 
ATOM      9  C   UNL d   1     -47.503  12.248  23.009  0.00  0.00     0.104 A 
ATOM     10  C   UNL d   1     -48.247  13.374  22.631  0.00  0.00     0.104 A 
ATOM     11  O   UNL d   1     -46.833  14.158  22.215  0.00  0.00    -0.237 OA
ENDROOT
BRANCH   5  12
ATOM     12  C   UNL d   1     -50.396  12.935  22.972  0.00  0.00     0.087 A 
ATOM     13  C   UNL d   1     -50.395  13.594  23.464  0.00  0.00     0.031 A 
ATOM     14  C   UNL d   1     -50.433  14.334  23.161  0.00  0.00     0.059 A 
ATOM     15 CL   UNL d   1     -50.429  14.984  23.693  0.00  0.00    -0.082 Cl
ATOM     16  C   UNL d   1     -50.473  14.455  22.346  0.00  0.00     0.011 A 
ATOM     17  C   UNL d   1     -50.475  13.795  21.844  0.00  0.00     0.002 A 
ATOM     18  C   UNL d   1     -50.437  13.054  22.148  0.00  0.00     0.019 A 
ENDBRANCH   5  12
BRANCH   4  19
ATOM     19  O   UNL d   1     -46.109  13.007  22.604  0.00  0.00    -0.257 OA
BRANCH  19  20
ATOM     20  C   UNL d   1     -45.444  13.279  22.216  0.00  0.00     0.128 C 
ATOM     21  C   UNL d   1     -44.759  12.821  22.187  0.00  0.00     0.029 C 
ENDBRANCH  19  20
ENDBRANCH   4  19
TORSDOF 3
ENDMDL
MODEL 4
REMARK VINA RESULT:      -7.4      1.456      1.912
REMARK  3 active torsions:
REMARK  status: ('A' for Active; 'I' for Inactive)
REMARK       I    between atoms: N_2  and  C_1 
REMARK       I    between atoms: N_5  and  C_1 
REMARK       I    between atoms: C_4  and  N_3 
REMARK    1  A    between atoms: O_14  and  C_4 
REMARK    2  A    between atoms: C_12  and  N_5 
REMARK    3  A    between atoms: C_20  and  O_14 
ROOT
ATOM      1  C   UNL d   1     -49.689  15.118  22.964  0.00  0.00     0.354 C 
ATOM      2  N   UNL d   1     -49.041  14.616  22.825  0.00  0.00    -0.253 N 
ATOM      3  N   UNL d   1     -47.755  13.656  22.558  0.00  0.00    -0.249 N 
ATOM      4  C   UNL d   1     -47.080  13.161  22.421  0.00  0.00     0.378 C 
ATOM      5  N   UNL d   1     -50.474  14.810  22.905  0.00  0.00    -0.192 NA
ATOM      6  O   UNL d   1     -49.596  15.921  23.161  0.00  0.00    -0.244 OA
ATOM      7  C   UNL d   1     -49.144  13.814  22.629  0.00  0.00     0.104 A 
ATOM      8  C   UNL d   1     -48.291  14.925  22.885  0.00  0.00     0.104 A 
ATOM      9  C   UNL d   1     -47.635  14.431  22.748  0.00  0.00     0.104 A 
ATOM     10  C   UNL d   1     -48.488  13.346  22.498  0.00  0.00     0.104 A 
ATOM     11  O   UNL d   1     -47.156  12.375  22.227  0.00  0.00    -0.237 OA
ENDROOT
BRANCH   5  12
ATOM     12  C   UNL d   1     -50.584  14.043  22.718  0.00  0.00     0.087 A 
ATOM     13  C   UNL d   1     -50.699  13.464  23.290  0.00  0.00     0.031 A 
ATOM     14  C   UNL d   1     -50.808  12.698  23.084  0.00  0.00     0.059 A 
ATOM     15 CL   UNL d   1     -50.923  12.133  23.696  0.00  0.00    -0.082 Cl
ATOM     16  C   UNL d   1     -50.807  12.469  22.292  0.00  0.00     0.011 A 
ATOM     17  C   UNL d   1     -50.691  13.047  21.710  0.00  0.00     0.002 A 
ATOM     18  C   UNL d   1     -50.582  13.814  21.915  0.00  0.00     0.019 A 
ENDBRANCH   5  12
BRANCH   4  19
ATOM     19  O   UNL d   1     -46.322  13.488  22.484  0.00  0.00    -0.257 OA
BRANCH  19  20
ATOM     20  C   UNL d   1     -45.666  13.006  22.423  0.00  0.00     0.128 C 
ATOM     21  C   UNL d   1     -44.957  13.300  22.120  0.00  0.00     0.029 C 
ENDBRANCH  19  20
ENDBRANCH   4  19
TORSDOF 3
ENDMDL
MODEL 5
REMARK VINA RESULT:      -5.4      9.294     10.409
REMARK  3 active torsions:
REMARK  status: ('A' for Active; 'I' for Inactive)
REMARK       I    between atoms: N_2  and  C_1 
REMARK       I    between atoms: N_5  and  C_1 
REMARK       I    between atoms: C_4  and  N_3 
REMARK    1  A    between atoms: O_14  and  C_4 
REMARK    2  A    between atoms: C_12  and  N_5 
REMARK    3  A    between atoms: C_20  and  O_14 
ROOT
ATOM      1  C   UNL d   1     -40.810  15.387  17.324  0.00  0.00     0.354 C 
ATOM      2  N   UNL d   1     -40.358  15.463  18.017  0.00  0.00    -0.253 N 
ATOM      3  N   UNL d   1     -39.498  15.619  19.390  0.00  0.00    -0.249 N 
ATOM      4  C   UNL d   1     -39.057  15.701  20.109  0.00  0.00     0.378 C 
ATOM      5  N   UNL d   1     -40.422  15.225  16.591  0.00  0.00    -0.192 NA
ATOM      6  O   UNL d   1     -41.638  15.463  17.321  0.00  0.00    -0.244 OA
ATOM      7  C   UNL d   1     -39.529  15.386  18.010  0.00  0.00     0.104 A 
ATOM      8  C   UNL d   1     -40.743  15.619  18.716  0.00  0.00     0.104 A 
ATOM      9  C   UNL d   1     -40.301  15.698  19.417  0.00  0.00     0.104 A 
ATOM     10  C   UNL d   1     -39.113  15.467  18.708  0.00  0.00     0.104 A 
ATOM     11  O   UNL d   1     -38.246  15.629  20.126  0.00  0.00    -0.237 OA
ENDROOT
BRANCH   5  12
ATOM     12  C   UNL d   1     -39.628  15.149  16.573  0.00  0.00     0.087 A 
ATOM     13  C   UNL d   1     -39.258  14.415  16.599  0.00  0.00     0.031 A 
ATOM     14  C   UNL d   1     -38.459  14.356  16.580  0.00  0.00     0.059 A 
ATOM     15 CL   UNL d   1     -38.115  13.590  16.608  0.00  0.00    -0.082 Cl
ATOM     16  C   UNL d   1     -37.987  15.030  16.533  0.00  0.00     0.011 A 
ATOM     17  C   UNL d   1     -38.354  15.773  16.506  0.00  0.00     0.002 A 
ATOM     18  C   UNL d   1     -39.152  15.833  16.525  0.00  0.00     0.019 A 
ENDBRANCH   5  12
BRANCH   4  19
ATOM     19  O   UNL d   1     -39.461  15.859  20.814  0.00  0.00    -0.257 OA
BRANCH  19  20
ATOM     20  C   UNL d   1     -39.047  15.922  21.515  0.00  0.00     0.128 C 
ATOM     21  C   UNL d   1     -39.437  15.863  22.239  0.00  0.00     0.029 C 
ENDBRANCH  19  20
ENDBRANCH   4  19
TORSDOF 3
ENDMDL
