MODEL 1
REMARK VINA RESULT:      10.0      0.000      0.000
REMARK  1 active torsions:
REMARK  status: ('A' for Active; 'I' for Inactive)
REMARK    1  A    between atoms: N_4  and  C_1 
ROOT
ATOM      1  C   UNL d   1     -54.729-101.791 -38.065  0.00  0.00     0.735 A 
ATOM      2  N   UNL d   1     -54.739-102.465 -37.565  0.00  0.00    -0.059 NA
ATOM      3  N   UNL d   1     -54.723-101.129 -37.542  0.00  0.00    -0.059 NA
ATOM      4  C   UNL d   1     -54.738-102.223 -36.794  0.00  0.00     0.118 A 
ATOM      5  C   UNL d   1     -54.728-101.398 -36.780  0.00  0.00     0.118 A 
ATOM      6  C   UNL d   1     -54.745-102.667 -36.083  0.00  0.00     0.021 A 
ATOM      7  C   UNL d   1     -54.725-101.006 -36.054  0.00  0.00     0.021 A 
ATOM      8  C   UNL d   1     -54.742-102.248 -35.362  0.00  0.00     0.002 A 
ATOM      9  C   UNL d   1     -54.732-101.422 -35.348  0.00  0.00     0.002 A 
ENDROOT
BRANCH   1  10
ATOM     10  N   UNL d   1     -54.728-101.825 -38.881  0.00  0.00    -0.133 N 
ATOM     11  C   UNL d   1     -54.714-101.282 -39.462  0.00  0.00     0.125 A 
ATOM     12  C   UNL d   1     -54.716-101.497 -40.254  0.00  0.00     0.142 A 
ATOM     13  O   UNL d   1     -54.733-102.287 -40.476  0.00  0.00    -0.300 OA
ATOM     14  C   UNL d   1     -54.749-102.878 -39.847  0.00  0.00     0.142 A 
ATOM     15  C   UNL d   1     -54.745-102.636 -39.076  0.00  0.00     0.125 A 
ENDBRANCH   1  10
TORSDOF 1
ENDMDL
