MODEL 1
REMARK VINA RESULT:      -8.9      0.000      0.000
REMARK  2 active torsions:
REMARK  status: ('A' for Active; 'I' for Inactive)
REMARK    1  A    between atoms: C_9  and  N_2 
REMARK    2  A    between atoms: C_7  and  C_4 
ROOT
ATOM      1  C   UNL d   1     -47.420  12.802  23.062  0.00  0.00     0.136 A 
ATOM      2  N   UNL d   1     -48.244  12.833  23.011  0.00  0.00    -0.282 N 
ATOM      3  C   UNL d   1     -47.049  12.079  23.221  0.00  0.00     0.152 A 
ATOM      4  C   UNL d   1     -48.695  12.141  23.118  0.00  0.00     0.158 A 
ATOM      5  N   UNL d   1     -48.317  11.423  23.276  0.00  0.00    -0.189 NA
ATOM      6  C   UNL d   1     -47.495  11.393  23.328  0.00  0.00     0.292 A 
ATOM      7  C   UNL d   1     -46.227  12.049  23.272  0.00  0.00     0.108 C 
ATOM      8  N   UNL d   1     -45.400  12.015  23.325  0.00  0.00    -0.191 NA
ATOM      9  S   UNL d   1     -46.966  13.483  22.957  0.00  0.00    -0.058 SA
ATOM     10  O   UNL d   1     -47.113  10.672  23.486  0.00  0.00    -0.264 OA
ENDROOT
BRANCH   2  11
ATOM     11  C   UNL d   1     -48.616  13.548  22.854  0.00  0.00     0.066 A 
ATOM     12  C   UNL d   1     -48.759  13.769  22.072  0.00  0.00     0.018 A 
ATOM     13  C   UNL d   1     -49.133  14.487  21.917  0.00  0.00     0.002 A 
ATOM     14  C   UNL d   1     -49.363  14.982  22.539  0.00  0.00     0.000 A 
ATOM     15  C   UNL d   1     -49.218  14.756  23.323  0.00  0.00     0.002 A 
ATOM     16  C   UNL d   1     -49.737  15.700  22.383  0.00  0.00     0.000 C 
ATOM     17  C   UNL d   1     -48.844  14.038  23.479  0.00  0.00     0.018 A 
ENDBRANCH   2  11
BRANCH   4  18
ATOM     18  C   UNL d   1     -49.517  12.171  23.067  0.00  0.00     0.064 A 
ATOM     19  S   UNL d   1     -50.035  12.259  23.697  0.00  0.00    -0.083 SA
ATOM     20  C   UNL d   1     -50.797  12.260  23.394  0.00  0.00     0.035 A 
ATOM     21  C   UNL d   1     -50.750  12.172  22.577  0.00  0.00     0.008 A 
ATOM     22  C   UNL d   1     -49.967  12.117  22.368  0.00  0.00     0.010 A 
ENDBRANCH   4  18
TORSDOF 2
ENDMDL
MODEL 2
REMARK VINA RESULT:      -8.4      1.772      3.119
REMARK  2 active torsions:
REMARK  status: ('A' for Active; 'I' for Inactive)
REMARK    1  A    between atoms: C_9  and  N_2 
REMARK    2  A    between atoms: C_7  and  C_4 
ROOT
ATOM      1  C   UNL d   1     -48.852  14.353  22.874  0.00  0.00     0.136 A 
ATOM      2  N   UNL d   1     -48.501  13.605  22.872  0.00  0.00    -0.282 N 
ATOM      3  C   UNL d   1     -49.660  14.423  23.044  0.00  0.00     0.152 A 
ATOM      4  C   UNL d   1     -48.958  12.930  23.040  0.00  0.00     0.158 A 
ATOM      5  N   UNL d   1     -49.764  13.008  23.209  0.00  0.00    -0.189 NA
ATOM      6  C   UNL d   1     -50.113  13.754  23.210  0.00  0.00     0.292 A 
ATOM      7  C   UNL d   1     -50.009  15.170  23.045  0.00  0.00     0.108 C 
ATOM      8  N   UNL d   1     -50.364  15.919  23.047  0.00  0.00    -0.191 NA
ATOM      9  S   UNL d   1     -48.407  15.027  22.708  0.00  0.00    -0.058 SA
ATOM     10  O   UNL d   1     -50.922  13.835  23.380  0.00  0.00    -0.264 OA
ENDROOT
BRANCH   2  11
ATOM     11  C   UNL d   1     -47.701  13.531  22.704  0.00  0.00     0.066 A 
ATOM     12  C   UNL d   1     -47.459  13.385  21.929  0.00  0.00     0.018 A 
ATOM     13  C   UNL d   1     -46.656  13.311  21.763  0.00  0.00     0.002 A 
ATOM     14  C   UNL d   1     -46.095  13.382  22.367  0.00  0.00     0.000 A 
ATOM     15  C   UNL d   1     -46.342  13.528  23.145  0.00  0.00     0.002 A 
ATOM     16  C   UNL d   1     -45.291  13.308  22.200  0.00  0.00     0.000 C 
ATOM     17  C   UNL d   1     -47.145  13.603  23.312  0.00  0.00     0.018 A 
ENDBRANCH   2  11
BRANCH   4  18
ATOM     18  C   UNL d   1     -48.609  12.183  23.039  0.00  0.00     0.064 A 
ATOM     19  S   UNL d   1     -48.273  11.808  23.687  0.00  0.00    -0.083 SA
ATOM     20  C   UNL d   1     -47.994  11.079  23.435  0.00  0.00     0.035 A 
ATOM     21  C   UNL d   1     -48.157  11.004  22.632  0.00  0.00     0.008 A 
ATOM     22  C   UNL d   1     -48.535  11.678  22.381  0.00  0.00     0.010 A 
ENDBRANCH   4  18
TORSDOF 2
ENDMDL
MODEL 3
REMARK VINA RESULT:      -7.0      1.616      3.106
REMARK  2 active torsions:
REMARK  status: ('A' for Active; 'I' for Inactive)
REMARK    1  A    between atoms: C_9  and  N_2 
REMARK    2  A    between atoms: C_7  and  C_4 
ROOT
ATOM      1  C   UNL d   1     -48.922  12.259  23.084  0.00  0.00     0.136 A 
ATOM      2  N   UNL d   1     -48.636  12.998  22.849  0.00  0.00    -0.282 N 
ATOM      3  C   UNL d   1     -49.732  12.164  23.228  0.00  0.00     0.152 A 
ATOM      4  C   UNL d   1     -49.160  13.639  22.760  0.00  0.00     0.158 A 
ATOM      5  N   UNL d   1     -49.967  13.536  22.906  0.00  0.00    -0.189 NA
ATOM      6  C   UNL d   1     -50.252  12.799  23.140  0.00  0.00     0.292 A 
ATOM      7  C   UNL d   1     -50.016  11.427  23.462  0.00  0.00     0.108 C 
ATOM      8  N   UNL d   1     -50.307  10.686  23.698  0.00  0.00    -0.191 NA
ATOM      9  S   UNL d   1     -48.410  11.620  23.175  0.00  0.00    -0.058 SA
ATOM     10  O   UNL d   1     -51.062  12.692  23.287  0.00  0.00    -0.264 OA
ENDROOT
BRANCH   2  11
ATOM     11  C   UNL d   1     -47.834  13.098  22.705  0.00  0.00     0.066 A 
ATOM     12  C   UNL d   1     -47.536  12.961  21.948  0.00  0.00     0.018 A 
ATOM     13  C   UNL d   1     -46.731  13.062  21.806  0.00  0.00     0.002 A 
ATOM     14  C   UNL d   1     -46.224  13.297  22.416  0.00  0.00     0.000 A 
ATOM     15  C   UNL d   1     -46.527  13.434  23.175  0.00  0.00     0.002 A 
ATOM     16  C   UNL d   1     -45.419  13.398  22.273  0.00  0.00     0.000 C 
ATOM     17  C   UNL d   1     -47.332  13.333  23.318  0.00  0.00     0.018 A 
ENDBRANCH   2  11
BRANCH   4  18
ATOM     18  C   UNL d   1     -48.876  14.376  22.526  0.00  0.00     0.064 A 
ATOM     19  S   UNL d   1     -48.663  14.991  23.026  0.00  0.00    -0.083 SA
ATOM     20  C   UNL d   1     -48.412  15.617  22.558  0.00  0.00     0.035 A 
ATOM     21  C   UNL d   1     -48.470  15.389  21.770  0.00  0.00     0.008 A 
ATOM     22  C   UNL d   1     -48.754  14.629  21.741  0.00  0.00     0.010 A 
ENDBRANCH   4  18
TORSDOF 2
ENDMDL
MODEL 4
REMARK VINA RESULT:      -6.5      1.887      3.924
REMARK  2 active torsions:
REMARK  status: ('A' for Active; 'I' for Inactive)
REMARK    1  A    between atoms: C_9  and  N_2 
REMARK    2  A    between atoms: C_7  and  C_4 
ROOT
ATOM      1  C   UNL d   1     -49.294  13.755  22.614  0.00  0.00     0.136 A 
ATOM      2  N   UNL d   1     -48.501  13.524  22.659  0.00  0.00    -0.282 N 
ATOM      3  C   UNL d   1     -49.479  14.550  22.480  0.00  0.00     0.152 A 
ATOM      4  C   UNL d   1     -47.897  14.090  22.569  0.00  0.00     0.158 A 
ATOM      5  N   UNL d   1     -48.090  14.883  22.435  0.00  0.00    -0.189 NA
ATOM      6  C   UNL d   1     -48.880  15.111  22.391  0.00  0.00     0.292 A 
ATOM      7  C   UNL d   1     -50.269  14.779  22.435  0.00  0.00     0.108 C 
ATOM      8  N   UNL d   1     -51.064  15.014  22.390  0.00  0.00    -0.191 NA
ATOM      9  S   UNL d   1     -49.898  13.200  22.702  0.00  0.00    -0.058 SA
ATOM     10  O   UNL d   1     -49.077  15.907  22.256  0.00  0.00    -0.264 OA
ENDROOT
BRANCH   2  11
ATOM     11  C   UNL d   1     -48.313  12.736  22.792  0.00  0.00     0.066 A 
ATOM     12  C   UNL d   1     -48.187  12.472  23.564  0.00  0.00     0.018 A 
ATOM     13  C   UNL d   1     -47.998  11.682  23.695  0.00  0.00     0.002 A 
ATOM     14  C   UNL d   1     -47.934  11.155  23.059  0.00  0.00     0.000 A 
ATOM     15  C   UNL d   1     -48.061  11.424  22.285  0.00  0.00     0.002 A 
ATOM     16  C   UNL d   1     -47.745  10.364  23.191  0.00  0.00     0.000 C 
ATOM     17  C   UNL d   1     -48.250  12.215  22.154  0.00  0.00     0.018 A 
ENDBRANCH   2  11
BRANCH   4  18
ATOM     18  C   UNL d   1     -47.107  13.862  22.614  0.00  0.00     0.064 A 
ATOM     19  S   UNL d   1     -46.631  13.646  21.980  0.00  0.00    -0.083 SA
ATOM     20  C   UNL d   1     -45.889  13.462  22.278  0.00  0.00     0.035 A 
ATOM     21  C   UNL d   1     -45.906  13.562  23.094  0.00  0.00     0.008 A 
ATOM     22  C   UNL d   1     -46.650  13.808  23.309  0.00  0.00     0.010 A 
ENDBRANCH   4  18
TORSDOF 2
ENDMDL
MODEL 5
REMARK VINA RESULT:      -6.4      9.314     10.451
REMARK  2 active torsions:
REMARK  status: ('A' for Active; 'I' for Inactive)
REMARK    1  A    between atoms: C_9  and  N_2 
REMARK    2  A    between atoms: C_7  and  C_4 
ROOT
ATOM      1  C   UNL d   1     -39.267  14.413  19.763  0.00  0.00     0.136 A 
ATOM      2  N   UNL d   1     -39.520  14.589  18.996  0.00  0.00    -0.282 N 
ATOM      3  C   UNL d   1     -39.665  14.741  20.410  0.00  0.00     0.152 A 
ATOM      4  C   UNL d   1     -40.172  15.095  18.880  0.00  0.00     0.158 A 
ATOM      5  N   UNL d   1     -40.565  15.419  19.531  0.00  0.00    -0.189 NA
ATOM      6  C   UNL d   1     -40.311  15.241  20.294  0.00  0.00     0.292 A 
ATOM      7  C   UNL d   1     -39.412  14.564  21.173  0.00  0.00     0.108 C 
ATOM      8  N   UNL d   1     -39.159  14.388  21.944  0.00  0.00    -0.191 NA
ATOM      9  S   UNL d   1     -38.622  13.913  19.887  0.00  0.00    -0.058 SA
ATOM     10  O   UNL d   1     -40.705  15.566  20.950  0.00  0.00    -0.264 OA
ENDROOT
BRANCH   2  11
ATOM     11  C   UNL d   1     -39.128  14.266  18.352  0.00  0.00     0.066 A 
ATOM     12  C   UNL d   1     -39.375  13.540  18.047  0.00  0.00     0.018 A 
ATOM     13  C   UNL d   1     -38.979  13.218  17.401  0.00  0.00     0.002 A 
ATOM     14  C   UNL d   1     -38.340  13.617  17.059  0.00  0.00     0.000 A 
ATOM     15  C   UNL d   1     -38.095  14.346  17.368  0.00  0.00     0.002 A 
ATOM     16  C   UNL d   1     -37.945  13.294  16.412  0.00  0.00     0.000 C 
ATOM     17  C   UNL d   1     -38.490  14.669  18.015  0.00  0.00     0.018 A 
ENDBRANCH   2  11
BRANCH   4  18
ATOM     18  C   UNL d   1     -40.426  15.272  18.116  0.00  0.00     0.064 A 
ATOM     19  S   UNL d   1     -40.190  15.918  17.668  0.00  0.00    -0.083 SA
ATOM     20  C   UNL d   1     -40.579  15.876  16.947  0.00  0.00     0.035 A 
ATOM     21  C   UNL d   1     -41.054  15.204  16.949  0.00  0.00     0.008 A 
ATOM     22  C   UNL d   1     -40.966  14.827  17.663  0.00  0.00     0.010 A 
ENDBRANCH   4  18
TORSDOF 2
ENDMDL
MODEL 6
REMARK VINA RESULT:      -6.2      9.541     10.488
REMARK  2 active torsions:
REMARK  status: ('A' for Active; 'I' for Inactive)
REMARK    1  A    between atoms: C_9  and  N_2 
REMARK    2  A    between atoms: C_7  and  C_4 
ROOT
ATOM      1  C   UNL d   1     -39.548  14.661  19.895  0.00  0.00     0.136 A 
ATOM      2  N   UNL d   1     -39.369  14.507  19.103  0.00  0.00    -0.282 N 
ATOM      3  C   UNL d   1     -39.084  14.321  20.491  0.00  0.00     0.152 A 
ATOM      4  C   UNL d   1     -38.726  14.013  18.910  0.00  0.00     0.158 A 
ATOM      5  N   UNL d   1     -38.268  13.677  19.511  0.00  0.00    -0.189 NA
ATOM      6  C   UNL d   1     -38.448  13.832  20.300  0.00  0.00     0.292 A 
ATOM      7  C   UNL d   1     -39.264  14.475  21.280  0.00  0.00     0.108 C 
ATOM      8  N   UNL d   1     -39.442  14.628  22.076  0.00  0.00    -0.191 NA
ATOM      9  S   UNL d   1     -40.182  15.149  20.095  0.00  0.00    -0.058 SA
ATOM     10  O   UNL d   1     -37.989  13.495  20.905  0.00  0.00    -0.264 OA
ENDROOT
BRANCH   2  11
ATOM     11  C   UNL d   1     -39.825  14.842  18.509  0.00  0.00     0.066 A 
ATOM     12  C   UNL d   1     -40.483  14.434  18.222  0.00  0.00     0.018 A 
ATOM     13  C   UNL d   1     -40.940  14.773  17.626  0.00  0.00     0.002 A 
ATOM     14  C   UNL d   1     -40.742  15.514  17.317  0.00  0.00     0.000 A 
ATOM     15  C   UNL d   1     -40.080  15.920  17.607  0.00  0.00     0.002 A 
ATOM     16  C   UNL d   1     -41.199  15.852  16.720  0.00  0.00     0.000 C 
ATOM     17  C   UNL d   1     -39.623  15.582  18.203  0.00  0.00     0.018 A 
ENDBRANCH   2  11
BRANCH   4  18
ATOM     18  C   UNL d   1     -38.546  13.859  18.121  0.00  0.00     0.064 A 
ATOM     19  S   UNL d   1     -38.021  14.284  17.654  0.00  0.00    -0.083 SA
ATOM     20  C   UNL d   1     -38.014  13.939  16.910  0.00  0.00     0.035 A 
ATOM     21  C   UNL d   1     -38.534  13.301  16.916  0.00  0.00     0.008 A 
ATOM     22  C   UNL d   1     -38.866  13.245  17.656  0.00  0.00     0.010 A 
ENDBRANCH   4  18
TORSDOF 2
ENDMDL
MODEL 7
REMARK VINA RESULT:      -6.2      8.351     10.040
REMARK  2 active torsions:
REMARK  status: ('A' for Active; 'I' for Inactive)
REMARK    1  A    between atoms: C_9  and  N_2 
REMARK    2  A    between atoms: C_7  and  C_4 
ROOT
ATOM      1  C   UNL d   1     -39.014  14.138  18.856  0.00  0.00     0.136 A 
ATOM      2  N   UNL d   1     -39.437  14.483  19.476  0.00  0.00    -0.282 N 
ATOM      3  C   UNL d   1     -39.395  13.988  18.136  0.00  0.00     0.152 A 
ATOM      4  C   UNL d   1     -40.241  14.678  19.373  0.00  0.00     0.158 A 
ATOM      5  N   UNL d   1     -40.614  14.525  18.652  0.00  0.00    -0.189 NA
ATOM      6  C   UNL d   1     -40.191  14.181  18.035  0.00  0.00     0.292 A 
ATOM      7  C   UNL d   1     -38.971  13.644  17.519  0.00  0.00     0.108 C 
ATOM      8  N   UNL d   1     -38.549  13.297  16.895  0.00  0.00    -0.191 NA
ATOM      9  S   UNL d   1     -38.218  13.942  18.949  0.00  0.00    -0.058 SA
ATOM     10  O   UNL d   1     -40.564  14.026  17.308  0.00  0.00    -0.264 OA
ENDROOT
BRANCH   2  11
ATOM     11  C   UNL d   1     -39.064  14.633  20.191  0.00  0.00     0.066 A 
ATOM     12  C   UNL d   1     -38.690  15.359  20.311  0.00  0.00     0.018 A 
ATOM     13  C   UNL d   1     -38.316  15.507  21.029  0.00  0.00     0.002 A 
ATOM     14  C   UNL d   1     -38.314  14.935  21.627  0.00  0.00     0.000 A 
ATOM     15  C   UNL d   1     -38.691  14.207  21.503  0.00  0.00     0.002 A 
ATOM     16  C   UNL d   1     -37.940  15.083  22.345  0.00  0.00     0.000 C 
ATOM     17  C   UNL d   1     -39.066  14.058  20.784  0.00  0.00     0.018 A 
ENDBRANCH   2  11
BRANCH   4  18
ATOM     18  C   UNL d   1     -40.664  15.022  19.991  0.00  0.00     0.064 A 
ATOM     19  S   UNL d   1     -40.759  15.827  20.119  0.00  0.00    -0.083 SA
ATOM     20  C   UNL d   1     -41.218  15.919  20.793  0.00  0.00     0.035 A 
ATOM     21  C   UNL d   1     -41.408  15.172  21.080  0.00  0.00     0.008 A 
ATOM     22  C   UNL d   1     -41.072  14.615  20.594  0.00  0.00     0.010 A 
ENDBRANCH   4  18
TORSDOF 2
ENDMDL
