MODEL 1
REMARK VINA RESULT:       0.3      0.000      0.000
REMARK  6 active torsions:
REMARK  status: ('A' for Active; 'I' for Inactive)
REMARK       I    between atoms: C_2  and  N_1 
REMARK    1  A    between atoms: C_4  and  N_1 
REMARK    2  A    between atoms: C_11  and  N_1 
REMARK    3  A    between atoms: C_3  and  C_2 
REMARK    4  A    between atoms: C_5  and  C_4 
REMARK       I    between atoms: N_10  and  C_5 
REMARK    5  A    between atoms: C_21  and  N_10 
REMARK    6  A    between atoms: C_13  and  C_11 
ROOT
ATOM      1  N   UNL d   1      32.681  21.581 -22.029  0.00  0.00    -0.281 N 
ATOM      2  C   UNL d   1      32.337  21.901 -21.350  0.00  0.00     0.263 C 
ATOM      3  O   UNL d   1      31.803  21.473 -20.913  0.00  0.00    -0.267 OA
ENDROOT
BRANCH   1   4
ATOM      4  C   UNL d   1      32.475  20.303 -22.601  0.00  0.00     0.181 A 
ATOM      5  C   UNL d   1      32.489  19.607 -22.710  0.00  0.00     0.007 A 
ATOM      6  C   UNL d   1      32.878  19.144 -22.172  0.00  0.00    -0.002 A 
ATOM      7  C   UNL d   1      33.241  19.479 -21.523  0.00  0.00    -0.001 A 
ATOM      8  C   UNL d   1      33.210  20.294 -21.420  0.00  0.00    -0.002 A 
ATOM      9  C   UNL d   1      32.821  20.758 -21.958  0.00  0.00     0.007 A 
BRANCH   4  10
ATOM     10  C   UNL d   1      32.169  19.113 -23.319  0.00  0.00     0.282 C 
ATOM     11  N   UNL d   1      31.791  18.927 -24.028  0.00  0.00    -0.210 NA
ATOM     12  O   UNL d   1      32.480  18.522 -22.839  0.00  0.00    -0.268 OA
BRANCH  11  13
ATOM     13  C   UNL d   1      31.722  18.139 -24.262  0.00  0.00     0.084 A 
ATOM     14  C   UNL d   1      31.034  17.696 -24.253  0.00  0.00     0.019 A 
ATOM     15  C   UNL d   1      31.211  16.955 -24.524  0.00  0.00     0.002 A 
ATOM     16  C   UNL d   1      32.013  16.933 -24.703  0.00  0.00     0.002 A 
ATOM     17  C   UNL d   1      32.318  17.663 -24.539  0.00  0.00     0.019 A 
ENDBRANCH  11  13
ENDBRANCH   4  10
ENDBRANCH   1   4
BRANCH   1  18
ATOM     18  C   UNL d   1      33.241  22.090 -22.447  0.00  0.00     0.104 C 
BRANCH  18  19
ATOM     19  C   UNL d   1      32.977  22.536 -23.153  0.00  0.00     0.117 A 
ATOM     20  O   UNL d   1      32.473  23.116 -23.160  0.00  0.00    -0.304 OA
ATOM     21  C   UNL d   1      32.378  23.392 -23.986  0.00  0.00     0.123 A 
ATOM     22  C   UNL d   1      32.826  22.977 -24.480  0.00  0.00     0.029 A 
ATOM     23  C   UNL d   1      33.241  22.398 -23.971  0.00  0.00     0.028 A 
ENDBRANCH  18  19
ENDBRANCH   1  18
BRANCH   2  24
ATOM     24  C   UNL d   1      32.206  22.620 -20.694  0.00  0.00     0.076 A 
ATOM     25  C   UNL d   1      32.646  22.119 -20.099  0.00  0.00     0.107 A 
ATOM     26  N   UNL d   1      32.777  22.402 -19.294  0.00  0.00    -0.206 NA
ATOM     27  C   UNL d   1      32.482  23.162 -19.071  0.00  0.00     0.279 A 
ATOM     28  C   UNL d   1      32.048  23.671 -19.634  0.00  0.00     0.063 A 
ATOM     29  O   UNL d   1      32.618  23.439 -18.256  0.00  0.00    -0.265 OA
ATOM     30  C   UNL d   1      31.914  23.392 -20.445  0.00  0.00     0.011 A 
ENDBRANCH   2  24
TORSDOF 6
ENDMDL
