MODEL 1
REMARK VINA RESULT:      -2.4      0.000      0.000
REMARK  10 active torsions:
REMARK  status: ('A' for Active; 'I' for Inactive)
REMARK    1  A    between atoms: C_8  and  S_1 
REMARK    2  A    between atoms: N_18  and  S_1 
REMARK    3  A    between atoms: S_2  and  C_9 
REMARK    4  A    between atoms: N_19  and  S_2 
REMARK    5  A    between atoms: C_23  and  N_18 
REMARK    6  A    between atoms: C_24  and  N_19 
REMARK    7  A    between atoms: C_27  and  C_23 
REMARK    8  A    between atoms: C_28  and  C_24 
REMARK    9  A    between atoms: O_25  and  C_27 
REMARK   10  A    between atoms: O_26  and  C_28 
ROOT
ATOM      1  C   UNL d   1      33.210  20.051 -21.815  0.00  0.00     0.040 A 
ATOM      2  C   UNL d   1      33.210  21.129 -21.007  0.00  0.00     0.040 A 
ATOM      3  C   UNL d   1      33.222  20.291 -21.012  0.00  0.00     0.196 A 
ATOM      4  C   UNL d   1      33.192  21.357 -21.803  0.00  0.00     0.003 A 
ATOM      5  C   UNL d   1      33.192  20.689 -22.291  0.00  0.00     0.003 A 
ATOM      6  C   UNL d   1      33.201  19.195 -22.962  0.00  0.00     0.105 A 
ATOM      7  C   UNL d   1      33.199  22.484 -20.588  0.00  0.00     0.105 A 
ATOM      8  C   UNL d   1      33.215  19.287 -22.143  0.00  0.00     0.016 A 
ATOM      9  C   UNL d   1      33.213  21.679 -20.397  0.00  0.00     0.016 A 
ATOM     10  C   UNL d   1      33.177  22.180 -21.976  0.00  0.00     0.001 A 
ATOM     11  C   UNL d   1      33.178  20.595 -23.108  0.00  0.00     0.001 A 
ATOM     12  O   UNL d   1      33.241  19.803 -20.343  0.00  0.00    -0.287 OA
ATOM     13  C   UNL d   1      33.180  22.737 -21.368  0.00  0.00     0.013 A 
ATOM     14  C   UNL d   1      33.183  19.845 -23.430  0.00  0.00     0.013 A 
ENDROOT
BRANCH   6  15
ATOM     15  S   UNL d   1      33.205  18.417 -23.293  0.00  0.00     0.285 S 
ATOM     16  O   UNL d   1      33.233  18.749 -24.072  0.00  0.00    -0.198 OA
ATOM     17  O   UNL d   1      33.179  18.123 -22.529  0.00  0.00    -0.198 OA
BRANCH  15  18
ATOM     18  N   UNL d   1      33.210  17.666 -23.610  0.00  0.00    -0.155 NA
BRANCH  18  19
ATOM     19  C   UNL d   1      32.546  17.162 -23.549  0.00  0.00     0.138 C 
BRANCH  19  20
ATOM     20  C   UNL d   1      32.462  16.502 -24.037  0.00  0.00     0.138 C 
BRANCH  20  21
ATOM     21  O   UNL d   1      31.751  16.326 -24.371  0.00  0.00    -0.325 OA
ATOM     22  C   UNL d   1      31.467  15.561 -24.374  0.00  0.00     0.182 C 
ENDBRANCH  20  21
ENDBRANCH  19  20
ENDBRANCH  18  19
ENDBRANCH  15  18
ENDBRANCH   6  15
BRANCH   7  23
ATOM     23  S   UNL d   1      33.202  23.071 -19.981  0.00  0.00     0.285 S 
ATOM     24  O   UNL d   1      33.174  22.462 -19.397  0.00  0.00    -0.198 OA
ATOM     25  O   UNL d   1      33.229  23.661 -20.580  0.00  0.00    -0.198 OA
BRANCH  23  26
ATOM     26  N   UNL d   1      33.205  23.643 -19.404  0.00  0.00    -0.155 NA
BRANCH  26  27
ATOM     27  C   UNL d   1      32.746  23.556 -18.724  0.00  0.00     0.138 C 
BRANCH  27  28
ATOM     28  C   UNL d   1      33.072  23.653 -17.996  0.00  0.00     0.138 C 
BRANCH  28  29
ATOM     29  O   UNL d   1      32.581  23.641 -17.316  0.00  0.00    -0.325 OA
ATOM     30  C   UNL d   1      32.885  23.561 -16.572  0.00  0.00     0.182 C 
ENDBRANCH  28  29
ENDBRANCH  27  28
ENDBRANCH  26  27
ENDBRANCH  23  26
ENDBRANCH   7  23
TORSDOF 10
ENDMDL
MODEL 2
REMARK VINA RESULT:       0.2      0.996      1.458
REMARK  10 active torsions:
REMARK  status: ('A' for Active; 'I' for Inactive)
REMARK    1  A    between atoms: C_8  and  S_1 
REMARK    2  A    between atoms: N_18  and  S_1 
REMARK    3  A    between atoms: S_2  and  C_9 
REMARK    4  A    between atoms: N_19  and  S_2 
REMARK    5  A    between atoms: C_23  and  N_18 
REMARK    6  A    between atoms: C_24  and  N_19 
REMARK    7  A    between atoms: C_27  and  C_23 
REMARK    8  A    between atoms: C_28  and  C_24 
REMARK    9  A    between atoms: O_25  and  C_27 
REMARK   10  A    between atoms: O_26  and  C_28 
ROOT
ATOM      1  C   UNL d   1      33.029  19.260 -22.695  0.00  0.00     0.040 A 
ATOM      2  C   UNL d   1      33.086  20.444 -22.053  0.00  0.00     0.040 A 
ATOM      3  C   UNL d   1      33.014  19.617 -21.936  0.00  0.00     0.196 A 
ATOM      4  C   UNL d   1      33.141  20.549 -22.873  0.00  0.00     0.003 A 
ATOM      5  C   UNL d   1      33.105  19.817 -23.258  0.00  0.00     0.003 A 
ATOM      6  C   UNL d   1      33.006  18.244 -23.703  0.00  0.00     0.105 A 
ATOM      7  C   UNL d   1      33.184  21.841 -21.838  0.00  0.00     0.105 A 
ATOM      8  C   UNL d   1      32.977  18.458 -22.906  0.00  0.00     0.016 A 
ATOM      9  C   UNL d   1      33.106  21.077 -21.532  0.00  0.00     0.016 A 
ATOM     10  C   UNL d   1      33.219  21.334 -23.164  0.00  0.00     0.001 A 
ATOM     11  C   UNL d   1      33.133  19.601 -24.051  0.00  0.00     0.001 A 
ATOM     12  O   UNL d   1      32.942  19.236 -21.204  0.00  0.00    -0.287 OA
ATOM     13  C   UNL d   1      33.240  21.974 -22.645  0.00  0.00     0.013 A 
ATOM     14  C   UNL d   1      33.083  18.815 -24.260  0.00  0.00     0.013 A 
ENDROOT
BRANCH   6  15
ATOM     15  S   UNL d   1      32.954  17.428 -23.916  0.00  0.00     0.285 S 
ATOM     16  O   UNL d   1      33.100  17.208 -23.112  0.00  0.00    -0.198 OA
ATOM     17  O   UNL d   1      32.814  17.669 -24.687  0.00  0.00    -0.198 OA
BRANCH  15  18
ATOM     18  N   UNL d   1      32.903  16.641 -24.125  0.00  0.00    -0.155 NA
BRANCH  18  19
ATOM     19  C   UNL d   1      32.217  16.191 -23.967  0.00  0.00     0.138 C 
BRANCH  19  20
ATOM     20  C   UNL d   1      31.563  16.215 -24.469  0.00  0.00     0.138 C 
BRANCH  20  21
ATOM     21  O   UNL d   1      31.078  15.576 -24.544  0.00  0.00    -0.325 OA
ATOM     22  C   UNL d   1      30.267  15.660 -24.522  0.00  0.00     0.182 C 
ENDBRANCH  20  21
ENDBRANCH  19  20
ENDBRANCH  18  19
ENDBRANCH  15  18
ENDBRANCH   6  15
BRANCH   7  23
ATOM     23  S   UNL d   1      33.208  22.512 -21.324  0.00  0.00     0.285 S 
ATOM     24  O   UNL d   1      33.180  23.022 -21.997  0.00  0.00    -0.198 OA
ATOM     25  O   UNL d   1      33.235  21.984 -20.669  0.00  0.00    -0.198 OA
BRANCH  23  26
ATOM     26  N   UNL d   1      33.231  23.151 -20.823  0.00  0.00    -0.155 NA
BRANCH  26  27
ATOM     27  C   UNL d   1      32.672  23.234 -20.222  0.00  0.00     0.138 C 
BRANCH  27  28
ATOM     28  C   UNL d   1      32.824  23.701 -19.586  0.00  0.00     0.138 C 
BRANCH  28  29
ATOM     29  O   UNL d   1      32.596  23.445 -18.819  0.00  0.00    -0.325 OA
ATOM     30  C   UNL d   1      33.129  23.380 -18.216  0.00  0.00     0.182 C 
ENDBRANCH  28  29
ENDBRANCH  27  28
ENDBRANCH  26  27
ENDBRANCH  23  26
ENDBRANCH   7  23
TORSDOF 10
ENDMDL
