MODEL 1
REMARK VINA RESULT:      -4.3      0.000      0.000
REMARK  8 active torsions:
REMARK  status: ('A' for Active; 'I' for Inactive)
REMARK    1  A    between atoms: N_7  and  N_1 
REMARK    2  A    between atoms: S_9  and  C_2 
REMARK       I    between atoms: C_8  and  N_7 
REMARK    3  A    between atoms: C_19  and  C_8 
REMARK    4  A    between atoms: C_18  and  S_9 
REMARK    5  A    between atoms: C_10  and  C_18 
REMARK       I    between atoms: N_13  and  C_10 
REMARK    6  A    between atoms: C_12  and  C_14 
REMARK    7  A    between atoms: C_14  and  N_13 
REMARK    8  A    between atoms: C_22  and  C_19 
ROOT
ATOM      1  N   UNL d   1     -40.670  14.779  20.496  0.00  0.00    -0.168 N 
ATOM      2  C   UNL d   1     -41.165  14.191  20.244  0.00  0.00     0.199 A 
ATOM      3  C   UNL d   1     -40.262  15.244  19.945  0.00  0.00     0.283 A 
ATOM      4  N   UNL d   1     -41.274  14.042  19.424  0.00  0.00    -0.221 NA
ATOM      5  C   UNL d   1     -40.367  15.099  19.126  0.00  0.00     0.076 A 
ATOM      6  C   UNL d   1     -40.872  14.499  18.869  0.00  0.00     0.088 A 
ATOM      7  O   UNL d   1     -39.756  15.845  20.196  0.00  0.00    -0.265 OA
ATOM      8  C   UNL d   1     -39.956  15.568  18.579  0.00  0.00     0.006 A 
ATOM      9  C   UNL d   1     -40.968  14.365  18.067  0.00  0.00     0.019 A 
ATOM     10  C   UNL d   1     -40.061  15.422  17.772  0.00  0.00     0.000 A 
ATOM     11  C   UNL d   1     -40.566  14.822  17.515  0.00  0.00     0.002 A 
ENDROOT
BRANCH   2  12
ATOM     12  S   UNL d   1     -41.567  13.734  20.786  0.00  0.00    -0.043 SA
BRANCH  12  13
ATOM     13  C   UNL d   1     -42.388  13.683  20.756  0.00  0.00     0.101 C 
BRANCH  13  14
ATOM     14  C   UNL d   1     -42.776  13.089  21.163  0.00  0.00     0.286 C 
ATOM     15  N   UNL d   1     -43.529  13.220  21.464  0.00  0.00    -0.206 NA
ATOM     16  O   UNL d   1     -42.411  12.357  21.271  0.00  0.00    -0.265 OA
BRANCH  15  17
ATOM     17  C   UNL d   1     -43.917  12.625  21.871  0.00  0.00     0.103 C 
BRANCH  17  18
ATOM     18  C   UNL d   1     -44.673  12.753  22.163  0.00  0.00     0.030 A 
ATOM     19  C   UNL d   1     -45.012  12.219  22.693  0.00  0.00     0.059 A 
ATOM     20 CL   UNL d   1     -44.586  11.553  22.931  0.00  0.00    -0.082 Cl
ATOM     21  C   UNL d   1     -45.768  12.346  22.985  0.00  0.00     0.011 A 
ATOM     22  C   UNL d   1     -46.193  13.010  22.748  0.00  0.00     0.001 A 
ATOM     23  C   UNL d   1     -45.853  13.545  22.216  0.00  0.00     0.000 A 
ATOM     24  C   UNL d   1     -45.099  13.417  21.925  0.00  0.00     0.002 A 
ENDBRANCH  17  18
ENDBRANCH  15  17
ENDBRANCH  13  14
ENDBRANCH  12  13
ENDBRANCH   2  12
BRANCH   1  25
ATOM     25  N   UNL d   1     -40.568  14.921  21.293  0.00  0.00    -0.119 NA
ATOM     26  C   UNL d   1     -39.872  14.698  21.658  0.00  0.00     0.296 C 
ATOM     27  O   UNL d   1     -39.270  14.331  21.230  0.00  0.00    -0.264 OA
BRANCH  26  28
ATOM     28  C   UNL d   1     -39.771  14.843  22.466  0.00  0.00     0.064 C 
BRANCH  28  29
ATOM     29  C   UNL d   1     -39.186  14.456  22.873  0.00  0.00     0.005 A 
ATOM     30  C   UNL d   1     -39.267  13.650  23.029  0.00  0.00     0.000 A 
ATOM     31  C   UNL d   1     -38.671  13.256  23.443  0.00  0.00     0.000 A 
ATOM     32  C   UNL d   1     -38.012  13.659  23.695  0.00  0.00     0.000 A 
ATOM     33  C   UNL d   1     -37.940  14.470  23.534  0.00  0.00     0.000 A 
ATOM     34  C   UNL d   1     -38.527  14.858  23.125  0.00  0.00     0.000 A 
ENDBRANCH  28  29
ENDBRANCH  26  28
ENDBRANCH   1  25
TORSDOF 8
ENDMDL
MODEL 2
REMARK VINA RESULT:      -4.2      4.459      7.281
REMARK  8 active torsions:
REMARK  status: ('A' for Active; 'I' for Inactive)
REMARK    1  A    between atoms: N_7  and  N_1 
REMARK    2  A    between atoms: S_9  and  C_2 
REMARK       I    between atoms: C_8  and  N_7 
REMARK    3  A    between atoms: C_19  and  C_8 
REMARK    4  A    between atoms: C_18  and  S_9 
REMARK    5  A    between atoms: C_10  and  C_18 
REMARK       I    between atoms: N_13  and  C_10 
REMARK    6  A    between atoms: C_12  and  C_14 
REMARK    7  A    between atoms: C_14  and  N_13 
REMARK    8  A    between atoms: C_22  and  C_19 
ROOT
ATOM      1  N   UNL d   1     -46.075  12.572  23.038  0.00  0.00    -0.168 N 
ATOM      2  C   UNL d   1     -46.060  13.280  22.647  0.00  0.00     0.199 A 
ATOM      3  C   UNL d   1     -45.423  12.063  23.004  0.00  0.00     0.283 A 
ATOM      4  N   UNL d   1     -45.385  13.511  22.203  0.00  0.00    -0.221 NA
ATOM      5  C   UNL d   1     -44.747  12.289  22.562  0.00  0.00     0.076 A 
ATOM      6  C   UNL d   1     -44.731  13.011  22.163  0.00  0.00     0.088 A 
ATOM      7  O   UNL d   1     -45.433  11.340  23.401  0.00  0.00    -0.265 OA
ATOM      8  C   UNL d   1     -44.096  11.775  22.532  0.00  0.00     0.006 A 
ATOM      9  C   UNL d   1     -44.067  13.223  21.734  0.00  0.00     0.019 A 
ATOM     10  C   UNL d   1     -43.432  12.001  22.094  0.00  0.00     0.000 A 
ATOM     11  C   UNL d   1     -43.416  12.723  21.696  0.00  0.00     0.002 A 
ENDROOT
BRANCH   2  12
ATOM     12  S   UNL d   1     -46.701  13.780  22.681  0.00  0.00    -0.043 SA
BRANCH  12  13
ATOM     13  C   UNL d   1     -46.639  14.553  22.403  0.00  0.00     0.101 C 
BRANCH  13  14
ATOM     14  C   UNL d   1     -47.220  15.100  22.580  0.00  0.00     0.286 C 
ATOM     15  N   UNL d   1     -48.003  14.946  22.385  0.00  0.00    -0.206 NA
ATOM     16  O   UNL d   1     -47.021  15.807  22.954  0.00  0.00    -0.265 OA
BRANCH  15  17
ATOM     17  C   UNL d   1     -48.586  15.493  22.562  0.00  0.00     0.103 C 
BRANCH  17  18
ATOM     18  C   UNL d   1     -49.372  15.324  22.400  0.00  0.00     0.030 A 
ATOM     19  C   UNL d   1     -49.956  15.469  22.965  0.00  0.00     0.059 A 
ATOM     20 CL   UNL d   1     -49.746  15.786  23.698  0.00  0.00    -0.082 Cl
ATOM     21  C   UNL d   1     -50.742  15.300  22.803  0.00  0.00     0.011 A 
ATOM     22  C   UNL d   1     -50.951  14.984  22.072  0.00  0.00     0.001 A 
ATOM     23  C   UNL d   1     -50.366  14.838  21.506  0.00  0.00     0.000 A 
ATOM     24  C   UNL d   1     -49.582  15.007  21.669  0.00  0.00     0.002 A 
ENDBRANCH  17  18
ENDBRANCH  15  17
ENDBRANCH  13  14
ENDBRANCH  12  13
ENDBRANCH   2  12
BRANCH   1  25
ATOM     25  N   UNL d   1     -46.733  12.351  23.469  0.00  0.00    -0.119 NA
ATOM     26  C   UNL d   1     -47.206  11.742  23.203  0.00  0.00     0.296 C 
ATOM     27  O   UNL d   1     -47.027  11.344  22.502  0.00  0.00    -0.264 OA
BRANCH  26  28
ATOM     28  C   UNL d   1     -47.872  11.520  23.642  0.00  0.00     0.064 C 
BRANCH  28  29
ATOM     29  C   UNL d   1     -48.598  11.490  23.282  0.00  0.00     0.005 A 
ATOM     30  C   UNL d   1     -49.237  11.162  23.687  0.00  0.00     0.000 A 
ATOM     31  C   UNL d   1     -49.976  11.131  23.321  0.00  0.00     0.000 A 
ATOM     32  C   UNL d   1     -50.073  11.421  22.568  0.00  0.00     0.000 A 
ATOM     33  C   UNL d   1     -49.424  11.749  22.168  0.00  0.00     0.000 A 
ATOM     34  C   UNL d   1     -48.695  11.780  22.529  0.00  0.00     0.000 A 
ENDBRANCH  28  29
ENDBRANCH  26  28
ENDBRANCH   1  25
TORSDOF 8
ENDMDL
MODEL 3
REMARK VINA RESULT:      -3.3      2.140      6.680
REMARK  8 active torsions:
REMARK  status: ('A' for Active; 'I' for Inactive)
REMARK    1  A    between atoms: N_7  and  N_1 
REMARK    2  A    between atoms: S_9  and  C_2 
REMARK       I    between atoms: C_8  and  N_7 
REMARK    3  A    between atoms: C_19  and  C_8 
REMARK    4  A    between atoms: C_18  and  S_9 
REMARK    5  A    between atoms: C_10  and  C_18 
REMARK       I    between atoms: N_13  and  C_10 
REMARK    6  A    between atoms: C_12  and  C_14 
REMARK    7  A    between atoms: C_14  and  N_13 
REMARK    8  A    between atoms: C_22  and  C_19 
ROOT
ATOM      1  N   UNL d   1     -44.832  12.300  22.302  0.00  0.00    -0.168 N 
ATOM      2  C   UNL d   1     -44.031  12.357  22.205  0.00  0.00     0.199 A 
ATOM      3  C   UNL d   1     -45.159  11.652  22.701  0.00  0.00     0.283 A 
ATOM      4  N   UNL d   1     -43.519  11.762  22.505  0.00  0.00    -0.221 NA
ATOM      5  C   UNL d   1     -44.652  11.057  23.003  0.00  0.00     0.076 A 
ATOM      6  C   UNL d   1     -43.835  11.114  22.904  0.00  0.00     0.088 A 
ATOM      7  O   UNL d   1     -45.975  11.590  22.803  0.00  0.00    -0.265 OA
ATOM      8  C   UNL d   1     -44.984  10.410  23.402  0.00  0.00     0.006 A 
ATOM      9  C   UNL d   1     -43.347  10.528  23.202  0.00  0.00     0.019 A 
ATOM     10  C   UNL d   1     -44.481   9.824  23.698  0.00  0.00     0.000 A 
ATOM     11  C   UNL d   1     -43.664   9.882  23.599  0.00  0.00     0.002 A 
ENDROOT
BRANCH   2  12
ATOM     12  S   UNL d   1     -43.711  12.994  21.812  0.00  0.00    -0.043 SA
BRANCH  12  13
ATOM     13  C   UNL d   1     -42.981  12.924  21.435  0.00  0.00     0.101 C 
BRANCH  13  14
ATOM     14  C   UNL d   1     -42.577  13.594  21.199  0.00  0.00     0.286 C 
ATOM     15  N   UNL d   1     -41.764  13.566  21.086  0.00  0.00    -0.206 NA
ATOM     16  O   UNL d   1     -42.985  14.300  21.075  0.00  0.00    -0.265 OA
BRANCH  15  17
ATOM     17  C   UNL d   1     -41.359  14.237  20.850  0.00  0.00     0.103 C 
BRANCH  17  18
ATOM     18  C   UNL d   1     -40.538  14.237  20.833  0.00  0.00     0.030 A 
ATOM     19  C   UNL d   1     -40.135  14.518  20.170  0.00  0.00     0.059 A 
ATOM     20 CL   UNL d   1     -40.560  14.800  19.522  0.00  0.00    -0.082 Cl
ATOM     21  C   UNL d   1     -39.315  14.519  20.153  0.00  0.00     0.011 A 
ATOM     22  C   UNL d   1     -38.890  14.237  20.801  0.00  0.00     0.001 A 
ATOM     23  C   UNL d   1     -39.296  13.956  21.464  0.00  0.00     0.000 A 
ATOM     24  C   UNL d   1     -40.114  13.955  21.480  0.00  0.00     0.002 A 
ENDBRANCH  17  18
ENDBRANCH  15  17
ENDBRANCH  13  14
ENDBRANCH  12  13
ENDBRANCH   2  12
BRANCH   1  25
ATOM     25  N   UNL d   1     -45.327  12.880  22.008  0.00  0.00    -0.119 NA
ATOM     26  C   UNL d   1     -45.759  13.343  22.524  0.00  0.00     0.296 C 
ATOM     27  O   UNL d   1     -45.703  13.231  23.339  0.00  0.00    -0.264 OA
BRANCH  26  28
ATOM     28  C   UNL d   1     -46.259  13.930  22.224  0.00  0.00     0.064 C 
BRANCH  28  29
ATOM     29  C   UNL d   1     -47.051  13.910  22.398  0.00  0.00     0.005 A 
ATOM     30  C   UNL d   1     -47.569  13.521  21.888  0.00  0.00     0.000 A 
ATOM     31  C   UNL d   1     -48.374  13.501  22.065  0.00  0.00     0.000 A 
ATOM     32  C   UNL d   1     -48.655  13.862  22.738  0.00  0.00     0.000 A 
ATOM     33  C   UNL d   1     -48.127  14.251  23.246  0.00  0.00     0.000 A 
ATOM     34  C   UNL d   1     -47.332  14.270  23.070  0.00  0.00     0.000 A 
ENDBRANCH  28  29
ENDBRANCH  26  28
ENDBRANCH   1  25
TORSDOF 8
ENDMDL
MODEL 4
REMARK VINA RESULT:      -3.0      2.185      5.676
REMARK  8 active torsions:
REMARK  status: ('A' for Active; 'I' for Inactive)
REMARK    1  A    between atoms: N_7  and  N_1 
REMARK    2  A    between atoms: S_9  and  C_2 
REMARK       I    between atoms: C_8  and  N_7 
REMARK    3  A    between atoms: C_19  and  C_8 
REMARK    4  A    between atoms: C_18  and  S_9 
REMARK    5  A    between atoms: C_10  and  C_18 
REMARK       I    between atoms: N_13  and  C_10 
REMARK    6  A    between atoms: C_12  and  C_14 
REMARK    7  A    between atoms: C_14  and  N_13 
REMARK    8  A    between atoms: C_22  and  C_19 
ROOT
ATOM      1  N   UNL d   1     -40.393  14.395  20.939  0.00  0.00    -0.168 N 
ATOM      2  C   UNL d   1     -40.231  15.104  20.585  0.00  0.00     0.199 A 
ATOM      3  C   UNL d   1     -39.999  14.178  21.634  0.00  0.00     0.283 A 
ATOM      4  N   UNL d   1     -39.663  15.629  20.914  0.00  0.00    -0.221 NA
ATOM      5  C   UNL d   1     -39.432  14.697  21.966  0.00  0.00     0.076 A 
ATOM      6  C   UNL d   1     -39.266  15.420  21.605  0.00  0.00     0.088 A 
ATOM      7  O   UNL d   1     -40.161  13.456  22.000  0.00  0.00    -0.265 OA
ATOM      8  C   UNL d   1     -39.041  14.474  22.663  0.00  0.00     0.006 A 
ATOM      9  C   UNL d   1     -38.710  15.922  21.937  0.00  0.00     0.019 A 
ATOM     10  C   UNL d   1     -38.482  14.990  22.987  0.00  0.00     0.000 A 
ATOM     11  C   UNL d   1     -38.316  15.712  22.626  0.00  0.00     0.002 A 
ENDROOT
BRANCH   2  12
ATOM     12  S   UNL d   1     -40.618  15.318  19.902  0.00  0.00    -0.043 SA
BRANCH  12  13
ATOM     13  C   UNL d   1     -40.264  15.838  19.370  0.00  0.00     0.101 C 
BRANCH  13  14
ATOM     14  C   UNL d   1     -40.355  15.726  18.565  0.00  0.00     0.286 C 
ATOM     15  N   UNL d   1     -39.735  15.427  18.118  0.00  0.00    -0.206 NA
ATOM     16  O   UNL d   1     -41.071  15.914  18.201  0.00  0.00    -0.265 OA
BRANCH  15  17
ATOM     17  C   UNL d   1     -39.826  15.315  17.312  0.00  0.00     0.103 C 
BRANCH  17  18
ATOM     18  C   UNL d   1     -39.282  14.864  16.896  0.00  0.00     0.030 A 
ATOM     19  C   UNL d   1     -38.927  15.164  16.213  0.00  0.00     0.059 A 
ATOM     20 CL   UNL d   1     -39.120  15.921  15.950  0.00  0.00    -0.082 Cl
ATOM     21  C   UNL d   1     -38.383  14.713  15.797  0.00  0.00     0.011 A 
ATOM     22  C   UNL d   1     -38.189  13.956  16.059  0.00  0.00     0.001 A 
ATOM     23  C   UNL d   1     -38.546  13.657  16.743  0.00  0.00     0.000 A 
ATOM     24  C   UNL d   1     -39.088  14.108  17.158  0.00  0.00     0.002 A 
ENDBRANCH  17  18
ENDBRANCH  15  17
ENDBRANCH  13  14
ENDBRANCH  12  13
ENDBRANCH   2  12
BRANCH   1  25
ATOM     25  N   UNL d   1     -40.946  13.888  20.616  0.00  0.00    -0.119 NA
ATOM     26  C   UNL d   1     -41.649  13.752  21.009  0.00  0.00     0.296 C 
ATOM     27  O   UNL d   1     -41.808  14.122  21.729  0.00  0.00    -0.264 OA
BRANCH  26  28
ATOM     28  C   UNL d   1     -42.207  13.238  20.679  0.00  0.00     0.064 C 
BRANCH  28  29
ATOM     29  C   UNL d   1     -42.834  12.985  21.128  0.00  0.00     0.005 A 
ATOM     30  C   UNL d   1     -43.557  13.378  21.070  0.00  0.00     0.000 A 
ATOM     31  C   UNL d   1     -44.195  13.121  21.527  0.00  0.00     0.000 A 
ATOM     32  C   UNL d   1     -44.111  12.486  22.028  0.00  0.00     0.000 A 
ATOM     33  C   UNL d   1     -43.379  12.098  22.079  0.00  0.00     0.000 A 
ATOM     34  C   UNL d   1     -42.750  12.351  21.629  0.00  0.00     0.000 A 
ENDBRANCH  28  29
ENDBRANCH  26  28
ENDBRANCH   1  25
TORSDOF 8
ENDMDL
MODEL 5
REMARK VINA RESULT:      -2.3      1.321      1.699
REMARK  8 active torsions:
REMARK  status: ('A' for Active; 'I' for Inactive)
REMARK    1  A    between atoms: N_7  and  N_1 
REMARK    2  A    between atoms: S_9  and  C_2 
REMARK       I    between atoms: C_8  and  N_7 
REMARK    3  A    between atoms: C_19  and  C_8 
REMARK    4  A    between atoms: C_18  and  S_9 
REMARK    5  A    between atoms: C_10  and  C_18 
REMARK       I    between atoms: N_13  and  C_10 
REMARK    6  A    between atoms: C_12  and  C_14 
REMARK    7  A    between atoms: C_14  and  N_13 
REMARK    8  A    between atoms: C_22  and  C_19 
ROOT
ATOM      1  N   UNL d   1     -39.294  14.764  19.751  0.00  0.00    -0.168 N 
ATOM      2  C   UNL d   1     -40.046  14.502  19.609  0.00  0.00     0.199 A 
ATOM      3  C   UNL d   1     -38.747  14.813  19.131  0.00  0.00     0.283 A 
ATOM      4  N   UNL d   1     -40.284  14.277  18.835  0.00  0.00    -0.221 NA
ATOM      5  C   UNL d   1     -38.979  14.590  18.357  0.00  0.00     0.076 A 
ATOM      6  C   UNL d   1     -39.746  14.323  18.213  0.00  0.00     0.088 A 
ATOM      7  O   UNL d   1     -37.979  15.080  19.270  0.00  0.00    -0.265 OA
ATOM      8  C   UNL d   1     -38.427  14.642  17.741  0.00  0.00     0.006 A 
ATOM      9  C   UNL d   1     -39.965  14.107  17.454  0.00  0.00     0.019 A 
ATOM     10  C   UNL d   1     -38.660  14.421  16.979  0.00  0.00     0.000 A 
ATOM     11  C   UNL d   1     -39.427  14.154  16.834  0.00  0.00     0.002 A 
ENDROOT
BRANCH   2  12
ATOM     12  S   UNL d   1     -40.584  14.453  20.218  0.00  0.00    -0.043 SA
BRANCH  12  13
ATOM     13  C   UNL d   1     -41.278  14.019  20.124  0.00  0.00     0.101 C 
BRANCH  13  14
ATOM     14  C   UNL d   1     -41.895  14.114  20.651  0.00  0.00     0.286 C 
ATOM     15  N   UNL d   1     -42.359  13.471  20.863  0.00  0.00    -0.206 NA
ATOM     16  O   UNL d   1     -42.053  14.858  20.972  0.00  0.00    -0.265 OA
BRANCH  15  17
ATOM     17  C   UNL d   1     -42.977  13.566  21.392  0.00  0.00     0.103 C 
BRANCH  17  18
ATOM     18  C   UNL d   1     -43.313  12.911  21.754  0.00  0.00     0.030 A 
ATOM     19  C   UNL d   1     -44.126  12.885  21.899  0.00  0.00     0.059 A 
ATOM     20 CL   UNL d   1     -44.601  13.522  21.677  0.00  0.00    -0.082 Cl
ATOM     21  C   UNL d   1     -44.462  12.231  22.261  0.00  0.00     0.011 A 
ATOM     22  C   UNL d   1     -43.987  11.595  22.483  0.00  0.00     0.001 A 
ATOM     23  C   UNL d   1     -43.173  11.622  22.337  0.00  0.00     0.000 A 
ATOM     24  C   UNL d   1     -42.838  12.276  21.976  0.00  0.00     0.002 A 
ENDBRANCH  17  18
ENDBRANCH  15  17
ENDBRANCH  13  14
ENDBRANCH  12  13
ENDBRANCH   2  12
BRANCH   1  25
ATOM     25  N   UNL d   1     -39.067  14.981  20.504  0.00  0.00    -0.119 NA
ATOM     26  C   UNL d   1     -38.578  14.491  20.937  0.00  0.00     0.296 C 
ATOM     27  O   UNL d   1     -38.310  13.777  20.622  0.00  0.00    -0.264 OA
BRANCH  26  28
ATOM     28  C   UNL d   1     -38.349  14.714  21.700  0.00  0.00     0.064 C 
BRANCH  28  29
ATOM     29  C   UNL d   1     -38.398  14.178  22.307  0.00  0.00     0.005 A 
ATOM     30  C   UNL d   1     -38.917  14.321  22.933  0.00  0.00     0.000 A 
ATOM     31  C   UNL d   1     -38.967  13.776  23.550  0.00  0.00     0.000 A 
ATOM     32  C   UNL d   1     -38.510  13.103  23.541  0.00  0.00     0.000 A 
ATOM     33  C   UNL d   1     -37.992  12.968  22.907  0.00  0.00     0.000 A 
ATOM     34  C   UNL d   1     -37.942  13.506  22.298  0.00  0.00     0.000 A 
ENDBRANCH  28  29
ENDBRANCH  26  28
ENDBRANCH   1  25
TORSDOF 8
ENDMDL
MODEL 6
REMARK VINA RESULT:      -2.3      2.889      5.351
REMARK  8 active torsions:
REMARK  status: ('A' for Active; 'I' for Inactive)
REMARK    1  A    between atoms: N_7  and  N_1 
REMARK    2  A    between atoms: S_9  and  C_2 
REMARK       I    between atoms: C_8  and  N_7 
REMARK    3  A    between atoms: C_19  and  C_8 
REMARK    4  A    between atoms: C_18  and  S_9 
REMARK    5  A    between atoms: C_10  and  C_18 
REMARK       I    between atoms: N_13  and  C_10 
REMARK    6  A    between atoms: C_12  and  C_14 
REMARK    7  A    between atoms: C_14  and  N_13 
REMARK    8  A    between atoms: C_22  and  C_19 
ROOT
ATOM      1  N   UNL d   1     -44.269  12.416  22.517  0.00  0.00    -0.168 N 
ATOM      2  C   UNL d   1     -45.060  12.345  22.673  0.00  0.00     0.199 A 
ATOM      3  C   UNL d   1     -43.753  11.793  22.692  0.00  0.00     0.283 A 
ATOM      4  N   UNL d   1     -45.370  11.642  23.013  0.00  0.00    -0.221 NA
ATOM      5  C   UNL d   1     -44.057  11.089  23.031  0.00  0.00     0.076 A 
ATOM      6  C   UNL d   1     -44.863  11.016  23.190  0.00  0.00     0.088 A 
ATOM      7  O   UNL d   1     -42.946  11.860  22.535  0.00  0.00    -0.265 OA
ATOM      8  C   UNL d   1     -43.535  10.468  23.204  0.00  0.00     0.006 A 
ATOM      9  C   UNL d   1     -45.151  10.325  23.522  0.00  0.00     0.019 A 
ATOM     10  C   UNL d   1     -43.839   9.775  23.539  0.00  0.00     0.000 A 
ATOM     11  C   UNL d   1     -44.645   9.703  23.698  0.00  0.00     0.002 A 
ENDROOT
BRANCH   2  12
ATOM     12  S   UNL d   1     -45.567  12.958  22.501  0.00  0.00    -0.043 SA
BRANCH  12  13
ATOM     13  C   UNL d   1     -46.298  13.009  22.880  0.00  0.00     0.101 C 
BRANCH  13  14
ATOM     14  C   UNL d   1     -46.806  13.626  22.707  0.00  0.00     0.286 C 
ATOM     15  N   UNL d   1     -47.591  13.474  22.521  0.00  0.00    -0.206 NA
ATOM     16  O   UNL d   1     -46.530  14.404  22.719  0.00  0.00    -0.265 OA
BRANCH  15  17
ATOM     17  C   UNL d   1     -48.099  14.091  22.347  0.00  0.00     0.103 C 
BRANCH  17  18
ATOM     18  C   UNL d   1     -48.871  13.935  22.115  0.00  0.00     0.030 A 
ATOM     19  C   UNL d   1     -49.454  14.515  22.190  0.00  0.00     0.059 A 
ATOM     20 CL   UNL d   1     -49.259  15.254  22.501  0.00  0.00    -0.082 Cl
ATOM     21  C   UNL d   1     -50.225  14.359  21.958  0.00  0.00     0.011 A 
ATOM     22  C   UNL d   1     -50.420  13.621  21.648  0.00  0.00     0.001 A 
ATOM     23  C   UNL d   1     -49.835  13.041  21.573  0.00  0.00     0.000 A 
ATOM     24  C   UNL d   1     -49.066  13.197  21.805  0.00  0.00     0.002 A 
ENDBRANCH  17  18
ENDBRANCH  15  17
ENDBRANCH  13  14
ENDBRANCH  12  13
ENDBRANCH   2  12
BRANCH   1  25
ATOM     25  N   UNL d   1     -43.972  13.101  22.187  0.00  0.00    -0.119 NA
ATOM     26  C   UNL d   1     -43.603  13.073  21.460  0.00  0.00     0.296 C 
ATOM     27  O   UNL d   1     -43.526  12.359  21.053  0.00  0.00    -0.264 OA
BRANCH  26  28
ATOM     28  C   UNL d   1     -43.303  13.769  21.127  0.00  0.00     0.064 C 
BRANCH  28  29
ATOM     29  C   UNL d   1     -42.516  13.816  20.937  0.00  0.00     0.005 A 
ATOM     30  C   UNL d   1     -42.042  14.378  21.312  0.00  0.00     0.000 A 
ATOM     31  C   UNL d   1     -41.241  14.426  21.118  0.00  0.00     0.000 A 
ATOM     32  C   UNL d   1     -40.923  13.924  20.562  0.00  0.00     0.000 A 
ATOM     33  C   UNL d   1     -41.408  13.363  20.190  0.00  0.00     0.000 A 
ATOM     34  C   UNL d   1     -42.198  13.316  20.382  0.00  0.00     0.000 A 
ENDBRANCH  28  29
ENDBRANCH  26  28
ENDBRANCH   1  25
TORSDOF 8
ENDMDL
