MODEL 1
REMARK VINA RESULT:      -4.4      0.000      0.000
REMARK  6 active torsions:
REMARK  status: ('A' for Active; 'I' for Inactive)
REMARK    1  A    between atoms: N_2  and  S_1 
REMARK    2  A    between atoms: C_6  and  S_1 
REMARK    3  A    between atoms: S_9  and  C_3 
REMARK    4  A    between atoms: N_4  and  C_10 
REMARK    5  A    between atoms: C_19  and  S_9 
REMARK    6  A    between atoms: C_21  and  C_19 
ROOT
ATOM      1  N   UNL d   1     -41.348-122.187 -51.445  0.00  0.00    -0.208 N 
ATOM      2  C   UNL d   1     -41.392-121.754 -52.153  0.00  0.00     0.189 A 
ATOM      3  N   UNL d   1     -41.252-120.956 -51.978  0.00  0.00    -0.219 NA
ATOM      4  C   UNL d   1     -41.180-121.651 -50.829  0.00  0.00     0.114 A 
ATOM      5  C   UNL d   1     -41.123-120.898 -51.161  0.00  0.00     0.121 A 
ENDROOT
BRANCH   1   6
ATOM      6  S   UNL d   1     -41.453-123.006 -51.369  0.00  0.00     0.273 S 
ATOM      7  O   UNL d   1     -41.178-123.075 -52.137  0.00  0.00    -0.200 OA
ATOM      8  O   UNL d   1     -41.470-123.817 -51.532  0.00  0.00    -0.200 OA
BRANCH   6   9
ATOM      9  C   UNL d   1     -41.732-122.955 -50.593  0.00  0.00     0.104 A 
ATOM     10  C   UNL d   1     -41.237-123.164 -49.972  0.00  0.00     0.015 A 
ATOM     11  C   UNL d   1     -41.514-123.115 -49.193  0.00  0.00     0.024 A 
ATOM     12  C   UNL d   1     -42.286-122.856 -49.057  0.00  0.00     0.127 A 
ATOM     13  C   UNL d   1     -42.776-122.649 -49.684  0.00  0.00     0.024 A 
ATOM     14  C   UNL d   1     -42.502-122.697 -50.459  0.00  0.00     0.015 A 
BRANCH  12  15
ATOM     15  N   UNL d   1     -42.566-122.806 -48.270  0.00  0.00    -0.114 N 
ATOM     16  O   UNL d   1     -42.051-122.969 -47.642  0.00  0.00    -0.532 OA
ATOM     17  O   UNL d   1     -43.348-122.597 -48.124  0.00  0.00    -0.532 OA
ENDBRANCH  12  15
ENDBRANCH   6   9
ENDBRANCH   1   6
BRANCH   2  18
ATOM     18  S   UNL d   1     -41.549-122.069 -52.908  0.00  0.00    -0.049 SA
BRANCH  18  19
ATOM     19  C   UNL d   1     -41.470-121.591 -53.577  0.00  0.00     0.038 C 
BRANCH  19  20
ATOM     20  C   UNL d   1     -41.844-121.805 -54.279  0.00  0.00     0.007 A 
ATOM     21  C   UNL d   1     -42.632-121.609 -54.411  0.00  0.00     0.003 A 
ATOM     22  C   UNL d   1     -42.997-121.832 -55.126  0.00  0.00     0.030 A 
ATOM     23  C   UNL d   1     -42.569-122.248 -55.697  0.00  0.00     0.140 A 
ATOM     24  C   UNL d   1     -41.783-122.445 -55.569  0.00  0.00     0.030 A 
ATOM     25  F   UNL d   1     -42.936-122.466 -56.403  0.00  0.00    -0.204 F 
ATOM     26  C   UNL d   1     -41.419-122.228 -54.867  0.00  0.00     0.003 A 
ENDBRANCH  19  20
ENDBRANCH  18  19
ENDBRANCH   2  18
TORSDOF 6
ENDMDL
MODEL 2
REMARK VINA RESULT:      -3.9      2.351      5.042
REMARK  6 active torsions:
REMARK  status: ('A' for Active; 'I' for Inactive)
REMARK    1  A    between atoms: N_2  and  S_1 
REMARK    2  A    between atoms: C_6  and  S_1 
REMARK    3  A    between atoms: S_9  and  C_3 
REMARK    4  A    between atoms: N_4  and  C_10 
REMARK    5  A    between atoms: C_19  and  S_9 
REMARK    6  A    between atoms: C_21  and  C_19 
ROOT
ATOM      1  N   UNL d   1     -41.326-122.163 -52.549  0.00  0.00    -0.208 N 
ATOM      2  C   UNL d   1     -41.343-121.936 -51.749  0.00  0.00     0.189 A 
ATOM      3  N   UNL d   1     -41.217-121.119 -51.709  0.00  0.00    -0.219 NA
ATOM      4  C   UNL d   1     -41.189-121.479 -53.004  0.00  0.00     0.114 A 
ATOM      5  C   UNL d   1     -41.123-120.841 -52.485  0.00  0.00     0.121 A 
ENDROOT
BRANCH   1   6
ATOM      6  S   UNL d   1     -41.428-122.934 -52.838  0.00  0.00     0.273 S 
ATOM      7  O   UNL d   1     -41.183-123.202 -52.104  0.00  0.00    -0.200 OA
ATOM      8  O   UNL d   1     -41.451-123.760 -52.891  0.00  0.00    -0.200 OA
BRANCH   6   9
ATOM      9  C   UNL d   1     -41.677-122.682 -53.584  0.00  0.00     0.104 A 
ATOM     10  C   UNL d   1     -42.448-122.416 -53.684  0.00  0.00     0.015 A 
ATOM     11  C   UNL d   1     -42.701-122.163 -54.430  0.00  0.00     0.024 A 
ATOM     12  C   UNL d   1     -42.171-122.183 -55.062  0.00  0.00     0.127 A 
ATOM     13  C   UNL d   1     -41.400-122.451 -54.955  0.00  0.00     0.024 A 
ATOM     14  C   UNL d   1     -41.147-122.703 -54.213  0.00  0.00     0.015 A 
BRANCH  12  15
ATOM     15  N   UNL d   1     -42.425-121.928 -55.817  0.00  0.00    -0.114 N 
ATOM     16  O   UNL d   1     -43.221-122.014 -56.030  0.00  0.00    -0.532 OA
ATOM     17  O   UNL d   1     -41.888-121.594 -56.343  0.00  0.00    -0.532 OA
ENDBRANCH  12  15
ENDBRANCH   6   9
ENDBRANCH   1   6
BRANCH   2  18
ATOM     18  S   UNL d   1     -41.466-122.446 -51.101  0.00  0.00    -0.049 SA
BRANCH  18  19
ATOM     19  C   UNL d   1     -41.482-122.137 -50.335  0.00  0.00     0.038 C 
BRANCH  19  20
ATOM     20  C   UNL d   1     -41.855-122.558 -49.733  0.00  0.00     0.007 A 
ATOM     21  C   UNL d   1     -41.418-122.884 -49.117  0.00  0.00     0.003 A 
ATOM     22  C   UNL d   1     -41.810-123.307 -48.515  0.00  0.00     0.030 A 
ATOM     23  C   UNL d   1     -42.631-123.398 -48.538  0.00  0.00     0.140 A 
ATOM     24  C   UNL d   1     -43.069-123.074 -49.152  0.00  0.00     0.030 A 
ATOM     25  F   UNL d   1     -43.013-123.817 -47.940  0.00  0.00    -0.204 F 
ATOM     26  C   UNL d   1     -42.690-122.656 -49.746  0.00  0.00     0.003 A 
ENDBRANCH  19  20
ENDBRANCH  18  19
ENDBRANCH   2  18
TORSDOF 6
ENDMDL
