MODEL 1
REMARK VINA RESULT:      57.3      0.000      0.000
REMARK  6 active torsions:
REMARK  status: ('A' for Active; 'I' for Inactive)
REMARK    1  A    between atoms: C_12  and  C_4 
REMARK    2  A    between atoms: N_16  and  C_5 
REMARK    3  A    between atoms: N_11  and  C_24 
REMARK    4  A    between atoms: C_27  and  N_16 
REMARK    5  A    between atoms: C_24  and  C_25 
REMARK    6  A    between atoms: C_25  and  C_27 
ROOT
ATOM      1  N   UNL d   1     -54.716-101.263 -40.404  0.00  0.00    -0.195 N 
ATOM      2  C   UNL d   1     -54.716-100.865 -39.678  0.00  0.00     0.167 A 
ATOM      3  N   UNL d   1     -54.717-102.064 -40.245  0.00  0.00    -0.163 NA
ATOM      4  C   UNL d   1     -54.717-101.430 -39.088  0.00  0.00     0.055 A 
ATOM      5  C   UNL d   1     -54.716-100.835 -41.103  0.00  0.00     0.167 A 
ATOM      6  C   UNL d   1     -54.718-102.157 -39.429  0.00  0.00     0.104 A 
ATOM      7  N   UNL d   1     -54.715-100.046 -39.663  0.00  0.00    -0.227 NA
ATOM      8  C   UNL d   1     -54.715-100.004 -41.084  0.00  0.00     0.058 A 
ATOM      9  C   UNL d   1     -54.714 -99.614 -40.374  0.00  0.00     0.086 A 
ATOM     10  C   UNL d   1     -54.719-102.877 -39.019  0.00  0.00     0.023 C 
ATOM     11  C   UNL d   1     -54.713 -98.774 -40.360  0.00  0.00     0.021 C 
ENDROOT
BRANCH   5  12
ATOM     12  N   UNL d   1     -54.716-101.233 -41.829  0.00  0.00    -0.225 NA
BRANCH  12  13
ATOM     13  C   UNL d   1     -54.972-100.846 -42.505  0.00  0.00     0.102 C 
BRANCH  13  14
ATOM     14  C   UNL d   1     -55.019-101.259 -43.221  0.00  0.00     0.040 C 
BRANCH  14  15
ATOM     15  C   UNL d   1     -54.742-100.916 -43.917  0.00  0.00     0.083 C 
BRANCH  15  16
ATOM     16  N   UNL d   1     -55.108-100.246 -44.225  0.00  0.00    -0.285 N 
ATOM     17  C   UNL d   1     -54.812 -99.552 -44.563  0.00  0.00     0.183 A 
ATOM     18  N   UNL d   1     -55.443 -99.079 -44.769  0.00  0.00    -0.222 NA
ATOM     19  C   UNL d   1     -56.132 -99.462 -44.567  0.00  0.00     0.120 A 
ATOM     20  C   UNL d   1     -55.928-100.189 -44.228  0.00  0.00     0.102 A 
ENDBRANCH  15  16
ENDBRANCH  14  15
ENDBRANCH  13  14
ENDBRANCH  12  13
ENDBRANCH   5  12
BRANCH   4  21
ATOM     21  C   UNL d   1     -54.717-101.358 -38.260  0.00  0.00     0.004 A 
ATOM     22  C   UNL d   1     -54.716-102.031 -37.784  0.00  0.00     0.001 A 
ATOM     23  C   UNL d   1     -54.716-101.963 -36.963  0.00  0.00     0.011 A 
ATOM     24  C   UNL d   1     -54.718-101.213 -36.620  0.00  0.00     0.058 A 
ATOM     25  C   UNL d   1     -54.719-100.537 -37.098  0.00  0.00     0.011 A 
ATOM     26 CL   UNL d   1     -54.718-101.148 -35.783  0.00  0.00    -0.082 Cl
ATOM     27  C   UNL d   1     -54.719-100.608 -37.916  0.00  0.00     0.001 A 
ENDBRANCH   4  21
TORSDOF 6
ENDMDL
