MODEL 1
REMARK VINA RESULT:      44.9      0.000      0.000
REMARK  5 active torsions:
REMARK  status: ('A' for Active; 'I' for Inactive)
REMARK    1  A    between atoms: N_12  and  C_4 
REMARK    2  A    between atoms: C_19  and  N_5 
REMARK    3  A    between atoms: C_11  and  S_18 
REMARK    4  A    between atoms: S_18  and  C_21 
REMARK    5  A    between atoms: C_21  and  C_19 
ROOT
ATOM      1  C   UNL d   1      46.318 -18.941  43.013  0.00  0.00     0.191 A 
ATOM      2  C   UNL d   1      46.304 -18.158  43.269  0.00  0.00     0.174 A 
ATOM      3  N   UNL d   1      46.225 -18.941  42.196  0.00  0.00    -0.042 NA
ATOM      4  C   UNL d   1      46.153 -18.168  41.947  0.00  0.00     0.722 A 
ATOM      5  N   UNL d   1      46.201 -17.674  42.610  0.00  0.00    -0.132 N 
ATOM      6  N   UNL d   1      46.415 -19.552  43.560  0.00  0.00    -0.239 N 
ATOM      7  C   UNL d   1      46.497 -19.379  44.363  0.00  0.00     0.358 A 
ATOM      8  N   UNL d   1      46.483 -18.596  44.619  0.00  0.00    -0.152 NA
ATOM      9  C   UNL d   1      46.386 -17.985  44.072  0.00  0.00     0.303 A 
ATOM     10  O   UNL d   1      46.594 -19.994  44.907  0.00  0.00    -0.244 OA
ATOM     11  O   UNL d   1      46.372 -17.201  44.328  0.00  0.00    -0.263 OA
ATOM     12  C   UNL d   1      46.429 -20.327  43.307  0.00  0.00     0.105 C 
ENDROOT
BRANCH   5  13
ATOM     13  C   UNL d   1      46.155 -16.847  42.613  0.00  0.00     0.105 C 
BRANCH  13  14
ATOM     14  C   UNL d   1      46.253 -16.428  43.322  0.00  0.00     0.058 C 
BRANCH  14  15
ATOM     15  S   UNL d   1      45.595 -16.051  43.674  0.00  0.00    -0.041 SA
BRANCH  15  16
ATOM     16  C   UNL d   1      45.643 -15.245  43.856  0.00  0.00     0.215 A 
ATOM     17  N   UNL d   1      45.152 -14.913  44.419  0.00  0.00    -0.214 NA
ATOM     18  C   UNL d   1      45.327 -14.122  44.475  0.00  0.00     0.107 A 
ATOM     19  C   UNL d   1      45.002 -13.527  44.954  0.00  0.00     0.021 A 
ATOM     20  C   UNL d   1      45.921 -13.945  43.956  0.00  0.00     0.120 A 
ATOM     21  C   UNL d   1      45.289 -12.752  44.897  0.00  0.00     0.002 A 
ATOM     22  C   UNL d   1      45.884 -12.578  44.377  0.00  0.00     0.002 A 
ATOM     23  C   UNL d   1      46.202 -13.177  43.904  0.00  0.00     0.026 A 
ATOM     24  O   UNL d   1      46.125 -14.652  43.562  0.00  0.00    -0.283 OA
ENDBRANCH  15  16
ENDBRANCH  14  15
ENDBRANCH  13  14
ENDBRANCH   5  13
BRANCH   4  25
ATOM     25  N   UNL d   1      46.049 -17.884  41.180  0.00  0.00    -0.139 N 
ATOM     26  C   UNL d   1      46.646 -17.428  40.822  0.00  0.00     0.098 A 
ATOM     27  C   UNL d   1      46.541 -17.145  40.054  0.00  0.00     0.020 A 
ATOM     28  C   UNL d   1      45.852 -17.311  39.643  0.00  0.00     0.003 A 
ATOM     29  C   UNL d   1      45.262 -17.763  40.000  0.00  0.00     0.020 A 
ATOM     30  C   UNL d   1      45.359 -18.051  40.769  0.00  0.00     0.098 A 
ENDBRANCH   4  25
TORSDOF 5
ENDMDL
