MODEL 1
REMARK VINA RESULT:      -6.2      0.000      0.000
REMARK  0 active torsions:
REMARK  status: ('A' for Active; 'I' for Inactive)
ROOT
ATOM      1  N   UNL d   1      53.931  34.447  55.013  0.00  0.00    -0.169 NA
ATOM      2  C   UNL d   1      54.124  33.664  54.848  0.00  0.00     0.199 A 
ATOM      3  C   UNL d   1      53.675  33.207  54.328  0.00  0.00     0.130 A 
ATOM      4  N   UNL d   1      52.810  34.319  54.116  0.00  0.00    -0.151 NA
ATOM      5  C   UNL d   1      53.022  33.537  53.967  0.00  0.00     0.292 A 
ATOM      6  C   UNL d   1      53.259  34.776  54.636  0.00  0.00     0.373 A 
ATOM      7  O   UNL d   1      52.567  33.081  53.443  0.00  0.00    -0.264 OA
ATOM      8  O   UNL d   1      53.054  35.564  54.794  0.00  0.00    -0.242 OA
ATOM      9  N   UNL d   1      54.791  33.329  55.219  0.00  0.00    -0.126 N 
ATOM     10 BR   UNL d   1      53.884  32.422  54.176  0.00  0.00    -0.041 Br
ENDROOT
TORSDOF 0
ENDMDL
MODEL 2
REMARK VINA RESULT:      -6.2      1.242      1.762
REMARK  0 active torsions:
REMARK  status: ('A' for Active; 'I' for Inactive)
ROOT
ATOM      1  N   UNL d   1      54.117  34.355  54.883  0.00  0.00    -0.169 NA
ATOM      2  C   UNL d   1      53.468  34.183  54.408  0.00  0.00     0.199 A 
ATOM      3  C   UNL d   1      53.349  33.431  54.091  0.00  0.00     0.130 A 
ATOM      4  N   UNL d   1      54.545  32.987  54.727  0.00  0.00    -0.151 NA
ATOM      5  C   UNL d   1      53.887  32.839  54.253  0.00  0.00     0.292 A 
ATOM      6  C   UNL d   1      54.664  33.740  55.043  0.00  0.00     0.373 A 
ATOM      7  O   UNL d   1      53.771  32.081  53.937  0.00  0.00    -0.264 OA
ATOM      8  O   UNL d   1      55.322  33.901  55.521  0.00  0.00    -0.242 OA
ATOM      9  N   UNL d   1      52.920  34.790  54.245  0.00  0.00    -0.126 N 
ATOM     10 BR   UNL d   1      52.691  33.278  53.616  0.00  0.00    -0.041 Br
ENDROOT
TORSDOF 0
ENDMDL
MODEL 3
REMARK VINA RESULT:      -6.1      1.944      2.748
REMARK  0 active torsions:
REMARK  status: ('A' for Active; 'I' for Inactive)
ROOT
ATOM      1  N   UNL d   1      53.564  31.431  53.697  0.00  0.00    -0.169 NA
ATOM      2  C   UNL d   1      53.602  32.221  53.924  0.00  0.00     0.199 A 
ATOM      3  C   UNL d   1      53.139  32.799  53.561  0.00  0.00     0.130 A 
ATOM      4  N   UNL d   1      52.574  31.800  52.716  0.00  0.00    -0.151 NA
ATOM      5  C   UNL d   1      52.629  32.584  52.960  0.00  0.00     0.292 A 
ATOM      6  C   UNL d   1      53.037  31.222  53.079  0.00  0.00     0.373 A 
ATOM      7  O   UNL d   1      52.162  33.163  52.592  0.00  0.00    -0.264 OA
ATOM      8  O   UNL d   1      52.991  30.429  52.842  0.00  0.00    -0.242 OA
ATOM      9  N   UNL d   1      54.123  32.437  54.538  0.00  0.00    -0.126 N 
ATOM     10 BR   UNL d   1      53.190  33.587  53.802  0.00  0.00    -0.041 Br
ENDROOT
TORSDOF 0
ENDMDL
MODEL 4
REMARK VINA RESULT:      -3.9     10.812     11.137
REMARK  0 active torsions:
REMARK  status: ('A' for Active; 'I' for Inactive)
ROOT
ATOM      1  N   UNL d   1      44.784  28.534  59.189  0.00  0.00    -0.169 NA
ATOM      2  C   UNL d   1      44.733  27.713  59.219  0.00  0.00     0.199 A 
ATOM      3  C   UNL d   1      45.085  27.235  58.645  0.00  0.00     0.130 A 
ATOM      4  N   UNL d   1      45.559  28.403  57.980  0.00  0.00    -0.151 NA
ATOM      5  C   UNL d   1      45.494  27.584  58.030  0.00  0.00     0.292 A 
ATOM      6  C   UNL d   1      45.207  28.881  58.553  0.00  0.00     0.373 A 
ATOM      7  O   UNL d   1      45.849  27.106  57.452  0.00  0.00    -0.264 OA
ATOM      8  O   UNL d   1      45.266  29.707  58.512  0.00  0.00    -0.242 OA
ATOM      9  N   UNL d   1      44.314  27.361  59.848  0.00  0.00    -0.126 N 
ATOM     10 BR   UNL d   1      45.022  26.413  58.692  0.00  0.00    -0.041 Br
ENDROOT
TORSDOF 0
ENDMDL
MODEL 5
REMARK VINA RESULT:      -3.9     10.994     11.438
REMARK  0 active torsions:
REMARK  status: ('A' for Active; 'I' for Inactive)
ROOT
ATOM      1  N   UNL d   1      45.422  27.941  57.686  0.00  0.00    -0.169 NA
ATOM      2  C   UNL d   1      45.113  28.090  58.434  0.00  0.00     0.199 A 
ATOM      3  C   UNL d   1      44.904  27.478  58.947  0.00  0.00     0.130 A 
ATOM      4  N   UNL d   1      45.311  26.531  57.963  0.00  0.00    -0.151 NA
ATOM      5  C   UNL d   1      45.004  26.704  58.707  0.00  0.00     0.292 A 
ATOM      6  C   UNL d   1      45.521  27.143  57.451  0.00  0.00     0.373 A 
ATOM      7  O   UNL d   1      44.794  26.086  59.220  0.00  0.00    -0.264 OA
ATOM      8  O   UNL d   1      45.831  26.980  56.699  0.00  0.00    -0.242 OA
ATOM      9  N   UNL d   1      45.012  28.882  58.675  0.00  0.00    -0.126 N 
ATOM     10 BR   UNL d   1      44.595  27.648  59.694  0.00  0.00    -0.041 Br
ENDROOT
TORSDOF 0
ENDMDL
MODEL 6
REMARK VINA RESULT:      -3.9     10.273     10.516
REMARK  0 active torsions:
REMARK  status: ('A' for Active; 'I' for Inactive)
ROOT
ATOM      1  N   UNL d   1      45.165  28.212  57.016  0.00  0.00    -0.169 NA
ATOM      2  C   UNL d   1      44.895  28.987  56.947  0.00  0.00     0.199 A 
ATOM      3  C   UNL d   1      44.905  29.508  57.586  0.00  0.00     0.130 A 
ATOM      4  N   UNL d   1      45.465  28.481  58.400  0.00  0.00    -0.151 NA
ATOM      5  C   UNL d   1      45.189  29.252  58.307  0.00  0.00     0.292 A 
ATOM      6  C   UNL d   1      45.455  27.960  57.761  0.00  0.00     0.373 A 
ATOM      7  O   UNL d   1      45.200  29.773  58.953  0.00  0.00    -0.264 OA
ATOM      8  O   UNL d   1      45.730  27.182  57.843  0.00  0.00    -0.242 OA
ATOM      9  N   UNL d   1      44.605  29.245  56.209  0.00  0.00    -0.126 N 
ATOM     10 BR   UNL d   1      44.629  30.282  57.497  0.00  0.00    -0.041 Br
ENDROOT
TORSDOF 0
ENDMDL
MODEL 7
REMARK VINA RESULT:      -3.8      6.982      7.616
REMARK  0 active torsions:
REMARK  status: ('A' for Active; 'I' for Inactive)
ROOT
ATOM      1  N   UNL d   1      46.760  36.709  52.913  0.00  0.00    -0.169 NA
ATOM      2  C   UNL d   1      46.162  36.431  52.420  0.00  0.00     0.199 A 
ATOM      3  C   UNL d   1      46.315  35.897  51.810  0.00  0.00     0.130 A 
ATOM      4  N   UNL d   1      47.694  35.902  52.169  0.00  0.00    -0.151 NA
ATOM      5  C   UNL d   1      47.080  35.637  51.689  0.00  0.00     0.292 A 
ATOM      6  C   UNL d   1      47.541  36.435  52.779  0.00  0.00     0.373 A 
ATOM      7  O   UNL d   1      47.238  35.101  51.076  0.00  0.00    -0.264 OA
ATOM      8  O   UNL d   1      48.152  36.709  53.268  0.00  0.00    -0.242 OA
ATOM      9  N   UNL d   1      45.382  36.699  52.547  0.00  0.00    -0.126 N 
ATOM     10 BR   UNL d   1      45.701  35.629  51.326  0.00  0.00    -0.041 Br
ENDROOT
TORSDOF 0
ENDMDL
MODEL 8
REMARK VINA RESULT:      -3.8      9.946     10.156
REMARK  0 active torsions:
REMARK  status: ('A' for Active; 'I' for Inactive)
ROOT
ATOM      1  N   UNL d   1      45.245  29.405  58.796  0.00  0.00    -0.169 NA
ATOM      2  C   UNL d   1      45.140  28.984  58.096  0.00  0.00     0.199 A 
ATOM      3  C   UNL d   1      44.914  29.357  57.395  0.00  0.00     0.130 A 
ATOM      4  N   UNL d   1      44.892  30.606  58.081  0.00  0.00    -0.151 NA
ATOM      5  C   UNL d   1      44.792  30.164  57.393  0.00  0.00     0.292 A 
ATOM      6  C   UNL d   1      45.117  30.233  58.782  0.00  0.00     0.373 A 
ATOM      7  O   UNL d   1      44.565  30.543  56.690  0.00  0.00    -0.264 OA
ATOM      8  O   UNL d   1      45.220  30.668  59.481  0.00  0.00    -0.242 OA
ATOM      9  N   UNL d   1      45.265  28.160  58.102  0.00  0.00    -0.126 N 
ATOM     10 BR   UNL d   1      44.813  28.918  56.703  0.00  0.00    -0.041 Br
ENDROOT
TORSDOF 0
ENDMDL
MODEL 9
REMARK VINA RESULT:      -3.8      9.861     10.104
REMARK  0 active torsions:
REMARK  status: ('A' for Active; 'I' for Inactive)
ROOT
ATOM      1  N   UNL d   1      44.833  29.288  56.175  0.00  0.00    -0.169 NA
ATOM      2  C   UNL d   1      44.958  28.987  56.931  0.00  0.00     0.199 A 
ATOM      3  C   UNL d   1      44.906  29.464  57.602  0.00  0.00     0.130 A 
ATOM      4  N   UNL d   1      44.594  30.579  56.770  0.00  0.00    -0.151 NA
ATOM      5  C   UNL d   1      44.724  30.256  57.517  0.00  0.00     0.292 A 
ATOM      6  C   UNL d   1      44.647  30.102  56.099  0.00  0.00     0.373 A 
ATOM      7  O   UNL d   1      44.670  30.739  58.190  0.00  0.00    -0.264 OA
ATOM      8  O   UNL d   1      44.518  30.416  55.343  0.00  0.00    -0.242 OA
ATOM      9  N   UNL d   1      45.144  28.178  57.014  0.00  0.00    -0.126 N 
ATOM     10 BR   UNL d   1      45.035  29.144  58.352  0.00  0.00    -0.041 Br
ENDROOT
TORSDOF 0
ENDMDL
