MODEL 1
REMARK VINA RESULT:     -10.5      0.000      0.000
REMARK  4 active torsions:
REMARK  status: ('A' for Active; 'I' for Inactive)
REMARK    1  A    between atoms: C_2  and  S_1 
REMARK    2  A    between atoms: N_3  and  S_1 
REMARK    3  A    between atoms: C_4  and  C_6 
REMARK       I    between atoms: N_7  and  C_4 
REMARK    4  A    between atoms: C_14  and  N_7 
ROOT
ATOM      1  C   UNL d   1      52.604  33.088  53.220  0.00  0.00     0.104 A 
ATOM      2  C   UNL d   1      51.906  33.319  52.845  0.00  0.00     0.018 A 
ATOM      3  C   UNL d   1      51.728  34.124  52.764  0.00  0.00     0.059 A 
ATOM      4  C   UNL d   1      53.118  33.654  53.510  0.00  0.00     0.012 A 
ATOM      5  C   UNL d   1      52.248  34.695  53.058  0.00  0.00     0.005 A 
ATOM      6  C   UNL d   1      52.940  34.460  53.429  0.00  0.00     0.001 A 
ATOM      7  C   UNL d   1      53.817  33.424  53.886  0.00  0.00     0.001 C 
ENDROOT
BRANCH   3   8
ATOM      8  C   UNL d   1      51.028  34.361  52.388  0.00  0.00     0.279 C 
ATOM      9  N   UNL d   1      50.327  34.416  52.815  0.00  0.00    -0.208 NA
ATOM     10  O   UNL d   1      51.033  34.544  51.583  0.00  0.00    -0.265 OA
BRANCH   9  11
ATOM     11  C   UNL d   1      49.632  34.651  52.443  0.00  0.00     0.087 A 
ATOM     12  C   UNL d   1      49.157  35.216  52.794  0.00  0.00     0.045 A 
ATOM     13  C   UNL d   1      48.464  35.454  52.429  0.00  0.00     0.121 A 
ATOM     14  O   UNL d   1      47.877  36.004  52.640  0.00  0.00    -0.299 OA
ATOM     15  C   UNL d   1      48.243  35.122  51.701  0.00  0.00     0.119 A 
ATOM     16  C   UNL d   1      47.298  36.014  52.051  0.00  0.00     0.304 A 
ATOM     17  O   UNL d   1      47.524  35.463  51.463  0.00  0.00    -0.300 OA
ATOM     18  C   UNL d   1      48.727  34.550  51.348  0.00  0.00     0.028 A 
ATOM     19  C   UNL d   1      49.420  34.314  51.718  0.00  0.00     0.021 A 
ENDBRANCH   9  11
ENDBRANCH   3   8
BRANCH   1  20
ATOM     20  S   UNL d   1      52.781  32.291  53.300  0.00  0.00     0.271 S 
ATOM     21  O   UNL d   1      52.606  32.335  54.118  0.00  0.00    -0.200 OA
ATOM     22  O   UNL d   1      52.979  32.242  52.377  0.00  0.00    -0.200 OA
BRANCH  20  23
ATOM     23  N   UNL d   1      52.971  31.483  53.329  0.00  0.00    -0.229 N 
ATOM     24  C   UNL d   1      52.494  30.934  52.938  0.00  0.00     0.092 A 
ATOM     25  C   UNL d   1      52.676  30.137  52.963  0.00  0.00     0.020 A 
ATOM     26  C   UNL d   1      53.336  29.875  53.377  0.00  0.00     0.003 A 
ATOM     27  C   UNL d   1      53.813  30.424  53.769  0.00  0.00     0.020 A 
ATOM     28  C   UNL d   1      53.632  31.227  53.746  0.00  0.00     0.092 A 
ENDBRANCH  20  23
ENDBRANCH   1  20
TORSDOF 4
ENDMDL
MODEL 2
REMARK VINA RESULT:      -9.6      1.165      2.168
REMARK  4 active torsions:
REMARK  status: ('A' for Active; 'I' for Inactive)
REMARK    1  A    between atoms: C_2  and  S_1 
REMARK    2  A    between atoms: N_3  and  S_1 
REMARK    3  A    between atoms: C_4  and  C_6 
REMARK       I    between atoms: N_7  and  C_4 
REMARK    4  A    between atoms: C_14  and  N_7 
ROOT
ATOM      1  C   UNL d   1      52.928  32.984  53.483  0.00  0.00     0.104 A 
ATOM      2  C   UNL d   1      52.360  33.551  53.293  0.00  0.00     0.018 A 
ATOM      3  C   UNL d   1      51.693  33.335  52.849  0.00  0.00     0.059 A 
ATOM      4  C   UNL d   1      52.833  32.210  53.235  0.00  0.00     0.012 A 
ATOM      5  C   UNL d   1      51.599  32.553  52.599  0.00  0.00     0.005 A 
ATOM      6  C   UNL d   1      52.167  31.994  52.791  0.00  0.00     0.001 A 
ATOM      7  C   UNL d   1      53.401  31.643  53.425  0.00  0.00     0.001 C 
ENDROOT
BRANCH   3   8
ATOM      8  C   UNL d   1      51.119  33.901  52.655  0.00  0.00     0.279 C 
ATOM      9  N   UNL d   1      50.342  33.805  52.907  0.00  0.00    -0.208 NA
ATOM     10  O   UNL d   1      51.327  34.562  52.208  0.00  0.00    -0.265 OA
BRANCH   9  11
ATOM     11  C   UNL d   1      49.772  34.366  52.715  0.00  0.00     0.087 A 
ATOM     12  C   UNL d   1      49.521  34.898  53.282  0.00  0.00     0.045 A 
ATOM     13  C   UNL d   1      48.955  35.459  53.097  0.00  0.00     0.121 A 
ATOM     14  O   UNL d   1      48.594  36.062  53.541  0.00  0.00    -0.299 OA
ATOM     15  C   UNL d   1      48.633  35.487  52.333  0.00  0.00     0.119 A 
ATOM     16  C   UNL d   1      48.054  36.461  53.060  0.00  0.00     0.304 A 
ATOM     17  O   UNL d   1      48.076  36.103  52.303  0.00  0.00    -0.300 OA
ATOM     18  C   UNL d   1      48.889  34.945  51.760  0.00  0.00     0.028 A 
ATOM     19  C   UNL d   1      49.457  34.386  51.950  0.00  0.00     0.021 A 
ENDBRANCH   9  11
ENDBRANCH   3   8
BRANCH   1  20
ATOM     20  S   UNL d   1      53.587  33.197  53.922  0.00  0.00     0.271 S 
ATOM     21  O   UNL d   1      54.052  33.191  53.226  0.00  0.00    -0.200 OA
ATOM     22  O   UNL d   1      53.062  33.203  54.709  0.00  0.00    -0.200 OA
BRANCH  20  23
ATOM     23  N   UNL d   1      54.224  33.413  54.410  0.00  0.00    -0.229 N 
ATOM     24  C   UNL d   1      54.945  33.632  54.074  0.00  0.00     0.092 A 
ATOM     25  C   UNL d   1      55.575  33.845  54.550  0.00  0.00     0.020 A 
ATOM     26  C   UNL d   1      55.496  33.845  55.368  0.00  0.00     0.003 A 
ATOM     27  C   UNL d   1      54.774  33.627  55.705  0.00  0.00     0.020 A 
ATOM     28  C   UNL d   1      54.138  33.411  55.229  0.00  0.00     0.092 A 
ENDBRANCH  20  23
ENDBRANCH   1  20
TORSDOF 4
ENDMDL
MODEL 3
REMARK VINA RESULT:      -9.1      1.499      5.386
REMARK  4 active torsions:
REMARK  status: ('A' for Active; 'I' for Inactive)
REMARK    1  A    between atoms: C_2  and  S_1 
REMARK    2  A    between atoms: N_3  and  S_1 
REMARK    3  A    between atoms: C_4  and  C_6 
REMARK       I    between atoms: N_7  and  C_4 
REMARK    4  A    between atoms: C_14  and  N_7 
ROOT
ATOM      1  C   UNL d   1      52.224  33.864  53.123  0.00  0.00     0.104 A 
ATOM      2  C   UNL d   1      52.412  33.064  53.207  0.00  0.00     0.018 A 
ATOM      3  C   UNL d   1      53.143  32.844  53.529  0.00  0.00     0.059 A 
ATOM      4  C   UNL d   1      52.759  34.436  53.357  0.00  0.00     0.012 A 
ATOM      5  C   UNL d   1      53.683  33.424  53.766  0.00  0.00     0.005 A 
ATOM      6  C   UNL d   1      53.490  34.216  53.680  0.00  0.00     0.001 A 
ATOM      7  C   UNL d   1      52.571  35.236  53.273  0.00  0.00     0.001 C 
ENDROOT
BRANCH   3   8
ATOM      8  C   UNL d   1      53.337  32.043  53.616  0.00  0.00     0.279 C 
ATOM      9  N   UNL d   1      52.744  31.472  53.622  0.00  0.00    -0.208 NA
ATOM     10  O   UNL d   1      54.126  31.816  53.698  0.00  0.00    -0.265 OA
BRANCH   9  11
ATOM     11  C   UNL d   1      52.936  30.676  53.708  0.00  0.00     0.087 A 
ATOM     12  C   UNL d   1      52.980  30.350  54.456  0.00  0.00     0.045 A 
ATOM     13  C   UNL d   1      53.170  29.560  54.549  0.00  0.00     0.121 A 
ATOM     14  O   UNL d   1      53.256  29.076  55.219  0.00  0.00    -0.299 OA
ATOM     15  C   UNL d   1      53.319  29.087  53.883  0.00  0.00     0.119 A 
ATOM     16  C   UNL d   1      53.456  28.313  54.975  0.00  0.00     0.304 A 
ATOM     17  O   UNL d   1      53.496  28.317  54.138  0.00  0.00    -0.300 OA
ATOM     18  C   UNL d   1      53.274  29.422  53.125  0.00  0.00     0.028 A 
ATOM     19  C   UNL d   1      53.083  30.214  53.038  0.00  0.00     0.021 A 
ENDBRANCH   9  11
ENDBRANCH   3   8
BRANCH   1  20
ATOM     20  S   UNL d   1      51.501  34.082  52.803  0.00  0.00     0.271 S 
ATOM     21  O   UNL d   1      51.872  34.239  52.070  0.00  0.00    -0.200 OA
ATOM     22  O   UNL d   1      51.081  33.904  53.633  0.00  0.00    -0.200 OA
BRANCH  20  23
ATOM     23  N   UNL d   1      50.746  34.292  52.528  0.00  0.00    -0.229 N 
ATOM     24  C   UNL d   1      50.553  34.183  51.733  0.00  0.00     0.092 A 
ATOM     25  C   UNL d   1      49.811  34.388  51.456  0.00  0.00     0.020 A 
ATOM     26  C   UNL d   1      49.250  34.705  51.968  0.00  0.00     0.003 A 
ATOM     27  C   UNL d   1      49.443  34.814  52.763  0.00  0.00     0.020 A 
ATOM     28  C   UNL d   1      50.189  34.609  53.045  0.00  0.00     0.092 A 
ENDBRANCH  20  23
ENDBRANCH   1  20
TORSDOF 4
ENDMDL
MODEL 4
REMARK VINA RESULT:      -8.4      1.758      2.615
REMARK  4 active torsions:
REMARK  status: ('A' for Active; 'I' for Inactive)
REMARK    1  A    between atoms: C_2  and  S_1 
REMARK    2  A    between atoms: N_3  and  S_1 
REMARK    3  A    between atoms: C_4  and  C_6 
REMARK       I    between atoms: N_7  and  C_4 
REMARK    4  A    between atoms: C_14  and  N_7 
ROOT
ATOM      1  C   UNL d   1      51.554  34.256  53.062  0.00  0.00     0.104 A 
ATOM      2  C   UNL d   1      50.838  34.536  53.362  0.00  0.00     0.018 A 
ATOM      3  C   UNL d   1      50.193  34.650  52.853  0.00  0.00     0.059 A 
ATOM      4  C   UNL d   1      51.626  34.090  52.265  0.00  0.00     0.012 A 
ATOM      5  C   UNL d   1      50.268  34.481  52.047  0.00  0.00     0.005 A 
ATOM      6  C   UNL d   1      50.981  34.203  51.756  0.00  0.00     0.001 A 
ATOM      7  C   UNL d   1      52.342  33.809  51.965  0.00  0.00     0.001 C 
ENDROOT
BRANCH   3   8
ATOM      8  C   UNL d   1      49.471  34.931  53.149  0.00  0.00     0.279 C 
ATOM      9  N   UNL d   1      49.156  35.637  52.866  0.00  0.00    -0.208 NA
ATOM     10  O   UNL d   1      49.068  34.504  53.727  0.00  0.00    -0.265 OA
BRANCH   9  11
ATOM     11  C   UNL d   1      48.440  35.917  53.158  0.00  0.00     0.087 A 
ATOM     12  C   UNL d   1      47.762  35.843  52.708  0.00  0.00     0.045 A 
ATOM     13  C   UNL d   1      47.047  36.119  52.993  0.00  0.00     0.121 A 
ATOM     14  O   UNL d   1      46.279  36.125  52.676  0.00  0.00    -0.299 OA
ATOM     15  C   UNL d   1      47.009  36.477  53.741  0.00  0.00     0.119 A 
ATOM     16  C   UNL d   1      45.768  36.481  53.219  0.00  0.00     0.304 A 
ATOM     17  O   UNL d   1      46.223  36.702  53.887  0.00  0.00    -0.300 OA
ATOM     18  C   UNL d   1      47.698  36.551  54.196  0.00  0.00     0.028 A 
ATOM     19  C   UNL d   1      48.413  36.272  53.905  0.00  0.00     0.021 A 
ENDBRANCH   9  11
ENDBRANCH   3   8
BRANCH   1  20
ATOM     20  S   UNL d   1      52.191  34.144  53.566  0.00  0.00     0.271 S 
ATOM     21  O   UNL d   1      52.461  34.918  53.396  0.00  0.00    -0.200 OA
ATOM     22  O   UNL d   1      51.886  33.269  53.757  0.00  0.00    -0.200 OA
BRANCH  20  23
ATOM     23  N   UNL d   1      52.818  33.981  54.086  0.00  0.00    -0.229 N 
ATOM     24  C   UNL d   1      53.180  34.597  54.500  0.00  0.00     0.092 A 
ATOM     25  C   UNL d   1      53.798  34.442  55.013  0.00  0.00     0.020 A 
ATOM     26  C   UNL d   1      54.064  33.671  55.121  0.00  0.00     0.003 A 
ATOM     27  C   UNL d   1      53.703  33.056  54.707  0.00  0.00     0.020 A 
ATOM     28  C   UNL d   1      53.080  33.208  54.190  0.00  0.00     0.092 A 
ENDBRANCH  20  23
ENDBRANCH   1  20
TORSDOF 4
ENDMDL
MODEL 5
REMARK VINA RESULT:      -7.6      2.005      6.133
REMARK  4 active torsions:
REMARK  status: ('A' for Active; 'I' for Inactive)
REMARK    1  A    between atoms: C_2  and  S_1 
REMARK    2  A    between atoms: N_3  and  S_1 
REMARK    3  A    between atoms: C_4  and  C_6 
REMARK       I    between atoms: N_7  and  C_4 
REMARK    4  A    between atoms: C_14  and  N_7 
ROOT
ATOM      1  C   UNL d   1      47.638  35.833  52.716  0.00  0.00     0.104 A 
ATOM      2  C   UNL d   1      48.272  35.355  52.487  0.00  0.00     0.018 A 
ATOM      3  C   UNL d   1      48.933  35.281  52.982  0.00  0.00     0.059 A 
ATOM      4  C   UNL d   1      47.664  36.232  53.429  0.00  0.00     0.012 A 
ATOM      5  C   UNL d   1      48.957  35.686  53.703  0.00  0.00     0.005 A 
ATOM      6  C   UNL d   1      48.325  36.158  53.924  0.00  0.00     0.001 A 
ATOM      7  C   UNL d   1      47.031  36.709  53.658  0.00  0.00     0.001 C 
ENDROOT
BRANCH   3   8
ATOM      8  C   UNL d   1      49.572  34.803  52.758  0.00  0.00     0.279 C 
ATOM      9  N   UNL d   1      50.206  34.692  53.271  0.00  0.00    -0.208 NA
ATOM     10  O   UNL d   1      49.573  34.437  52.018  0.00  0.00    -0.265 OA
BRANCH   9  11
ATOM     11  C   UNL d   1      50.840  34.217  53.049  0.00  0.00     0.087 A 
ATOM     12  C   UNL d   1      50.886  33.450  53.325  0.00  0.00     0.045 A 
ATOM     13  C   UNL d   1      51.514  32.972  53.108  0.00  0.00     0.121 A 
ATOM     14  O   UNL d   1      51.714  32.187  53.292  0.00  0.00    -0.299 OA
ATOM     15  C   UNL d   1      52.106  33.268  52.607  0.00  0.00     0.119 A 
ATOM     16  C   UNL d   1      52.422  31.995  52.910  0.00  0.00     0.304 A 
ATOM     17  O   UNL d   1      52.669  32.670  52.481  0.00  0.00    -0.300 OA
ATOM     18  C   UNL d   1      52.057  34.047  52.329  0.00  0.00     0.028 A 
ATOM     19  C   UNL d   1      51.425  34.521  52.549  0.00  0.00     0.021 A 
ENDBRANCH   9  11
ENDBRANCH   3   8
BRANCH   1  20
ATOM     20  S   UNL d   1      46.984  35.905  52.227  0.00  0.00     0.271 S 
ATOM     21  O   UNL d   1      47.361  36.530  51.816  0.00  0.00    -0.200 OA
ATOM     22  O   UNL d   1      46.558  35.200  52.691  0.00  0.00    -0.200 OA
BRANCH  20  23
ATOM     23  N   UNL d   1      46.299  35.939  51.758  0.00  0.00    -0.229 N 
ATOM     24  C   UNL d   1      46.199  35.405  51.137  0.00  0.00     0.092 A 
ATOM     25  C   UNL d   1      45.526  35.433  50.672  0.00  0.00     0.020 A 
ATOM     26  C   UNL d   1      44.943  35.993  50.821  0.00  0.00     0.003 A 
ATOM     27  C   UNL d   1      45.043  36.527  51.442  0.00  0.00     0.020 A 
ATOM     28  C   UNL d   1      45.719  36.501  51.912  0.00  0.00     0.092 A 
ENDBRANCH  20  23
ENDBRANCH   1  20
TORSDOF 4
ENDMDL
