MODEL 1
REMARK VINA RESULT:      51.5      0.000      0.000
REMARK  3 active torsions:
REMARK  status: ('A' for Active; 'I' for Inactive)
REMARK    1  A    between atoms: N_11  and  C_4 
REMARK       I    between atoms: C_5  and  N_9 
REMARK       I    between atoms: N_12  and  C_5 
REMARK    2  A    between atoms: C_6  and  C_7 
REMARK    3  A    between atoms: C_14  and  N_12 
ROOT
ATOM      1  C   UNL d   1      46.151 -18.811  41.099  0.00  0.00     0.354 C 
ATOM      2  N   UNL d   1      45.910 -18.342  40.453  0.00  0.00    -0.253 N 
ATOM      3  N   UNL d   1      45.429 -17.411  39.188  0.00  0.00    -0.285 N 
ATOM      4  N   UNL d   1      45.908 -18.622  41.865  0.00  0.00    -0.192 NA
ATOM      5  O   UNL d   1      46.637 -19.470  40.969  0.00  0.00    -0.244 OA
ATOM      6  C   UNL d   1      45.427 -17.687  40.582  0.00  0.00     0.104 A 
ATOM      7  C   UNL d   1      46.153 -18.532  39.687  0.00  0.00     0.104 A 
ATOM      8  C   UNL d   1      45.187 -17.220  39.945  0.00  0.00     0.101 A 
ATOM      9  C   UNL d   1      45.913 -18.067  39.059  0.00  0.00     0.101 A 
ENDROOT
BRANCH   4  10
ATOM     10  C   UNL d   1      46.148 -19.089  42.502  0.00  0.00     0.090 A 
ATOM     11  C   UNL d   1      46.130 -18.782  43.268  0.00  0.00     0.089 A 
ATOM     12  C   UNL d   1      46.370 -19.249  43.901  0.00  0.00     0.005 A 
ATOM     13  C   UNL d   1      46.627 -20.017  43.772  0.00  0.00     0.000 A 
ATOM     14  C   UNL d   1      46.645 -20.323  43.001  0.00  0.00     0.002 A 
ATOM     15  C   UNL d   1      46.406 -19.857  42.373  0.00  0.00     0.019 A 
BRANCH  11  16
ATOM     16  C   UNL d   1      45.871 -18.010  43.398  0.00  0.00     0.420 C 
ATOM     17  F   UNL d   1      45.612 -17.237  43.527  0.00  0.00    -0.166 F 
ATOM     18  F   UNL d   1      46.647 -17.744  43.365  0.00  0.00    -0.166 F 
ATOM     19  F   UNL d   1      45.091 -18.277  43.431  0.00  0.00    -0.166 F 
ENDBRANCH  11  16
ENDBRANCH   4  10
BRANCH   3  20
ATOM     20  C   UNL d   1      45.189 -16.944  38.551  0.00  0.00     0.168 A 
ATOM     21  N   UNL d   1      45.608 -16.260  38.358  0.00  0.00    -0.144 NA
ATOM     22  N   UNL d   1      45.367 -15.798  37.724  0.00  0.00    -0.187 N 
ATOM     23  C   UNL d   1      44.707 -16.016  37.279  0.00  0.00     0.187 A 
ATOM     24  C   UNL d   1      45.663 -15.102  37.401  0.00  0.00     0.224 A 
ATOM     25  N   UNL d   1      44.600 -15.453  36.685  0.00  0.00    -0.127 NA
ATOM     26  C   UNL d   1      44.288 -16.697  37.469  0.00  0.00     0.044 A 
ATOM     27  N   UNL d   1      45.199 -14.888  36.769  0.00  0.00    -0.124 NA
ATOM     28  C   UNL d   1      44.529 -17.163  38.106  0.00  0.00     0.042 A 
ENDBRANCH   3  20
TORSDOF 3
ENDMDL
