MODEL 1
REMARK VINA RESULT:      -4.1      0.000      0.000
REMARK  5 active torsions:
REMARK  status: ('A' for Active; 'I' for Inactive)
REMARK    1  A    between atoms: C_7  and  N_1 
REMARK    2  A    between atoms: C_15  and  C_5 
REMARK    3  A    between atoms: C_14  and  C_6 
REMARK    4  A    between atoms: C_8  and  C_7 
REMARK       I    between atoms: N_11  and  C_8 
REMARK    5  A    between atoms: C_13  and  N_11 
ROOT
ATOM      1  N   UNL d   1      58.636  -0.500  29.651  0.00  0.00    -0.235 N 
ATOM      2  C   UNL d   1      58.573  -1.306  29.463  0.00  0.00     0.273 A 
ATOM      3  C   UNL d   1      59.372  -0.119  29.590  0.00  0.00     0.273 A 
ATOM      4  S   UNL d   1      59.966  -1.349  29.158  0.00  0.00    -0.077 SA
ATOM      5  C   UNL d   1      60.032  -0.550  29.343  0.00  0.00     0.086 A 
ATOM      6  C   UNL d   1      59.236  -1.719  29.220  0.00  0.00     0.086 A 
ATOM      7  O   UNL d   1      59.436   0.682  29.777  0.00  0.00    -0.266 OA
ATOM      8  O   UNL d   1      57.840  -1.689  29.523  0.00  0.00    -0.266 OA
ENDROOT
BRANCH   1   9
ATOM      9  C   UNL d   1      57.966  -0.082  29.897  0.00  0.00     0.148 C 
BRANCH   9  10
ATOM     10  C   UNL d   1      57.756  -0.077  30.695  0.00  0.00     0.297 C 
ATOM     11  N   UNL d   1      56.960  -0.095  30.911  0.00  0.00    -0.207 NA
ATOM     12  O   UNL d   1      58.348  -0.055  31.271  0.00  0.00    -0.264 OA
BRANCH  11  13
ATOM     13  C   UNL d   1      56.750  -0.090  31.708  0.00  0.00     0.085 A 
ATOM     14  C   UNL d   1      56.709   0.617  32.117  0.00  0.00     0.019 A 
ATOM     15  C   UNL d   1      56.499   0.616  32.911  0.00  0.00     0.002 A 
ATOM     16  C   UNL d   1      56.330  -0.090  33.303  0.00  0.00     0.000 A 
ATOM     17  C   UNL d   1      56.373  -0.806  32.885  0.00  0.00     0.002 A 
ATOM     18  C   UNL d   1      56.582  -0.800  32.094  0.00  0.00     0.019 A 
ENDBRANCH  11  13
ENDBRANCH   9  10
ENDBRANCH   1   9
BRANCH   6  19
ATOM     19  C   UNL d   1      59.172  -2.529  29.031  0.00  0.00     0.011 C 
ATOM     20  C   UNL d   1      59.805  -3.039  29.178  0.00  0.00     0.001 C 
ENDBRANCH   6  19
BRANCH   5  21
ATOM     21  C   UNL d   1      60.764  -0.171  29.283  0.00  0.00     0.011 C 
ATOM     22  C   UNL d   1      61.133  -0.103  28.546  0.00  0.00     0.001 C 
ENDBRANCH   5  21
TORSDOF 5
ENDMDL
MODEL 2
REMARK VINA RESULT:      -4.1      0.143      1.705
REMARK  5 active torsions:
REMARK  status: ('A' for Active; 'I' for Inactive)
REMARK    1  A    between atoms: C_7  and  N_1 
REMARK    2  A    between atoms: C_15  and  C_5 
REMARK    3  A    between atoms: C_14  and  C_6 
REMARK    4  A    between atoms: C_8  and  C_7 
REMARK       I    between atoms: N_11  and  C_8 
REMARK    5  A    between atoms: C_13  and  N_11 
ROOT
ATOM      1  N   UNL d   1      58.689  -0.484  29.671  0.00  0.00    -0.235 N 
ATOM      2  C   UNL d   1      59.430  -0.109  29.635  0.00  0.00     0.273 A 
ATOM      3  C   UNL d   1      58.617  -1.277  29.430  0.00  0.00     0.273 A 
ATOM      4  S   UNL d   1      60.015  -1.305  29.123  0.00  0.00    -0.077 SA
ATOM      5  C   UNL d   1      59.284  -1.680  29.157  0.00  0.00     0.086 A 
ATOM      6  C   UNL d   1      60.081  -0.522  29.362  0.00  0.00     0.086 A 
ATOM      7  O   UNL d   1      57.882  -1.649  29.466  0.00  0.00    -0.266 OA
ATOM      8  O   UNL d   1      59.505   0.681  29.875  0.00  0.00    -0.266 OA
ENDROOT
BRANCH   1   9
ATOM      9  C   UNL d   1      58.031  -0.067  29.947  0.00  0.00     0.148 C 
BRANCH   9  10
ATOM     10  C   UNL d   1      57.821  -0.113  30.743  0.00  0.00     0.297 C 
ATOM     11  N   UNL d   1      57.025  -0.164  30.957  0.00  0.00    -0.207 NA
ATOM     12  O   UNL d   1      58.412  -0.107  31.321  0.00  0.00    -0.264 OA
BRANCH  11  13
ATOM     13  C   UNL d   1      56.815  -0.210  31.753  0.00  0.00     0.085 A 
ATOM     14  C   UNL d   1      56.880   0.450  32.232  0.00  0.00     0.019 A 
ATOM     15  C   UNL d   1      56.669   0.398  33.025  0.00  0.00     0.002 A 
ATOM     16  C   UNL d   1      56.393  -0.310  33.344  0.00  0.00     0.000 A 
ATOM     17  C   UNL d   1      56.329  -0.978  32.855  0.00  0.00     0.002 A 
ATOM     18  C   UNL d   1      56.540  -0.922  32.065  0.00  0.00     0.019 A 
ENDBRANCH  11  13
ENDBRANCH   9  10
ENDBRANCH   1   9
BRANCH   6  19
ATOM     19  C   UNL d   1      60.824  -0.145  29.326  0.00  0.00     0.011 C 
ATOM     20  C   UNL d   1      61.120   0.118  28.601  0.00  0.00     0.001 C 
ENDBRANCH   6  19
BRANCH   5  21
ATOM     21  C   UNL d   1      59.211  -2.467  28.918  0.00  0.00     0.011 C 
ATOM     22  C   UNL d   1      59.792  -3.017  29.128  0.00  0.00     0.001 C 
ENDBRANCH   5  21
TORSDOF 5
ENDMDL
MODEL 3
REMARK VINA RESULT:      -2.0      1.612      4.303
REMARK  5 active torsions:
REMARK  status: ('A' for Active; 'I' for Inactive)
REMARK    1  A    between atoms: C_7  and  N_1 
REMARK    2  A    between atoms: C_15  and  C_5 
REMARK    3  A    between atoms: C_14  and  C_6 
REMARK    4  A    between atoms: C_8  and  C_7 
REMARK       I    between atoms: N_11  and  C_8 
REMARK    5  A    between atoms: C_13  and  N_11 
ROOT
ATOM      1  N   UNL d   1      57.259   0.458  31.784  0.00  0.00    -0.235 N 
ATOM      2  C   UNL d   1      56.461   0.344  31.982  0.00  0.00     0.273 A 
ATOM      3  C   UNL d   1      57.821   0.569  32.387  0.00  0.00     0.273 A 
ATOM      4  S   UNL d   1      56.783   0.450  33.368  0.00  0.00    -0.077 SA
ATOM      5  C   UNL d   1      57.575   0.563  33.176  0.00  0.00     0.086 A 
ATOM      6  C   UNL d   1      56.233   0.342  32.768  0.00  0.00     0.086 A 
ATOM      7  O   UNL d   1      58.614   0.682  32.192  0.00  0.00    -0.266 OA
ATOM      8  O   UNL d   1      55.898   0.234  31.383  0.00  0.00    -0.266 OA
ENDROOT
BRANCH   1   9
ATOM      9  C   UNL d   1      57.489   0.461  30.990  0.00  0.00     0.148 C 
BRANCH   9  10
ATOM     10  C   UNL d   1      57.838  -0.211  30.662  0.00  0.00     0.297 C 
ATOM     11  N   UNL d   1      58.269  -0.151  29.962  0.00  0.00    -0.207 NA
ATOM     12  O   UNL d   1      57.750  -0.941  31.041  0.00  0.00    -0.264 OA
BRANCH  11  13
ATOM     13  C   UNL d   1      58.618  -0.823  29.634  0.00  0.00     0.085 A 
ATOM     14  C   UNL d   1      59.405  -0.810  29.414  0.00  0.00     0.019 A 
ATOM     15  C   UNL d   1      59.747  -1.482  29.088  0.00  0.00     0.002 A 
ATOM     16  C   UNL d   1      59.306  -2.171  28.980  0.00  0.00     0.000 A 
ATOM     17  C   UNL d   1      58.507  -2.180  29.204  0.00  0.00     0.002 A 
ATOM     18  C   UNL d   1      58.170  -1.508  29.529  0.00  0.00     0.019 A 
ENDBRANCH  11  13
ENDBRANCH   9  10
ENDBRANCH   1   9
BRANCH   6  19
ATOM     19  C   UNL d   1      55.431   0.227  32.966  0.00  0.00     0.011 C 
ATOM     20  C   UNL d   1      55.199  -0.449  33.380  0.00  0.00     0.001 C 
ENDBRANCH   6  19
BRANCH   5  21
ATOM     21  C   UNL d   1      58.134   0.673  33.774  0.00  0.00     0.011 C 
ATOM     22  C   UNL d   1      57.894   0.682  34.566  0.00  0.00     0.001 C 
ENDBRANCH   5  21
TORSDOF 5
ENDMDL
MODEL 4
REMARK VINA RESULT:      -1.3      1.526      2.138
REMARK  5 active torsions:
REMARK  status: ('A' for Active; 'I' for Inactive)
REMARK    1  A    between atoms: C_7  and  N_1 
REMARK    2  A    between atoms: C_15  and  C_5 
REMARK    3  A    between atoms: C_14  and  C_6 
REMARK    4  A    between atoms: C_8  and  C_7 
REMARK       I    between atoms: N_11  and  C_8 
REMARK    5  A    between atoms: C_13  and  N_11 
ROOT
ATOM      1  N   UNL d   1      58.191   0.627  30.804  0.00  0.00    -0.235 N 
ATOM      2  C   UNL d   1      58.854   0.627  31.305  0.00  0.00     0.273 A 
ATOM      3  C   UNL d   1      58.297   0.573  29.981  0.00  0.00     0.273 A 
ATOM      4  S   UNL d   1      59.715   0.519  30.173  0.00  0.00    -0.077 SA
ATOM      5  C   UNL d   1      59.062   0.519  29.673  0.00  0.00     0.086 A 
ATOM      6  C   UNL d   1      59.605   0.573  30.984  0.00  0.00     0.086 A 
ATOM      7  O   UNL d   1      57.639   0.573  29.484  0.00  0.00    -0.266 OA
ATOM      8  O   UNL d   1      58.752   0.682  32.126  0.00  0.00    -0.266 OA
ENDROOT
BRANCH   1   9
ATOM      9  C   UNL d   1      57.432   0.682  31.128  0.00  0.00     0.148 C 
BRANCH   9  10
ATOM     10  C   UNL d   1      57.126   0.050  31.561  0.00  0.00     0.297 C 
ATOM     11  N   UNL d   1      56.563   0.189  32.148  0.00  0.00    -0.207 NA
ATOM     12  O   UNL d   1      57.386  -0.718  31.401  0.00  0.00    -0.264 OA
BRANCH  11  13
ATOM     13  C   UNL d   1      56.256  -0.442  32.581  0.00  0.00     0.085 A 
ATOM     14  C   UNL d   1      56.011  -0.328  33.353  0.00  0.00     0.019 A 
ATOM     15  C   UNL d   1      55.706  -0.961  33.780  0.00  0.00     0.002 A 
ATOM     16  C   UNL d   1      55.644  -1.710  33.440  0.00  0.00     0.000 A 
ATOM     17  C   UNL d   1      55.895  -1.822  32.657  0.00  0.00     0.002 A 
ATOM     18  C   UNL d   1      56.198  -1.189  32.235  0.00  0.00     0.019 A 
ENDBRANCH  11  13
ENDBRANCH   9  10
ENDBRANCH   1   9
BRANCH   6  19
ATOM     19  C   UNL d   1      60.270   0.573  31.487  0.00  0.00     0.011 C 
ATOM     20  C   UNL d   1      60.916   0.086  31.320  0.00  0.00     0.001 C 
ENDBRANCH   6  19
BRANCH   5  21
ATOM     21  C   UNL d   1      59.165   0.465  28.856  0.00  0.00     0.011 C 
ATOM     22  C   UNL d   1      59.742  -0.041  28.547  0.00  0.00     0.001 C 
ENDBRANCH   5  21
TORSDOF 5
ENDMDL
