MODEL 1
REMARK VINA RESULT:      -1.7      0.000      0.000
REMARK  4 active torsions:
REMARK  status: ('A' for Active; 'I' for Inactive)
REMARK    1  A    between atoms: C_3  and  N_1 
REMARK    2  A    between atoms: C_6  and  C_3 
REMARK    3  A    between atoms: C_9  and  C_3 
REMARK    4  A    between atoms: N_5  and  C_6 
ROOT
ATOM      1  C   UNL d   1      31.252  16.584 -24.082  0.00  0.00     0.106 C 
ENDROOT
BRANCH   1   2
ATOM      2  N   UNL d   1      30.443  16.687 -24.213  0.00  0.00    -0.228 N 
ATOM      3  N   UNL d   1      29.903  17.255 -23.935  0.00  0.00    -0.165 NA
ATOM      4  C   UNL d   1      29.166  17.069 -24.260  0.00  0.00     0.103 A 
ATOM      5  C   UNL d   1      28.461  17.500 -24.125  0.00  0.00     0.022 C 
ATOM      6  C   UNL d   1      29.240  16.413 -24.722  0.00  0.00     0.040 A 
ATOM      7  C   UNL d   1      30.028  16.170 -24.698  0.00  0.00     0.085 A 
ATOM      8  C   UNL d   1      30.359  15.510 -25.097  0.00  0.00     0.021 C 
ENDBRANCH   1   2
BRANCH   1   9
ATOM      9  C   UNL d   1      31.544  15.832 -23.935  0.00  0.00     0.167 C 
BRANCH   9  10
ATOM     10  N   UNL d   1      31.794  15.607 -23.180  0.00  0.00    -0.111 N 
ATOM     11  O   UNL d   1      32.594  15.455 -23.031  0.00  0.00    -0.532 OA
ATOM     12  O   UNL d   1      31.236  15.535 -22.575  0.00  0.00    -0.532 OA
ENDBRANCH   9  10
ENDBRANCH   1   9
BRANCH   1  13
ATOM     13  C   UNL d   1      31.750  17.244 -24.102  0.00  0.00     0.019 A 
ATOM     14  C   UNL d   1      32.060  17.488 -24.818  0.00  0.00     0.002 A 
ATOM     15  C   UNL d   1      32.564  18.148 -24.863  0.00  0.00     0.011 A 
ATOM     16  C   UNL d   1      32.742  18.555 -24.142  0.00  0.00     0.058 A 
ATOM     17  C   UNL d   1      32.430  18.305 -23.447  0.00  0.00     0.011 A 
ATOM     18 CL   UNL d   1      33.237  19.216 -24.140  0.00  0.00    -0.082 Cl
ATOM     19  C   UNL d   1      31.939  17.657 -23.419  0.00  0.00     0.002 A 
ENDBRANCH   1  13
TORSDOF 4
ENDMDL
MODEL 2
REMARK VINA RESULT:      -1.4      2.199      3.428
REMARK  4 active torsions:
REMARK  status: ('A' for Active; 'I' for Inactive)
REMARK    1  A    between atoms: C_3  and  N_1 
REMARK    2  A    between atoms: C_6  and  C_3 
REMARK    3  A    between atoms: C_9  and  C_3 
REMARK    4  A    between atoms: N_5  and  C_6 
ROOT
ATOM      1  C   UNL d   1      31.123  16.646 -24.388  0.00  0.00     0.106 C 
ENDROOT
BRANCH   1   2
ATOM      2  N   UNL d   1      31.768  16.333 -23.978  0.00  0.00    -0.228 N 
ATOM      3  N   UNL d   1      32.066  16.481 -23.216  0.00  0.00    -0.165 NA
ATOM      4  C   UNL d   1      32.728  15.996 -23.116  0.00  0.00     0.103 A 
ATOM      5  C   UNL d   1      33.200  15.967 -22.425  0.00  0.00     0.022 C 
ATOM      6  C   UNL d   1      32.842  15.563 -23.786  0.00  0.00     0.040 A 
ATOM      7  C   UNL d   1      32.251  15.766 -24.325  0.00  0.00     0.085 A 
ATOM      8  C   UNL d   1      32.151  15.453 -25.097  0.00  0.00     0.021 C 
ENDBRANCH   1   2
BRANCH   1   9
ATOM      9  C   UNL d   1      31.250  17.212 -24.968  0.00  0.00     0.167 C 
BRANCH   9  10
ATOM     10  N   UNL d   1      31.220  18.020 -24.796  0.00  0.00    -0.111 N 
ATOM     11  O   UNL d   1      30.530  18.454 -24.940  0.00  0.00    -0.532 OA
ATOM     12  O   UNL d   1      31.887  18.389 -24.479  0.00  0.00    -0.532 OA
ENDBRANCH   9  10
ENDBRANCH   1   9
BRANCH   1  13
ATOM     13  C   UNL d   1      30.362  16.380 -24.204  0.00  0.00     0.019 A 
ATOM     14  C   UNL d   1      29.934  15.974 -24.770  0.00  0.00     0.002 A 
ATOM     15  C   UNL d   1      29.166  15.698 -24.608  0.00  0.00     0.011 A 
ATOM     16  C   UNL d   1      28.847  15.853 -23.839  0.00  0.00     0.058 A 
ATOM     17  C   UNL d   1      29.280  16.253 -23.294  0.00  0.00     0.011 A 
ATOM     18 CL   UNL d   1      28.090  15.597 -23.635  0.00  0.00    -0.082 Cl
ATOM     19  C   UNL d   1      30.029  16.516 -23.467  0.00  0.00     0.002 A 
ENDBRANCH   1  13
TORSDOF 4
ENDMDL
MODEL 3
REMARK VINA RESULT:      -1.3      2.044      2.437
REMARK  4 active torsions:
REMARK  status: ('A' for Active; 'I' for Inactive)
REMARK    1  A    between atoms: C_3  and  N_1 
REMARK    2  A    between atoms: C_6  and  C_3 
REMARK    3  A    between atoms: C_9  and  C_3 
REMARK    4  A    between atoms: N_5  and  C_6 
ROOT
ATOM      1  C   UNL d   1      30.046  16.514 -24.333  0.00  0.00     0.106 C 
ENDROOT
BRANCH   1   2
ATOM      2  N   UNL d   1      29.447  16.154 -23.893  0.00  0.00    -0.228 N 
ATOM      3  N   UNL d   1      29.313  16.106 -23.074  0.00  0.00    -0.165 NA
ATOM      4  C   UNL d   1      28.619  15.670 -22.967  0.00  0.00     0.103 A 
ATOM      5  C   UNL d   1      28.278  15.487 -22.224  0.00  0.00     0.022 C 
ATOM      6  C   UNL d   1      28.330  15.453 -23.688  0.00  0.00     0.040 A 
ATOM      7  C   UNL d   1      28.838  15.749 -24.266  0.00  0.00     0.085 A 
ATOM      8  C   UNL d   1      28.756  15.658 -25.096  0.00  0.00     0.021 C 
ENDBRANCH   1   2
BRANCH   1   9
ATOM      9  C   UNL d   1      29.847  17.064 -24.909  0.00  0.00     0.167 C 
BRANCH   9  10
ATOM     10  N   UNL d   1      29.863  17.876 -24.753  0.00  0.00    -0.111 N 
ATOM     11  O   UNL d   1      29.203  18.253 -24.424  0.00  0.00    -0.532 OA
ATOM     12  O   UNL d   1      30.546  18.307 -24.929  0.00  0.00    -0.532 OA
ENDBRANCH   9  10
ENDBRANCH   1   9
BRANCH   1  13
ATOM     13  C   UNL d   1      30.834  16.312 -24.183  0.00  0.00     0.019 A 
ATOM     14  C   UNL d   1      31.239  15.855 -24.728  0.00  0.00     0.002 A 
ATOM     15  C   UNL d   1      32.032  15.640 -24.599  0.00  0.00     0.011 A 
ATOM     16  C   UNL d   1      32.401  15.910 -23.886  0.00  0.00     0.058 A 
ATOM     17  C   UNL d   1      31.991  16.358 -23.361  0.00  0.00     0.011 A 
ATOM     18 CL   UNL d   1      33.186  15.720 -23.717  0.00  0.00    -0.082 Cl
ATOM     19  C   UNL d   1      31.216  16.560 -23.502  0.00  0.00     0.002 A 
ENDBRANCH   1  13
TORSDOF 4
ENDMDL
