MODEL 1
REMARK VINA RESULT:      -4.6      0.000      0.000
REMARK  3 active torsions:
REMARK  status: ('A' for Active; 'I' for Inactive)
REMARK    1  A    between atoms: N_6  and  C_1 
REMARK    2  A    between atoms: C_7  and  C_2 
REMARK    3  A    between atoms: C_9  and  C_5 
ROOT
ATOM      1  C   UNL d   1     -41.573-122.745 -51.720  0.00  0.00     0.189 A 
ATOM      2  C   UNL d   1     -41.455-121.995 -51.334  0.00  0.00     0.144 A 
ATOM      3  O   UNL d   1     -41.795-123.287 -51.105  0.00  0.00    -0.271 OA
ATOM      4  N   UNL d   1     -41.597-122.083 -50.538  0.00  0.00    -0.217 NA
ATOM      5  C   UNL d   1     -41.797-122.839 -50.392  0.00  0.00     0.184 A 
ENDROOT
BRANCH   5   6
ATOM      6  C   UNL d   1     -41.973-123.099 -49.642  0.00  0.00     0.041 A 
ATOM      7  C   UNL d   1     -41.412-123.511 -49.194  0.00  0.00     0.004 A 
ATOM      8  C   UNL d   1     -41.615-123.763 -48.437  0.00  0.00     0.011 A 
ATOM      9  C   UNL d   1     -42.342-123.619 -48.127  0.00  0.00     0.058 A 
ATOM     10  C   UNL d   1     -42.902-123.204 -48.579  0.00  0.00     0.011 A 
ATOM     11 CL   UNL d   1     -42.678-123.817 -47.376  0.00  0.00    -0.082 Cl
ATOM     12  C   UNL d   1     -42.704-122.946 -49.345  0.00  0.00     0.004 A 
ENDBRANCH   5   6
BRANCH   1  13
ATOM     13  N   UNL d   1     -41.439-122.654 -52.459  0.00  0.00    -0.284 N 
ATOM     14  C   UNL d   1     -41.314-122.147 -53.124  0.00  0.00     0.082 A 
ATOM     15  C   UNL d   1     -41.184-122.480 -53.868  0.00  0.00     0.019 A 
ATOM     16  C   UNL d   1     -41.174-123.311 -53.968  0.00  0.00     0.003 A 
ATOM     17  C   UNL d   1     -41.295-123.809 -53.326  0.00  0.00     0.019 A 
ATOM     18  C   UNL d   1     -41.430-123.484 -52.560  0.00  0.00     0.082 A 
ENDBRANCH   1  13
BRANCH   2  19
ATOM     19  C   UNL d   1     -41.264-121.490 -51.800  0.00  0.00     0.145 C 
ATOM     20  N   UNL d   1     -41.123-120.437 -51.854  0.00  0.00    -0.145 N 
ENDBRANCH   2  19
TORSDOF 3
ENDMDL
MODEL 2
REMARK VINA RESULT:      -4.0      2.200      4.262
REMARK  3 active torsions:
REMARK  status: ('A' for Active; 'I' for Inactive)
REMARK    1  A    between atoms: N_6  and  C_1 
REMARK    2  A    between atoms: C_7  and  C_2 
REMARK    3  A    between atoms: C_9  and  C_5 
ROOT
ATOM      1  C   UNL d   1     -41.581-122.632 -51.564  0.00  0.00     0.189 A 
ATOM      2  C   UNL d   1     -41.424-121.803 -51.680  0.00  0.00     0.144 A 
ATOM      3  O   UNL d   1     -41.749-122.944 -52.336  0.00  0.00    -0.271 OA
ATOM      4  N   UNL d   1     -41.493-121.631 -52.472  0.00  0.00    -0.217 NA
ATOM      5  C   UNL d   1     -41.683-122.294 -52.867  0.00  0.00     0.184 A 
ENDROOT
BRANCH   5   6
ATOM      6  C   UNL d   1     -41.791-122.297 -53.673  0.00  0.00     0.041 A 
ATOM      7  C   UNL d   1     -41.267-122.702 -54.168  0.00  0.00     0.004 A 
ATOM      8  C   UNL d   1     -41.399-122.690 -54.981  0.00  0.00     0.011 A 
ATOM      9  C   UNL d   1     -42.022-122.295 -55.300  0.00  0.00     0.058 A 
ATOM     10  C   UNL d   1     -42.546-121.890 -54.799  0.00  0.00     0.011 A 
ATOM     11 CL   UNL d   1     -42.271-122.202 -56.104  0.00  0.00    -0.082 Cl
ATOM     12  C   UNL d   1     -42.419-121.898 -53.977  0.00  0.00     0.004 A 
ENDBRANCH   5   6
BRANCH   1  13
ATOM     13  N   UNL d   1     -41.515-122.784 -50.825  0.00  0.00    -0.284 N 
ATOM     14  C   UNL d   1     -41.155-122.633 -50.075  0.00  0.00     0.082 A 
ATOM     15  C   UNL d   1     -41.389-123.073 -49.418  0.00  0.00     0.019 A 
ATOM     16  C   UNL d   1     -41.976-123.665 -49.487  0.00  0.00     0.003 A 
ATOM     17  C   UNL d   1     -42.330-123.817 -50.213  0.00  0.00     0.019 A 
ATOM     18  C   UNL d   1     -42.102-123.376 -50.894  0.00  0.00     0.082 A 
ENDBRANCH   1  13
BRANCH   2  19
ATOM     19  C   UNL d   1     -41.274-121.478 -51.064  0.00  0.00     0.145 C 
ATOM     20  N   UNL d   1     -41.123-120.503 -50.667  0.00  0.00    -0.145 N 
ENDBRANCH   2  19
TORSDOF 3
ENDMDL
