MODEL 1
REMARK VINA RESULT:      62.8      0.000      0.000
REMARK  3 active torsions:
REMARK  status: ('A' for Active; 'I' for Inactive)
REMARK    1  A    between atoms: C_3  and  S_1 
REMARK    2  A    between atoms: N_4  and  S_1 
REMARK       I    between atoms: C_2  and  N_5 
REMARK       I    between atoms: N_6  and  C_2 
REMARK    3  A    between atoms: C_13  and  N_6 
ROOT
ATOM      1  C   UNL d   1      45.034 -16.979  39.141  0.00  0.00     0.339 C 
ATOM      2  N   UNL d   1      45.636 -18.239  41.194  0.00  0.00    -0.226 N 
ATOM      3  N   UNL d   1      45.229 -17.397  39.826  0.00  0.00    -0.254 N 
ATOM      4  N   UNL d   1      44.279 -16.647  39.056  0.00  0.00    -0.257 N 
ATOM      5  C   UNL d   1      44.881 -17.915  41.124  0.00  0.00     0.111 A 
ATOM      6  C   UNL d   1      46.192 -18.143  40.578  0.00  0.00     0.111 A 
ATOM      7  O   UNL d   1      45.595 -16.888  38.531  0.00  0.00    -0.245 OA
ATOM      8  C   UNL d   1      44.675 -17.489  40.433  0.00  0.00     0.104 A 
ATOM      9  C   UNL d   1      45.989 -17.724  39.897  0.00  0.00     0.104 A 
ATOM     10  C   UNL d   1      43.729 -16.740  39.661  0.00  0.00     0.104 C 
ENDROOT
BRANCH   2  11
ATOM     11  S   UNL d   1      45.837 -18.655  41.869  0.00  0.00     0.271 S 
ATOM     12  O   UNL d   1      45.161 -18.368  42.246  0.00  0.00    -0.200 OA
ATOM     13  O   UNL d   1      46.512 -18.941  41.492  0.00  0.00    -0.200 OA
BRANCH  11  14
ATOM     14  C   UNL d   1      46.039 -19.074  42.550  0.00  0.00     0.104 A 
ATOM     15  C   UNL d   1      46.359 -18.683  43.195  0.00  0.00     0.012 A 
ATOM     16  C   UNL d   1      46.558 -19.096  43.866  0.00  0.00     0.001 A 
ATOM     17  C   UNL d   1      46.477 -17.866  43.158  0.00  0.00     0.001 C 
ATOM     18  C   UNL d   1      46.440 -19.909  43.900  0.00  0.00     0.000 A 
ATOM     19  C   UNL d   1      46.120 -20.301  43.254  0.00  0.00     0.001 A 
ATOM     20  C   UNL d   1      46.643 -20.328  44.581  0.00  0.00     0.000 C 
ATOM     21  C   UNL d   1      45.920 -19.886  42.580  0.00  0.00     0.012 A 
ATOM     22  C   UNL d   1      45.597 -20.276  41.926  0.00  0.00     0.001 C 
ENDBRANCH  11  14
ENDBRANCH   2  11
BRANCH   4  23
ATOM     23  C   UNL d   1      44.086 -16.227  38.366  0.00  0.00     0.068 A 
ATOM     24  C   UNL d   1      44.293 -16.512  37.617  0.00  0.00     0.018 A 
ATOM     25  C   UNL d   1      44.098 -16.090  36.945  0.00  0.00     0.002 A 
ATOM     26  C   UNL d   1      43.690 -15.370  37.013  0.00  0.00     0.000 A 
ATOM     27  C   UNL d   1      43.481 -15.081  37.762  0.00  0.00     0.002 A 
ATOM     28  C   UNL d   1      43.496 -14.950  36.331  0.00  0.00     0.000 C 
ATOM     29  C   UNL d   1      43.683 -15.515  38.433  0.00  0.00     0.018 A 
ENDBRANCH   4  23
TORSDOF 3
ENDMDL
