MODEL 1
REMARK VINA RESULT:      -9.8      0.000      0.000
REMARK  5 active torsions:
REMARK  status: ('A' for Active; 'I' for Inactive)
REMARK    1  A    between atoms: S_3  and  C_10 
REMARK    2  A    between atoms: N_11  and  S_3 
REMARK    3  A    between atoms: C_12  and  C_4 
REMARK    4  A    between atoms: C_22  and  N_11 
REMARK    5  A    between atoms: C_23  and  N_11 
ROOT
ATOM      1  C   UNL d   1      50.467  34.123  52.670  0.00  0.00     0.104 A 
ATOM      2  C   UNL d   1      51.805  33.182  52.855  0.00  0.00     0.036 A 
ATOM      3  C   UNL d   1      51.146  34.273  52.208  0.00  0.00     0.013 A 
ATOM      4  C   UNL d   1      50.461  33.511  53.215  0.00  0.00     0.013 A 
ATOM      5  C   UNL d   1      51.811  33.800  52.304  0.00  0.00     0.004 A 
ATOM      6  C   UNL d   1      51.130  33.041  53.308  0.00  0.00     0.004 A 
ENDROOT
BRANCH   2   7
ATOM      7  C   UNL d   1      52.473  32.709  52.950  0.00  0.00     0.171 A 
ATOM      8  N   UNL d   1      53.107  32.855  53.464  0.00  0.00    -0.269 N 
ATOM      9  C   UNL d   1      53.647  32.247  53.381  0.00  0.00     0.201 A 
ATOM     10  C   UNL d   1      53.393  33.383  54.023  0.00  0.00     0.073 A 
ATOM     11  N   UNL d   1      53.362  31.715  52.818  0.00  0.00    -0.121 NA
ATOM     12  S   UNL d   1      54.285  32.387  53.892  0.00  0.00    -0.047 SA
ATOM     13  N   UNL d   1      52.631  32.003  52.551  0.00  0.00    -0.128 NA
ATOM     14  C   UNL d   1      54.130  33.094  54.294  0.00  0.00     0.049 A 
ATOM     15  C   UNL d   1      54.553  33.509  54.862  0.00  0.00     0.008 A 
ATOM     16  C   UNL d   1      54.247  34.217  55.167  0.00  0.00     0.001 A 
ATOM     17  C   UNL d   1      53.523  34.507  54.905  0.00  0.00     0.002 A 
ATOM     18  C   UNL d   1      53.100  34.083  54.330  0.00  0.00     0.017 A 
ATOM     19  C   UNL d   1      52.370  34.375  54.066  0.00  0.00     0.002 C 
ENDBRANCH   2   7
BRANCH   1  20
ATOM     20  S   UNL d   1      49.791  34.599  52.577  0.00  0.00     0.271 S 
ATOM     21  O   UNL d   1      49.819  34.478  51.754  0.00  0.00    -0.200 OA
ATOM     22  O   UNL d   1      49.765  34.717  53.389  0.00  0.00    -0.200 OA
BRANCH  20  23
ATOM     23  N   UNL d   1      49.120  35.070  52.480  0.00  0.00    -0.229 N 
BRANCH  23  24
ATOM     24  C   UNL d   1      48.805  35.486  53.134  0.00  0.00     0.092 C 
ATOM     25  C   UNL d   1      48.293  36.117  53.012  0.00  0.00     0.021 C 
ENDBRANCH  23  24
BRANCH  23  26
ATOM     26  C   UNL d   1      48.760  35.131  51.741  0.00  0.00     0.092 C 
ATOM     27  C   UNL d   1      47.934  35.170  51.690  0.00  0.00     0.021 C 
ENDBRANCH  23  26
ENDBRANCH  20  23
ENDBRANCH   1  20
TORSDOF 5
ENDMDL
MODEL 2
REMARK VINA RESULT:      -9.4      0.914      1.850
REMARK  5 active torsions:
REMARK  status: ('A' for Active; 'I' for Inactive)
REMARK    1  A    between atoms: S_3  and  C_10 
REMARK    2  A    between atoms: N_11  and  S_3 
REMARK    3  A    between atoms: C_12  and  C_4 
REMARK    4  A    between atoms: C_22  and  N_11 
REMARK    5  A    between atoms: C_23  and  N_11 
ROOT
ATOM      1  C   UNL d   1      50.692  34.335  52.578  0.00  0.00     0.104 A 
ATOM      2  C   UNL d   1      52.102  34.004  53.360  0.00  0.00     0.036 A 
ATOM      3  C   UNL d   1      51.419  34.440  52.182  0.00  0.00     0.013 A 
ATOM      4  C   UNL d   1      50.674  34.068  53.353  0.00  0.00     0.013 A 
ATOM      5  C   UNL d   1      52.120  34.274  52.577  0.00  0.00     0.004 A 
ATOM      6  C   UNL d   1      51.379  33.903  53.744  0.00  0.00     0.004 A 
ENDROOT
BRANCH   2   7
ATOM      7  C   UNL d   1      52.806  33.838  53.755  0.00  0.00     0.171 A 
ATOM      8  N   UNL d   1      53.180  33.100  53.797  0.00  0.00    -0.269 N 
ATOM      9  C   UNL d   1      53.861  33.185  54.242  0.00  0.00     0.201 A 
ATOM     10  C   UNL d   1      53.121  32.317  53.559  0.00  0.00     0.073 A 
ATOM     11  N   UNL d   1      53.922  33.972  54.483  0.00  0.00    -0.121 NA
ATOM     12  S   UNL d   1      54.241  32.449  54.289  0.00  0.00    -0.047 SA
ATOM     13  N   UNL d   1      53.265  34.378  54.179  0.00  0.00    -0.128 NA
ATOM     14  C   UNL d   1      53.783  31.905  53.864  0.00  0.00     0.049 A 
ATOM     15  C   UNL d   1      53.876  31.104  53.716  0.00  0.00     0.008 A 
ATOM     16  C   UNL d   1      53.311  30.701  53.261  0.00  0.00     0.001 A 
ATOM     17  C   UNL d   1      52.658  31.099  52.957  0.00  0.00     0.002 A 
ATOM     18  C   UNL d   1      52.569  31.911  53.111  0.00  0.00     0.017 A 
ATOM     19  C   UNL d   1      51.911  32.312  52.805  0.00  0.00     0.002 C 
ENDBRANCH   2   7
BRANCH   1  20
ATOM     20  S   UNL d   1      49.978  34.502  52.183  0.00  0.00     0.271 S 
ATOM     21  O   UNL d   1      49.593  34.589  52.915  0.00  0.00    -0.200 OA
ATOM     22  O   UNL d   1      50.361  34.415  51.461  0.00  0.00    -0.200 OA
BRANCH  20  23
ATOM     23  N   UNL d   1      49.269  34.667  51.795  0.00  0.00    -0.229 N 
BRANCH  23  24
ATOM     24  C   UNL d   1      48.658  35.072  52.197  0.00  0.00     0.092 C 
ATOM     25  C   UNL d   1      48.159  35.579  51.785  0.00  0.00     0.021 C 
ENDBRANCH  23  24
BRANCH  23  26
ATOM     26  C   UNL d   1      49.163  34.435  51.010  0.00  0.00     0.092 C 
ATOM     27  C   UNL d   1      48.403  34.441  50.681  0.00  0.00     0.021 C 
ENDBRANCH  23  26
ENDBRANCH  20  23
ENDBRANCH   1  20
TORSDOF 5
ENDMDL
MODEL 3
REMARK VINA RESULT:      -7.5      1.335      4.893
REMARK  5 active torsions:
REMARK  status: ('A' for Active; 'I' for Inactive)
REMARK    1  A    between atoms: S_3  and  C_10 
REMARK    2  A    between atoms: N_11  and  S_3 
REMARK    3  A    between atoms: C_12  and  C_4 
REMARK    4  A    between atoms: C_22  and  N_11 
REMARK    5  A    between atoms: C_23  and  N_11 
ROOT
ATOM      1  C   UNL d   1      51.396  33.915  52.903  0.00  0.00     0.104 A 
ATOM      2  C   UNL d   1      50.030  34.282  52.060  0.00  0.00     0.036 A 
ATOM      3  C   UNL d   1      50.683  33.515  53.074  0.00  0.00     0.013 A 
ATOM      4  C   UNL d   1      51.421  34.489  52.318  0.00  0.00     0.013 A 
ATOM      5  C   UNL d   1      50.004  33.702  52.651  0.00  0.00     0.004 A 
ATOM      6  C   UNL d   1      50.738  34.673  51.897  0.00  0.00     0.004 A 
ENDROOT
BRANCH   2   7
ATOM      7  C   UNL d   1      49.348  34.469  51.636  0.00  0.00     0.171 A 
ATOM      8  N   UNL d   1      48.735  34.966  51.890  0.00  0.00    -0.269 N 
ATOM      9  C   UNL d   1      48.171  34.996  51.299  0.00  0.00     0.201 A 
ATOM     10  C   UNL d   1      48.486  35.439  52.512  0.00  0.00     0.073 A 
ATOM     11  N   UNL d   1      48.420  34.521  50.672  0.00  0.00    -0.121 NA
ATOM     12  S   UNL d   1      47.554  35.492  51.546  0.00  0.00    -0.047 SA
ATOM     13  N   UNL d   1      49.153  34.193  50.882  0.00  0.00    -0.128 NA
ATOM     14  C   UNL d   1      47.747  35.771  52.302  0.00  0.00     0.049 A 
ATOM     15  C   UNL d   1      47.357  36.273  52.820  0.00  0.00     0.008 A 
ATOM     16  C   UNL d   1      47.697  36.452  53.555  0.00  0.00     0.001 A 
ATOM     17  C   UNL d   1      48.423  36.130  53.769  0.00  0.00     0.002 A 
ATOM     18  C   UNL d   1      48.813  35.621  53.240  0.00  0.00     0.017 A 
ATOM     19  C   UNL d   1      49.546  35.296  53.455  0.00  0.00     0.002 C 
ENDBRANCH   2   7
BRANCH   1  20
ATOM     20  S   UNL d   1      52.086  33.729  53.328  0.00  0.00     0.271 S 
ATOM     21  O   UNL d   1      51.798  32.960  53.462  0.00  0.00    -0.200 OA
ATOM     22  O   UNL d   1      52.369  34.489  53.195  0.00  0.00    -0.200 OA
BRANCH  20  23
ATOM     23  N   UNL d   1      52.770  33.542  53.751  0.00  0.00    -0.229 N 
BRANCH  23  24
ATOM     24  C   UNL d   1      53.098  34.098  54.282  0.00  0.00     0.092 C 
ATOM     25  C   UNL d   1      53.453  33.844  54.978  0.00  0.00     0.021 C 
ENDBRANCH  23  24
BRANCH  23  26
ATOM     26  C   UNL d   1      53.130  32.806  53.650  0.00  0.00     0.092 C 
ATOM     27  C   UNL d   1      53.949  32.764  53.535  0.00  0.00     0.021 C 
ENDBRANCH  23  26
ENDBRANCH  20  23
ENDBRANCH   1  20
TORSDOF 5
ENDMDL
