MODEL 1
REMARK VINA RESULT:      -7.4      0.000      0.000
REMARK  5 active torsions:
REMARK  status: ('A' for Active; 'I' for Inactive)
REMARK    1  A    between atoms: N_2  and  S_1 
REMARK    2  A    between atoms: C_7  and  S_1 
REMARK    3  A    between atoms: C_3  and  N_2 
REMARK    4  A    between atoms: N_6  and  C_8 
REMARK    5  A    between atoms: C_9  and  N_6 
ROOT
ATOM      1  C   UNL d   1     -48.258  13.156  22.663  0.00  0.00     0.111 A 
ATOM      2  C   UNL d   1     -48.854  13.723  22.636  0.00  0.00     0.100 A 
ATOM      3  C   UNL d   1     -48.120  12.695  21.990  0.00  0.00     0.021 A 
ATOM      4  C   UNL d   1     -49.302  13.830  21.956  0.00  0.00     0.021 A 
ATOM      5  C   UNL d   1     -48.568  12.802  21.311  0.00  0.00     0.002 A 
ATOM      6  C   UNL d   1     -49.164  13.372  21.288  0.00  0.00     0.002 A 
ENDROOT
BRANCH   1   7
ATOM      7  N   UNL d   1     -47.810  13.049  23.342  0.00  0.00    -0.157 NA
BRANCH   7   8
ATOM      8  S   UNL d   1     -47.155  12.550  23.333  0.00  0.00     0.285 S 
ATOM      9  O   UNL d   1     -46.657  13.205  23.263  0.00  0.00    -0.198 OA
ATOM     10  O   UNL d   1     -47.666  11.884  23.405  0.00  0.00    -0.198 OA
BRANCH   8  11
ATOM     11  C   UNL d   1     -46.486  12.038  23.324  0.00  0.00     0.105 A 
ATOM     12  C   UNL d   1     -45.780  12.276  22.940  0.00  0.00     0.013 A 
ATOM     13  C   UNL d   1     -45.133  11.771  22.936  0.00  0.00     0.001 A 
ATOM     14  C   UNL d   1     -45.168  11.041  23.300  0.00  0.00     0.000 A 
ATOM     15  C   UNL d   1     -45.874  10.803  23.684  0.00  0.00     0.001 A 
ATOM     16  C   UNL d   1     -46.535  11.298  23.698  0.00  0.00     0.013 A 
ENDBRANCH   8  11
ENDBRANCH   7   8
ENDBRANCH   1   7
BRANCH   2  17
ATOM     17  N   UNL d   1     -48.994  14.195  23.330  0.00  0.00    -0.244 NA
BRANCH  17  18
ATOM     18  C   UNL d   1     -49.674  14.649  23.401  0.00  0.00     0.081 A 
ATOM     19  C   UNL d   1     -50.369  14.289  23.608  0.00  0.00     0.019 A 
ATOM     20  C   UNL d   1     -51.064  14.727  23.686  0.00  0.00     0.002 A 
ATOM     21  C   UNL d   1     -51.055  15.545  23.551  0.00  0.00     0.000 A 
ATOM     22  C   UNL d   1     -50.347  15.909  23.341  0.00  0.00     0.002 A 
ATOM     23  C   UNL d   1     -49.651  15.467  23.264  0.00  0.00     0.019 A 
ENDBRANCH  17  18
ENDBRANCH   2  17
TORSDOF 5
ENDMDL
MODEL 2
REMARK VINA RESULT:      -7.3      0.693      1.101
REMARK  5 active torsions:
REMARK  status: ('A' for Active; 'I' for Inactive)
REMARK    1  A    between atoms: N_2  and  S_1 
REMARK    2  A    between atoms: C_7  and  S_1 
REMARK    3  A    between atoms: C_3  and  N_2 
REMARK    4  A    between atoms: N_6  and  C_8 
REMARK    5  A    between atoms: C_9  and  N_6 
ROOT
ATOM      1  C   UNL d   1     -48.112  13.454  22.362  0.00  0.00     0.111 A 
ATOM      2  C   UNL d   1     -48.830  13.842  22.473  0.00  0.00     0.100 A 
ATOM      3  C   UNL d   1     -48.000  13.025  21.664  0.00  0.00     0.021 A 
ATOM      4  C   UNL d   1     -49.422  13.803  21.905  0.00  0.00     0.021 A 
ATOM      5  C   UNL d   1     -48.592  12.986  21.096  0.00  0.00     0.002 A 
ATOM      6  C   UNL d   1     -49.309  13.376  21.213  0.00  0.00     0.002 A 
ENDROOT
BRANCH   1   7
ATOM      7  N   UNL d   1     -47.521  13.493  22.929  0.00  0.00    -0.157 NA
BRANCH   7   8
ATOM      8  S   UNL d   1     -46.762  13.226  22.756  0.00  0.00     0.285 S 
ATOM      9  O   UNL d   1     -46.561  13.976  22.473  0.00  0.00    -0.198 OA
ATOM     10  O   UNL d   1     -46.969  12.462  23.044  0.00  0.00    -0.198 OA
BRANCH   8  11
ATOM     11  C   UNL d   1     -45.985  12.950  22.580  0.00  0.00     0.105 A 
ATOM     12  C   UNL d   1     -45.478  13.407  22.092  0.00  0.00     0.013 A 
ATOM     13  C   UNL d   1     -44.723  13.130  21.926  0.00  0.00     0.001 A 
ATOM     14  C   UNL d   1     -44.460  12.419  22.227  0.00  0.00     0.000 A 
ATOM     15  C   UNL d   1     -44.967  11.962  22.715  0.00  0.00     0.001 A 
ATOM     16  C   UNL d   1     -45.730  12.225  22.893  0.00  0.00     0.013 A 
ENDBRANCH   8  11
ENDBRANCH   7   8
ENDBRANCH   1   7
BRANCH   2  17
ATOM     17  N   UNL d   1     -48.942  14.283  23.192  0.00  0.00    -0.244 NA
BRANCH  17  18
ATOM     18  C   UNL d   1     -49.642  14.689  23.333  0.00  0.00     0.081 A 
ATOM     19  C   UNL d   1     -49.655  15.494  23.246  0.00  0.00     0.019 A 
ATOM     20  C   UNL d   1     -50.348  15.922  23.382  0.00  0.00     0.002 A 
ATOM     21  C   UNL d   1     -51.040  15.527  23.611  0.00  0.00     0.000 A 
ATOM     22  C   UNL d   1     -51.024  14.708  23.698  0.00  0.00     0.002 A 
ATOM     23  C   UNL d   1     -50.328  14.282  23.560  0.00  0.00     0.019 A 
ENDBRANCH  17  18
ENDBRANCH   2  17
TORSDOF 5
ENDMDL
MODEL 3
REMARK VINA RESULT:      -6.5      1.336      4.545
REMARK  5 active torsions:
REMARK  status: ('A' for Active; 'I' for Inactive)
REMARK    1  A    between atoms: N_2  and  S_1 
REMARK    2  A    between atoms: C_7  and  S_1 
REMARK    3  A    between atoms: C_3  and  N_2 
REMARK    4  A    between atoms: N_6  and  C_8 
REMARK    5  A    between atoms: C_9  and  N_6 
ROOT
ATOM      1  C   UNL d   1     -48.292  13.133  22.918  0.00  0.00     0.111 A 
ATOM      2  C   UNL d   1     -47.584  12.765  23.123  0.00  0.00     0.100 A 
ATOM      3  C   UNL d   1     -48.982  12.678  22.901  0.00  0.00     0.021 A 
ATOM      4  C   UNL d   1     -47.563  11.965  23.306  0.00  0.00     0.021 A 
ATOM      5  C   UNL d   1     -48.961  11.878  23.084  0.00  0.00     0.002 A 
ATOM      6  C   UNL d   1     -48.249  11.514  23.289  0.00  0.00     0.002 A 
ENDROOT
BRANCH   1   7
ATOM      7  N   UNL d   1     -48.313  13.932  22.736  0.00  0.00    -0.157 NA
BRANCH   7   8
ATOM      8  S   UNL d   1     -48.996  14.371  22.871  0.00  0.00     0.285 S 
ATOM      9  O   UNL d   1     -48.846  14.357  23.683  0.00  0.00    -0.198 OA
ATOM     10  O   UNL d   1     -49.147  14.384  22.042  0.00  0.00    -0.198 OA
BRANCH   8  11
ATOM     11  C   UNL d   1     -49.696  14.820  23.007  0.00  0.00     0.105 A 
ATOM     12  C   UNL d   1     -49.694  15.440  23.572  0.00  0.00     0.013 A 
ATOM     13  C   UNL d   1     -50.380  15.873  23.698  0.00  0.00     0.001 A 
ATOM     14  C   UNL d   1     -51.063  15.709  23.282  0.00  0.00     0.000 A 
ATOM     15  C   UNL d   1     -51.064  15.089  22.716  0.00  0.00     0.001 A 
ATOM     16  C   UNL d   1     -50.383  14.643  22.577  0.00  0.00     0.013 A 
ENDBRANCH   8  11
ENDBRANCH   7   8
ENDBRANCH   1   7
BRANCH   2  17
ATOM     17  N   UNL d   1     -46.876  13.236  23.140  0.00  0.00    -0.244 NA
BRANCH  17  18
ATOM     18  C   UNL d   1     -46.163  12.936  22.864  0.00  0.00     0.081 A 
ATOM     19  C   UNL d   1     -45.811  13.283  22.222  0.00  0.00     0.019 A 
ATOM     20  C   UNL d   1     -45.094  12.997  21.928  0.00  0.00     0.002 A 
ATOM     21  C   UNL d   1     -44.728  12.348  22.291  0.00  0.00     0.000 A 
ATOM     22  C   UNL d   1     -45.088  11.997  22.943  0.00  0.00     0.002 A 
ATOM     23  C   UNL d   1     -45.807  12.286  23.236  0.00  0.00     0.019 A 
ENDBRANCH  17  18
ENDBRANCH   2  17
TORSDOF 5
ENDMDL
MODEL 4
REMARK VINA RESULT:      -6.0      1.887      4.459
REMARK  5 active torsions:
REMARK  status: ('A' for Active; 'I' for Inactive)
REMARK    1  A    between atoms: N_2  and  S_1 
REMARK    2  A    between atoms: C_7  and  S_1 
REMARK    3  A    between atoms: C_3  and  N_2 
REMARK    4  A    between atoms: N_6  and  C_8 
REMARK    5  A    between atoms: C_9  and  N_6 
ROOT
ATOM      1  C   UNL d   1     -47.275  13.140  22.630  0.00  0.00     0.111 A 
ATOM      2  C   UNL d   1     -46.453  13.178  22.599  0.00  0.00     0.100 A 
ATOM      3  C   UNL d   1     -47.695  13.829  22.808  0.00  0.00     0.021 A 
ATOM      4  C   UNL d   1     -46.059  13.884  22.741  0.00  0.00     0.021 A 
ATOM      5  C   UNL d   1     -47.301  14.535  22.950  0.00  0.00     0.002 A 
ATOM      6  C   UNL d   1     -46.478  14.568  22.918  0.00  0.00     0.002 A 
ENDROOT
BRANCH   1   7
ATOM      7  N   UNL d   1     -47.669  12.434  22.488  0.00  0.00    -0.157 NA
BRANCH   7   8
ATOM      8  S   UNL d   1     -48.472  12.367  22.655  0.00  0.00     0.285 S 
ATOM      9  O   UNL d   1     -48.294  12.138  23.428  0.00  0.00    -0.198 OA
ATOM     10  O   UNL d   1     -48.651  12.600  21.865  0.00  0.00    -0.198 OA
BRANCH   8  11
ATOM     11  C   UNL d   1     -49.295  12.298  22.822  0.00  0.00     0.105 A 
ATOM     12  C   UNL d   1     -49.861  12.570  22.266  0.00  0.00     0.013 A 
ATOM     13  C   UNL d   1     -50.661  12.499  22.438  0.00  0.00     0.001 A 
ATOM     14  C   UNL d   1     -50.912  12.169  23.140  0.00  0.00     0.000 A 
ATOM     15  C   UNL d   1     -50.346  11.897  23.697  0.00  0.00     0.001 A 
ATOM     16  C   UNL d   1     -49.537  11.960  23.541  0.00  0.00     0.013 A 
ENDBRANCH   8  11
ENDBRANCH   7   8
ENDBRANCH   1   7
BRANCH   2  17
ATOM     17  N   UNL d   1     -46.024  12.467  22.415  0.00  0.00    -0.244 NA
BRANCH  17  18
ATOM     18  C   UNL d   1     -45.229  12.495  22.211  0.00  0.00     0.081 A 
ATOM     19  C   UNL d   1     -44.689  12.103  22.670  0.00  0.00     0.019 A 
ATOM     20  C   UNL d   1     -43.885  12.118  22.482  0.00  0.00     0.002 A 
ATOM     21  C   UNL d   1     -43.624  12.540  21.818  0.00  0.00     0.000 A 
ATOM     22  C   UNL d   1     -44.174  12.938  21.353  0.00  0.00     0.002 A 
ATOM     23  C   UNL d   1     -44.980  12.920  21.544  0.00  0.00     0.019 A 
ENDBRANCH  17  18
ENDBRANCH   2  17
TORSDOF 5
ENDMDL
MODEL 5
REMARK VINA RESULT:      -5.8      9.328     10.875
REMARK  5 active torsions:
REMARK  status: ('A' for Active; 'I' for Inactive)
REMARK    1  A    between atoms: N_2  and  S_1 
REMARK    2  A    between atoms: C_7  and  S_1 
REMARK    3  A    between atoms: C_3  and  N_2 
REMARK    4  A    between atoms: N_6  and  C_8 
REMARK    5  A    between atoms: C_9  and  N_6 
ROOT
ATOM      1  C   UNL d   1     -39.435  14.931  18.385  0.00  0.00     0.111 A 
ATOM      2  C   UNL d   1     -39.299  14.734  17.597  0.00  0.00     0.100 A 
ATOM      3  C   UNL d   1     -40.209  15.103  18.620  0.00  0.00     0.021 A 
ATOM      4  C   UNL d   1     -39.917  14.708  17.057  0.00  0.00     0.021 A 
ATOM      5  C   UNL d   1     -40.827  15.078  18.080  0.00  0.00     0.002 A 
ATOM      6  C   UNL d   1     -40.685  14.879  17.292  0.00  0.00     0.002 A 
ENDROOT
BRANCH   1   7
ATOM      7  N   UNL d   1     -38.818  14.957  18.924  0.00  0.00    -0.157 NA
BRANCH   7   8
ATOM      8  S   UNL d   1     -38.974  15.008  19.731  0.00  0.00     0.285 S 
ATOM      9  O   UNL d   1     -38.987  14.184  19.782  0.00  0.00    -0.198 OA
ATOM     10  O   UNL d   1     -38.961  15.849  19.676  0.00  0.00    -0.198 OA
BRANCH   8  11
ATOM     11  C   UNL d   1     -39.134  15.063  20.556  0.00  0.00     0.105 A 
ATOM     12  C   UNL d   1     -39.311  14.372  20.997  0.00  0.00     0.013 A 
ATOM     13  C   UNL d   1     -39.465  14.435  21.801  0.00  0.00     0.001 A 
ATOM     14  C   UNL d   1     -39.449  15.159  22.177  0.00  0.00     0.000 A 
ATOM     15  C   UNL d   1     -39.272  15.851  21.736  0.00  0.00     0.001 A 
ATOM     16  C   UNL d   1     -39.115  15.806  20.926  0.00  0.00     0.013 A 
ENDBRANCH   8  11
ENDBRANCH   7   8
ENDBRANCH   1   7
BRANCH   2  17
ATOM     17  N   UNL d   1     -38.502  14.558  17.358  0.00  0.00    -0.244 NA
BRANCH  17  18
ATOM     18  C   UNL d   1     -38.314  14.443  16.567  0.00  0.00     0.081 A 
ATOM     19  C   UNL d   1     -38.305  13.690  16.269  0.00  0.00     0.019 A 
ATOM     20  C   UNL d   1     -38.119  13.551  15.477  0.00  0.00     0.002 A 
ATOM     21  C   UNL d   1     -37.940  14.188  14.977  0.00  0.00     0.000 A 
ATOM     22  C   UNL d   1     -37.949  14.953  15.282  0.00  0.00     0.002 A 
ATOM     23  C   UNL d   1     -38.136  15.088  16.077  0.00  0.00     0.019 A 
ENDBRANCH  17  18
ENDBRANCH   2  17
TORSDOF 5
ENDMDL
MODEL 6
REMARK VINA RESULT:      -5.8      8.415      9.488
REMARK  5 active torsions:
REMARK  status: ('A' for Active; 'I' for Inactive)
REMARK    1  A    between atoms: N_2  and  S_1 
REMARK    2  A    between atoms: C_7  and  S_1 
REMARK    3  A    between atoms: C_3  and  N_2 
REMARK    4  A    between atoms: N_6  and  C_8 
REMARK    5  A    between atoms: C_9  and  N_6 
ROOT
ATOM      1  C   UNL d   1     -39.869  15.171  20.556  0.00  0.00     0.111 A 
ATOM      2  C   UNL d   1     -40.218  15.202  19.811  0.00  0.00     0.100 A 
ATOM      3  C   UNL d   1     -40.265  15.520  21.192  0.00  0.00     0.021 A 
ATOM      4  C   UNL d   1     -40.943  15.571  19.701  0.00  0.00     0.021 A 
ATOM      5  C   UNL d   1     -40.991  15.889  21.082  0.00  0.00     0.002 A 
ATOM      6  C   UNL d   1     -41.336  15.917  20.334  0.00  0.00     0.002 A 
ENDROOT
BRANCH   1   7
ATOM      7  N   UNL d   1     -39.145  14.802  20.665  0.00  0.00    -0.157 NA
BRANCH   7   8
ATOM      8  S   UNL d   1     -38.923  14.537  21.412  0.00  0.00     0.285 S 
ATOM      9  O   UNL d   1     -39.393  13.866  21.316  0.00  0.00    -0.198 OA
ATOM     10  O   UNL d   1     -38.443  15.224  21.508  0.00  0.00    -0.198 OA
BRANCH   8  11
ATOM     11  C   UNL d   1     -38.694  14.269  22.177  0.00  0.00     0.105 A 
ATOM     12  C   UNL d   1     -38.459  14.821  22.763  0.00  0.00     0.013 A 
ATOM     13  C   UNL d   1     -38.237  14.551  23.506  0.00  0.00     0.001 A 
ATOM     14  C   UNL d   1     -38.242  13.753  23.682  0.00  0.00     0.000 A 
ATOM     15  C   UNL d   1     -38.477  13.201  23.096  0.00  0.00     0.001 A 
ATOM     16  C   UNL d   1     -38.703  13.455  22.343  0.00  0.00     0.013 A 
ENDBRANCH   8  11
ENDBRANCH   7   8
ENDBRANCH   1   7
BRANCH   2  17
ATOM     17  N   UNL d   1     -39.808  14.842  19.158  0.00  0.00    -0.244 NA
BRANCH  17  18
ATOM     18  C   UNL d   1     -39.973  15.061  18.384  0.00  0.00     0.081 A 
ATOM     19  C   UNL d   1     -40.577  14.692  17.990  0.00  0.00     0.019 A 
ATOM     20  C   UNL d   1     -40.760  14.896  17.211  0.00  0.00     0.002 A 
ATOM     21  C   UNL d   1     -40.323  15.485  16.825  0.00  0.00     0.000 A 
ATOM     22  C   UNL d   1     -39.709  15.859  17.227  0.00  0.00     0.002 A 
ATOM     23  C   UNL d   1     -39.528  15.651  18.008  0.00  0.00     0.019 A 
ENDBRANCH  17  18
ENDBRANCH   2  17
TORSDOF 5
ENDMDL
