MODEL 1
REMARK VINA RESULT:      -5.3      0.000      0.000
REMARK  3 active torsions:
REMARK  status: ('A' for Active; 'I' for Inactive)
REMARK       I    between atoms: C_4  and  N_1 
REMARK    1  A    between atoms: C_2  and  S_8 
REMARK    2  A    between atoms: C_10  and  C_4 
REMARK    3  A    between atoms: S_8  and  C_10 
ROOT
ATOM      1  N   UNL d   1     -41.504-122.737 -53.197  0.00  0.00    -0.274 N 
ATOM      2  C   UNL d   1     -41.716-122.435 -53.937  0.00  0.00     0.067 A 
ATOM      3  C   UNL d   1     -41.634-122.371 -52.458  0.00  0.00     0.259 C 
ATOM      4  C   UNL d   1     -41.137-123.475 -53.314  0.00  0.00     0.083 A 
ATOM      5  C   UNL d   1     -41.483-122.978 -54.512  0.00  0.00     0.018 A 
ATOM      6  O   UNL d   1     -42.010-121.627 -52.415  0.00  0.00    -0.267 OA
ATOM      7  C   UNL d   1     -41.129-123.614 -54.125  0.00  0.00     0.021 A 
ATOM      8  C   UNL d   1     -42.090-121.735 -54.160  0.00  0.00     0.018 A 
ATOM      9  C   UNL d   1     -41.621-122.829 -55.305  0.00  0.00     0.002 A 
ATOM     10  C   UNL d   1     -42.233-121.575 -54.945  0.00  0.00     0.002 A 
ATOM     11  C   UNL d   1     -42.002-122.118 -55.532  0.00  0.00     0.000 A 
ENDROOT
BRANCH   3  12
ATOM     12  C   UNL d   1     -41.387-122.746 -51.754  0.00  0.00     0.127 C 
BRANCH  12  13
ATOM     13  S   UNL d   1     -41.594-122.429 -51.023  0.00  0.00    -0.069 SA
BRANCH  13  14
ATOM     14  C   UNL d   1     -41.547-122.901 -50.341  0.00  0.00     0.140 A 
ATOM     15  N   UNL d   1     -41.132-123.600 -50.165  0.00  0.00    -0.230 NA
ATOM     16  C   UNL d   1     -41.313-123.804 -49.385  0.00  0.00     0.107 A 
ATOM     17  C   UNL d   1     -41.827-123.252 -49.075  0.00  0.00     0.058 A 
ATOM     18  S   UNL d   1     -41.978-122.688 -49.660  0.00  0.00    -0.059 SA
ENDBRANCH  13  14
ENDBRANCH  12  13
ENDBRANCH   3  12
TORSDOF 3
ENDMDL
MODEL 2
REMARK VINA RESULT:      -5.3      1.639      4.377
REMARK  3 active torsions:
REMARK  status: ('A' for Active; 'I' for Inactive)
REMARK       I    between atoms: C_4  and  N_1 
REMARK    1  A    between atoms: C_2  and  S_8 
REMARK    2  A    between atoms: C_10  and  C_4 
REMARK    3  A    between atoms: S_8  and  C_10 
ROOT
ATOM      1  N   UNL d   1     -41.284-122.535 -51.920  0.00  0.00    -0.274 N 
ATOM      2  C   UNL d   1     -41.267-122.866 -51.163  0.00  0.00     0.067 A 
ATOM      3  C   UNL d   1     -41.361-122.952 -52.640  0.00  0.00     0.259 C 
ATOM      4  C   UNL d   1     -41.210-121.710 -51.845  0.00  0.00     0.083 A 
ATOM      5  C   UNL d   1     -41.183-122.253 -50.617  0.00  0.00     0.018 A 
ATOM      6  O   UNL d   1     -41.431-123.784 -52.642  0.00  0.00    -0.267 OA
ATOM      7  C   UNL d   1     -41.149-121.546 -51.040  0.00  0.00     0.021 A 
ATOM      8  C   UNL d   1     -41.316-123.646 -50.901  0.00  0.00     0.018 A 
ATOM      9  C   UNL d   1     -41.149-122.412 -49.815  0.00  0.00     0.002 A 
ATOM     10  C   UNL d   1     -41.284-123.817 -50.105  0.00  0.00     0.002 A 
ATOM     11  C   UNL d   1     -41.200-123.205 -49.548  0.00  0.00     0.000 A 
ENDROOT
BRANCH   3  12
ATOM     12  C   UNL d   1     -41.370-122.539 -53.366  0.00  0.00     0.127 C 
BRANCH  12  13
ATOM     13  S   UNL d   1     -41.639-122.911 -54.049  0.00  0.00    -0.069 SA
BRANCH  13  14
ATOM     14  C   UNL d   1     -41.764-122.466 -54.738  0.00  0.00     0.140 A 
ATOM     15  N   UNL d   1     -41.266-121.987 -55.201  0.00  0.00    -0.230 NA
ATOM     16  C   UNL d   1     -41.718-121.689 -55.824  0.00  0.00     0.107 A 
ATOM     17  C   UNL d   1     -42.482-121.969 -55.759  0.00  0.00     0.058 A 
ATOM     18  S   UNL d   1     -42.521-122.451 -55.090  0.00  0.00    -0.059 SA
ENDBRANCH  13  14
ENDBRANCH  12  13
ENDBRANCH   3  12
TORSDOF 3
ENDMDL
MODEL 3
REMARK VINA RESULT:      -4.5      1.358      4.561
REMARK  3 active torsions:
REMARK  status: ('A' for Active; 'I' for Inactive)
REMARK       I    between atoms: C_4  and  N_1 
REMARK    1  A    between atoms: C_2  and  S_8 
REMARK    2  A    between atoms: C_10  and  C_4 
REMARK    3  A    between atoms: S_8  and  C_10 
ROOT
ATOM      1  N   UNL d   1     -42.124-122.794 -50.710  0.00  0.00    -0.274 N 
ATOM      2  C   UNL d   1     -42.057-123.072 -49.934  0.00  0.00     0.067 A 
ATOM      3  C   UNL d   1     -41.690-123.063 -51.371  0.00  0.00     0.259 C 
ATOM      4  C   UNL d   1     -42.702-122.195 -50.722  0.00  0.00     0.083 A 
ATOM      5  C   UNL d   1     -42.588-122.651 -49.464  0.00  0.00     0.018 A 
ATOM      6  O   UNL d   1     -41.123-123.670 -51.286  0.00  0.00    -0.267 OA
ATOM      7  C   UNL d   1     -42.981-122.115 -49.952  0.00  0.00     0.021 A 
ATOM      8  C   UNL d   1     -41.580-123.653 -49.597  0.00  0.00     0.018 A 
ATOM      9  C   UNL d   1     -42.648-122.806 -48.663  0.00  0.00     0.002 A 
ATOM     10  C   UNL d   1     -41.630-123.817 -48.800  0.00  0.00     0.002 A 
ATOM     11  C   UNL d   1     -42.163-123.397 -48.319  0.00  0.00     0.000 A 
ENDROOT
BRANCH   3  12
ATOM     12  C   UNL d   1     -41.819-122.727 -52.125  0.00  0.00     0.127 C 
BRANCH  12  13
ATOM     13  S   UNL d   1     -41.337-122.936 -52.758  0.00  0.00    -0.069 SA
BRANCH  13  14
ATOM     14  C   UNL d   1     -41.518-122.663 -53.521  0.00  0.00     0.140 A 
ATOM     15  N   UNL d   1     -41.781-121.929 -53.812  0.00  0.00    -0.230 NA
ATOM     16  C   UNL d   1     -41.863-122.002 -54.630  0.00  0.00     0.107 A 
ATOM     17  C   UNL d   1     -41.659-122.761 -54.853  0.00  0.00     0.058 A 
ATOM     18  S   UNL d   1     -41.444-123.177 -54.173  0.00  0.00    -0.059 SA
ENDBRANCH  13  14
ENDBRANCH  12  13
ENDBRANCH   3  12
TORSDOF 3
ENDMDL
