MODEL 1
REMARK VINA RESULT:      -8.1      0.000      0.000
REMARK  1 active torsions:
REMARK  status: ('A' for Active; 'I' for Inactive)
REMARK    1  A    between atoms: C_10  and  N_2 
ROOT
ATOM      1  C   UNL d   1     -47.762  12.387  23.327  0.00  0.00     0.174 A 
ATOM      2  N   UNL d   1     -48.362  13.637  22.995  0.00  0.00    -0.224 N 
ATOM      3  C   UNL d   1     -48.429  12.861  23.258  0.00  0.00     0.292 A 
ATOM      4  C   UNL d   1     -47.026  12.684  23.134  0.00  0.00     0.115 A 
ATOM      5  C   UNL d   1     -47.628  13.940  22.801  0.00  0.00     0.356 A 
ATOM      6  N   UNL d   1     -46.959  13.460  22.871  0.00  0.00    -0.190 NA
ATOM      7  O   UNL d   1     -47.666  11.600  23.572  0.00  0.00    -0.301 OA
ATOM      8  C   UNL d   1     -46.465  12.086  23.257  0.00  0.00     0.043 A 
ATOM      9  C   UNL d   1     -46.861  11.415  23.528  0.00  0.00     0.102 A 
ATOM     10  O   UNL d   1     -49.188  12.558  23.455  0.00  0.00    -0.264 OA
ATOM     11  O   UNL d   1     -47.555  14.727  22.534  0.00  0.00    -0.244 OA
ATOM     12  C   UNL d   1     -45.656  12.075  23.156  0.00  0.00     0.004 A 
ATOM     13  C   UNL d   1     -46.447  10.733  23.698  0.00  0.00     0.025 A 
ATOM     14  C   UNL d   1     -45.227  11.384  23.327  0.00  0.00     0.000 A 
ATOM     15  C   UNL d   1     -45.623  10.713  23.598  0.00  0.00     0.002 A 
ENDROOT
BRANCH   2  16
ATOM     16  C   UNL d   1     -49.037  14.115  22.926  0.00  0.00     0.071 A 
ATOM     17  C   UNL d   1     -49.232  14.647  23.523  0.00  0.00     0.018 A 
ATOM     18  C   UNL d   1     -49.903  15.119  23.451  0.00  0.00     0.002 A 
ATOM     19  C   UNL d   1     -50.379  15.058  22.781  0.00  0.00     0.000 A 
ATOM     20  C   UNL d   1     -50.191  14.530  22.183  0.00  0.00     0.002 A 
ATOM     21  C   UNL d   1     -51.054  15.533  22.708  0.00  0.00     0.000 C 
ATOM     22  C   UNL d   1     -49.515  14.056  22.258  0.00  0.00     0.018 A 
ENDBRANCH   2  16
TORSDOF 1
ENDMDL
MODEL 2
REMARK VINA RESULT:      -7.8      1.187      4.346
REMARK  1 active torsions:
REMARK  status: ('A' for Active; 'I' for Inactive)
REMARK    1  A    between atoms: C_10  and  N_2 
ROOT
ATOM      1  C   UNL d   1     -48.439  14.599  22.973  0.00  0.00     0.174 A 
ATOM      2  N   UNL d   1     -47.478  13.567  22.762  0.00  0.00    -0.224 N 
ATOM      3  C   UNL d   1     -47.677  14.364  22.774  0.00  0.00     0.292 A 
ATOM      4  C   UNL d   1     -49.004  14.041  23.161  0.00  0.00     0.115 A 
ATOM      5  C   UNL d   1     -48.040  13.004  22.949  0.00  0.00     0.356 A 
ATOM      6  N   UNL d   1     -48.805  13.243  23.149  0.00  0.00    -0.190 NA
ATOM      7  O   UNL d   1     -48.789  15.350  23.029  0.00  0.00    -0.301 OA
ATOM      8  C   UNL d   1     -49.711  14.438  23.335  0.00  0.00     0.043 A 
ATOM      9  C   UNL d   1     -49.577  15.248  23.254  0.00  0.00     0.102 A 
ATOM     10  O   UNL d   1     -47.093  14.936  22.580  0.00  0.00    -0.264 OA
ATOM     11  O   UNL d   1     -47.843  12.193  22.939  0.00  0.00    -0.244 OA
ATOM     12  C   UNL d   1     -50.446  14.160  23.555  0.00  0.00     0.004 A 
ATOM     13  C   UNL d   1     -50.180  15.780  23.392  0.00  0.00     0.025 A 
ATOM     14  C   UNL d   1     -51.064  14.697  23.697  0.00  0.00     0.000 A 
ATOM     15  C   UNL d   1     -50.931  15.507  23.616  0.00  0.00     0.002 A 
ENDROOT
BRANCH   2  16
ATOM     16  C   UNL d   1     -46.708  13.331  22.561  0.00  0.00     0.071 A 
ATOM     17  C   UNL d   1     -46.156  13.173  23.150  0.00  0.00     0.018 A 
ATOM     18  C   UNL d   1     -45.392  12.940  22.947  0.00  0.00     0.002 A 
ATOM     19  C   UNL d   1     -45.183  12.865  22.153  0.00  0.00     0.000 A 
ATOM     20  C   UNL d   1     -45.729  13.020  21.561  0.00  0.00     0.002 A 
ATOM     21  C   UNL d   1     -44.415  12.630  21.948  0.00  0.00     0.000 C 
ATOM     22  C   UNL d   1     -46.496  13.255  21.769  0.00  0.00     0.018 A 
ENDBRANCH   2  16
TORSDOF 1
ENDMDL
MODEL 3
REMARK VINA RESULT:      -7.8      0.791      4.244
REMARK  1 active torsions:
REMARK  status: ('A' for Active; 'I' for Inactive)
REMARK    1  A    between atoms: C_10  and  N_2 
ROOT
ATOM      1  C   UNL d   1     -48.427  13.199  22.689  0.00  0.00     0.174 A 
ATOM      2  N   UNL d   1     -47.112  12.826  23.097  0.00  0.00    -0.224 N 
ATOM      3  C   UNL d   1     -47.838  12.630  22.765  0.00  0.00     0.292 A 
ATOM      4  C   UNL d   1     -48.294  13.963  22.944  0.00  0.00     0.115 A 
ATOM      5  C   UNL d   1     -46.973  13.589  23.354  0.00  0.00     0.356 A 
ATOM      6  N   UNL d   1     -47.567  14.158  23.276  0.00  0.00    -0.190 NA
ATOM      7  O   UNL d   1     -49.197  13.160  22.382  0.00  0.00    -0.301 OA
ATOM      8  C   UNL d   1     -48.978  14.407  22.799  0.00  0.00     0.043 A 
ATOM      9  C   UNL d   1     -49.538  13.910  22.451  0.00  0.00     0.102 A 
ATOM     10  O   UNL d   1     -47.972  11.843  22.504  0.00  0.00    -0.264 OA
ATOM     11  O   UNL d   1     -46.238  13.792  23.691  0.00  0.00    -0.244 OA
ATOM     12  C   UNL d   1     -49.154  15.191  22.940  0.00  0.00     0.004 A 
ATOM     13  C   UNL d   1     -50.272  14.197  22.244  0.00  0.00     0.025 A 
ATOM     14  C   UNL d   1     -49.901  15.491  22.732  0.00  0.00     0.000 A 
ATOM     15  C   UNL d   1     -50.460  14.994  22.384  0.00  0.00     0.002 A 
ENDROOT
BRANCH   2  16
ATOM     16  C   UNL d   1     -46.519  12.251  23.172  0.00  0.00     0.071 A 
ATOM     17  C   UNL d   1     -46.650  11.577  23.625  0.00  0.00     0.018 A 
ATOM     18  C   UNL d   1     -46.059  11.007  23.698  0.00  0.00     0.002 A 
ATOM     19  C   UNL d   1     -45.336  11.114  23.316  0.00  0.00     0.000 A 
ATOM     20  C   UNL d   1     -45.199  11.783  22.863  0.00  0.00     0.002 A 
ATOM     21  C   UNL d   1     -44.741  10.542  23.389  0.00  0.00     0.000 C 
ATOM     22  C   UNL d   1     -45.796  12.354  22.792  0.00  0.00     0.018 A 
ENDBRANCH   2  16
TORSDOF 1
ENDMDL
MODEL 4
REMARK VINA RESULT:      -7.2      8.699     10.547
REMARK  1 active torsions:
REMARK  status: ('A' for Active; 'I' for Inactive)
REMARK    1  A    between atoms: C_10  and  N_2 
ROOT
ATOM      1  C   UNL d   1     -39.224  15.135  19.250  0.00  0.00     0.174 A 
ATOM      2  N   UNL d   1     -39.339  14.580  17.941  0.00  0.00    -0.224 N 
ATOM      3  C   UNL d   1     -38.880  14.910  18.538  0.00  0.00     0.292 A 
ATOM      4  C   UNL d   1     -40.025  15.032  19.368  0.00  0.00     0.115 A 
ATOM      5  C   UNL d   1     -40.141  14.474  18.054  0.00  0.00     0.356 A 
ATOM      6  N   UNL d   1     -40.484  14.702  18.771  0.00  0.00    -0.190 NA
ATOM      7  O   UNL d   1     -38.904  15.475  19.935  0.00  0.00    -0.301 OA
ATOM      8  C   UNL d   1     -40.212  15.306  20.128  0.00  0.00     0.043 A 
ATOM      9  C   UNL d   1     -39.518  15.581  20.479  0.00  0.00     0.102 A 
ATOM     10  O   UNL d   1     -38.056  15.015  18.413  0.00  0.00    -0.264 OA
ATOM     11  O   UNL d   1     -40.611  14.140  17.451  0.00  0.00    -0.244 OA
ATOM     12  C   UNL d   1     -40.920  15.338  20.533  0.00  0.00     0.004 A 
ATOM     13  C   UNL d   1     -39.531  15.886  21.235  0.00  0.00     0.025 A 
ATOM     14  C   UNL d   1     -40.941  15.648  21.303  0.00  0.00     0.000 A 
ATOM     15  C   UNL d   1     -40.247  15.922  21.655  0.00  0.00     0.002 A 
ENDROOT
BRANCH   2  16
ATOM     16  C   UNL d   1     -38.990  14.353  17.223  0.00  0.00     0.071 A 
ATOM     17  C   UNL d   1     -39.003  14.862  16.577  0.00  0.00     0.018 A 
ATOM     18  C   UNL d   1     -38.655  14.634  15.865  0.00  0.00     0.002 A 
ATOM     19  C   UNL d   1     -38.294  13.895  15.803  0.00  0.00     0.000 A 
ATOM     20  C   UNL d   1     -38.277  13.384  16.443  0.00  0.00     0.002 A 
ATOM     21  C   UNL d   1     -37.944  13.665  15.088  0.00  0.00     0.000 C 
ATOM     22  C   UNL d   1     -38.628  13.617  17.158  0.00  0.00     0.018 A 
ENDBRANCH   2  16
TORSDOF 1
ENDMDL
MODEL 5
REMARK VINA RESULT:      -6.8      8.609      9.295
REMARK  1 active torsions:
REMARK  status: ('A' for Active; 'I' for Inactive)
REMARK    1  A    between atoms: C_10  and  N_2 
ROOT
ATOM      1  C   UNL d   1     -38.992  13.956  20.527  0.00  0.00     0.174 A 
ATOM      2  N   UNL d   1     -39.872  14.711  19.697  0.00  0.00    -0.224 N 
ATOM      3  C   UNL d   1     -39.232  14.203  19.781  0.00  0.00     0.292 A 
ATOM      4  C   UNL d   1     -39.390  14.215  21.191  0.00  0.00     0.115 A 
ATOM      5  C   UNL d   1     -40.274  14.973  20.358  0.00  0.00     0.356 A 
ATOM      6  N   UNL d   1     -40.031  14.723  21.107  0.00  0.00    -0.190 NA
ATOM      7  O   UNL d   1     -38.378  13.455  20.773  0.00  0.00    -0.301 OA
ATOM      8  C   UNL d   1     -39.028  13.878  21.857  0.00  0.00     0.043 A 
ATOM      9  C   UNL d   1     -38.401  13.408  21.598  0.00  0.00     0.102 A 
ATOM     10  O   UNL d   1     -38.825  13.939  19.095  0.00  0.00    -0.264 OA
ATOM     11  O   UNL d   1     -40.924  15.489  20.279  0.00  0.00    -0.244 OA
ATOM     12  C   UNL d   1     -39.193  13.944  22.653  0.00  0.00     0.004 A 
ATOM     13  C   UNL d   1     -37.940  13.004  22.135  0.00  0.00     0.025 A 
ATOM     14  C   UNL d   1     -38.727  13.535  23.207  0.00  0.00     0.000 A 
ATOM     15  C   UNL d   1     -38.101  13.065  22.948  0.00  0.00     0.002 A 
ENDROOT
BRANCH   2  16
ATOM     16  C   UNL d   1     -40.112  14.960  18.943  0.00  0.00     0.071 A 
ATOM     17  C   UNL d   1     -39.850  15.678  18.639  0.00  0.00     0.018 A 
ATOM     18  C   UNL d   1     -40.091  15.922  17.890  0.00  0.00     0.002 A 
ATOM     19  C   UNL d   1     -40.594  15.444  17.445  0.00  0.00     0.000 A 
ATOM     20  C   UNL d   1     -40.859  14.727  17.741  0.00  0.00     0.002 A 
ATOM     21  C   UNL d   1     -40.836  15.689  16.691  0.00  0.00     0.000 C 
ATOM     22  C   UNL d   1     -40.615  14.485  18.495  0.00  0.00     0.018 A 
ENDBRANCH   2  16
TORSDOF 1
ENDMDL
MODEL 6
REMARK VINA RESULT:      -6.7      8.400      9.663
REMARK  1 active torsions:
REMARK  status: ('A' for Active; 'I' for Inactive)
REMARK    1  A    between atoms: C_10  and  N_2 
ROOT
ATOM      1  C   UNL d   1     -39.817  14.884  18.974  0.00  0.00     0.174 A 
ATOM      2  N   UNL d   1     -39.865  14.905  20.399  0.00  0.00    -0.224 N 
ATOM      3  C   UNL d   1     -39.502  14.666  19.701  0.00  0.00     0.292 A 
ATOM      4  C   UNL d   1     -40.493  15.340  18.940  0.00  0.00     0.115 A 
ATOM      5  C   UNL d   1     -40.542  15.362  20.371  0.00  0.00     0.356 A 
ATOM      6  N   UNL d   1     -40.856  15.579  19.638  0.00  0.00    -0.190 NA
ATOM      7  O   UNL d   1     -39.573  14.726  18.197  0.00  0.00    -0.301 OA
ATOM      8  C   UNL d   1     -40.677  15.471  18.143  0.00  0.00     0.043 A 
ATOM      9  C   UNL d   1     -40.107  15.090  17.682  0.00  0.00     0.102 A 
ATOM     10  O   UNL d   1     -38.807  14.196  19.740  0.00  0.00    -0.264 OA
ATOM     11  O   UNL d   1     -40.914  15.607  21.076  0.00  0.00    -0.244 OA
ATOM     12  C   UNL d   1     -41.285  15.884  17.789  0.00  0.00     0.004 A 
ATOM     13  C   UNL d   1     -40.146  15.123  16.868  0.00  0.00     0.025 A 
ATOM     14  C   UNL d   1     -41.331  15.922  16.960  0.00  0.00     0.000 A 
ATOM     15  C   UNL d   1     -40.762  15.542  16.500  0.00  0.00     0.002 A 
ENDROOT
BRANCH   2  16
ATOM     16  C   UNL d   1     -39.546  14.684  21.133  0.00  0.00     0.071 A 
ATOM     17  C   UNL d   1     -39.029  15.186  21.529  0.00  0.00     0.018 A 
ATOM     18  C   UNL d   1     -38.714  14.964  22.257  0.00  0.00     0.002 A 
ATOM     19  C   UNL d   1     -38.918  14.237  22.587  0.00  0.00     0.000 A 
ATOM     20  C   UNL d   1     -39.433  13.731  22.198  0.00  0.00     0.002 A 
ATOM     21  C   UNL d   1     -38.602  14.012  23.320  0.00  0.00     0.000 C 
ATOM     22  C   UNL d   1     -39.748  13.958  21.466  0.00  0.00     0.018 A 
ENDBRANCH   2  16
TORSDOF 1
ENDMDL
