MODEL 1
REMARK VINA RESULT:      -4.9      0.000      0.000
REMARK  2 active torsions:
REMARK  status: ('A' for Active; 'I' for Inactive)
REMARK    1  A    between atoms: C_6  and  C_1 
REMARK    2  A    between atoms: C_8  and  C_5 
ROOT
ATOM      1  C   UNL d   1      56.625  -0.744  32.005  0.00  0.00     0.169 A 
ATOM      2  C   UNL d   1      56.371  -0.067  32.414  0.00  0.00     0.048 A 
ATOM      3  N   UNL d   1      55.976  -1.136  33.098  0.00  0.00    -0.148 NA
ATOM      4  N   UNL d   1      56.379  -1.410  32.431  0.00  0.00    -0.142 NA
ATOM      5  C   UNL d   1      55.977  -0.307  33.078  0.00  0.00     0.105 A 
ENDROOT
BRANCH   1   6
ATOM      6  C   UNL d   1      57.048  -0.756  31.297  0.00  0.00     0.231 C 
ATOM      7  O   UNL d   1      57.262  -0.051  30.927  0.00  0.00    -0.643 OA
ATOM      8  O   UNL d   1      57.259  -1.481  30.958  0.00  0.00    -0.643 OA
ENDBRANCH   1   6
BRANCH   5   9
ATOM      9  C   UNL d   1      55.634   0.192  33.641  0.00  0.00     0.019 C 
ATOM     10  C   UNL d   1      54.821   0.264  33.685  0.00  0.00     0.002 C 
ATOM     11  C   UNL d   1      56.113   0.615  34.157  0.00  0.00     0.002 C 
ENDBRANCH   5   9
TORSDOF 2
ENDMDL
MODEL 2
REMARK VINA RESULT:      -4.5      2.014      2.785
REMARK  2 active torsions:
REMARK  status: ('A' for Active; 'I' for Inactive)
REMARK    1  A    between atoms: C_6  and  C_1 
REMARK    2  A    between atoms: C_8  and  C_5 
ROOT
ATOM      1  C   UNL d   1      55.488   0.040  33.550  0.00  0.00     0.169 A 
ATOM      2  C   UNL d   1      56.020   0.348  32.992  0.00  0.00     0.048 A 
ATOM      3  N   UNL d   1      55.924  -0.963  32.792  0.00  0.00    -0.148 NA
ATOM      4  N   UNL d   1      55.429  -0.777  33.426  0.00  0.00    -0.142 NA
ATOM      5  C   UNL d   1      56.284  -0.263  32.532  0.00  0.00     0.105 A 
ENDROOT
BRANCH   1   6
ATOM      6  C   UNL d   1      55.086   0.467  34.129  0.00  0.00     0.231 C 
ATOM      7  O   UNL d   1      54.298   0.682  34.017  0.00  0.00    -0.643 OA
ATOM      8  O   UNL d   1      55.478   0.682  34.826  0.00  0.00    -0.643 OA
ENDBRANCH   1   6
BRANCH   5   9
ATOM      9  C   UNL d   1      56.823  -0.197  31.907  0.00  0.00     0.019 C 
ATOM     10  C   UNL d   1      57.010  -0.852  31.456  0.00  0.00     0.002 C 
ATOM     11  C   UNL d   1      57.169   0.530  31.743  0.00  0.00     0.002 C 
ENDBRANCH   5   9
TORSDOF 2
ENDMDL
MODEL 3
REMARK VINA RESULT:      -4.2      1.620      2.549
REMARK  2 active torsions:
REMARK  status: ('A' for Active; 'I' for Inactive)
REMARK    1  A    between atoms: C_6  and  C_1 
REMARK    2  A    between atoms: C_8  and  C_5 
ROOT
ATOM      1  C   UNL d   1      56.366  -0.749  32.345  0.00  0.00     0.169 A 
ATOM      2  C   UNL d   1      56.710  -0.028  32.116  0.00  0.00     0.048 A 
ATOM      3  N   UNL d   1      57.140  -0.975  31.288  0.00  0.00    -0.148 NA
ATOM      4  N   UNL d   1      56.634  -1.338  31.829  0.00  0.00    -0.142 NA
ATOM      5  C   UNL d   1      57.181  -0.168  31.473  0.00  0.00     0.105 A 
ENDROOT
BRANCH   1   6
ATOM      6  C   UNL d   1      55.847  -0.862  32.976  0.00  0.00     0.231 C 
ATOM      7  O   UNL d   1      55.434  -0.223  33.295  0.00  0.00    -0.643 OA
ATOM      8  O   UNL d   1      55.741  -1.621  33.288  0.00  0.00    -0.643 OA
ENDBRANCH   1   6
BRANCH   5   9
ATOM      9  C   UNL d   1      57.626   0.401  31.069  0.00  0.00     0.019 C 
ATOM     10  C   UNL d   1      57.374   0.682  30.344  0.00  0.00     0.002 C 
ATOM     11  C   UNL d   1      58.323   0.682  31.401  0.00  0.00     0.002 C 
ENDBRANCH   5   9
TORSDOF 2
ENDMDL
MODEL 4
REMARK VINA RESULT:      -4.1      0.891      1.271
REMARK  2 active torsions:
REMARK  status: ('A' for Active; 'I' for Inactive)
REMARK    1  A    between atoms: C_6  and  C_1 
REMARK    2  A    between atoms: C_8  and  C_5 
ROOT
ATOM      1  C   UNL d   1      56.566  -0.420  32.621  0.00  0.00     0.169 A 
ATOM      2  C   UNL d   1      55.804  -0.274  32.916  0.00  0.00     0.048 A 
ATOM      3  N   UNL d   1      56.684   0.249  33.764  0.00  0.00    -0.148 NA
ATOM      4  N   UNL d   1      57.114  -0.094  33.149  0.00  0.00    -0.142 NA
ATOM      5  C   UNL d   1      55.877   0.133  33.611  0.00  0.00     0.105 A 
ENDROOT
BRANCH   1   6
ATOM      6  C   UNL d   1      56.751  -0.820  31.924  0.00  0.00     0.231 C 
ATOM      7  O   UNL d   1      56.496  -1.596  31.809  0.00  0.00    -0.643 OA
ATOM      8  O   UNL d   1      57.195  -0.440  31.338  0.00  0.00    -0.643 OA
ENDBRANCH   1   6
BRANCH   5   9
ATOM      9  C   UNL d   1      55.251   0.390  34.087  0.00  0.00     0.019 C 
ATOM     10  C   UNL d   1      55.395   0.662  34.844  0.00  0.00     0.002 C 
ATOM     11  C   UNL d   1      54.483   0.370  33.795  0.00  0.00     0.002 C 
ENDBRANCH   5   9
TORSDOF 2
ENDMDL
MODEL 5
REMARK VINA RESULT:      -3.7      8.575      9.021
REMARK  2 active torsions:
REMARK  status: ('A' for Active; 'I' for Inactive)
REMARK    1  A    between atoms: C_6  and  C_1 
REMARK    2  A    between atoms: C_8  and  C_5 
ROOT
ATOM      1  C   UNL d   1      60.173  -6.987  36.006  0.00  0.00     0.169 A 
ATOM      2  C   UNL d   1      59.610  -7.538  35.743  0.00  0.00     0.048 A 
ATOM      3  N   UNL d   1      60.634  -8.208  36.262  0.00  0.00    -0.148 NA
ATOM      4  N   UNL d   1      60.811  -7.405  36.330  0.00  0.00    -0.142 NA
ATOM      5  C   UNL d   1      59.892  -8.280  35.899  0.00  0.00     0.105 A 
ENDROOT
BRANCH   1   6
ATOM      6  C   UNL d   1      60.113  -6.166  35.957  0.00  0.00     0.231 C 
ATOM      7  O   UNL d   1      59.466  -5.818  35.581  0.00  0.00    -0.643 OA
ATOM      8  O   UNL d   1      60.705  -5.690  36.286  0.00  0.00    -0.643 OA
ENDBRANCH   1   6
BRANCH   5   9
ATOM      9  C   UNL d   1      59.503  -8.989  35.725  0.00  0.00     0.019 C 
ATOM     10  C   UNL d   1      59.258  -9.482  36.329  0.00  0.00     0.002 C 
ATOM     11  C   UNL d   1      59.364  -9.196  34.942  0.00  0.00     0.002 C 
ENDBRANCH   5   9
TORSDOF 2
ENDMDL
MODEL 6
REMARK VINA RESULT:      -3.5      1.791      3.069
REMARK  2 active torsions:
REMARK  status: ('A' for Active; 'I' for Inactive)
REMARK    1  A    between atoms: C_6  and  C_1 
REMARK    2  A    between atoms: C_8  and  C_5 
ROOT
ATOM      1  C   UNL d   1      57.068  -0.660  31.529  0.00  0.00     0.169 A 
ATOM      2  C   UNL d   1      57.396   0.044  31.235  0.00  0.00     0.048 A 
ATOM      3  N   UNL d   1      57.734  -0.945  30.414  0.00  0.00    -0.148 NA
ATOM      4  N   UNL d   1      57.278  -1.276  31.017  0.00  0.00    -0.142 NA
ATOM      5  C   UNL d   1      57.801  -0.131  30.557  0.00  0.00     0.105 A 
ENDROOT
BRANCH   1   6
ATOM      6  C   UNL d   1      56.611  -0.738  32.211  0.00  0.00     0.231 C 
ATOM      7  O   UNL d   1      56.362  -0.068  32.624  0.00  0.00    -0.643 OA
ATOM      8  O   UNL d   1      56.401  -1.491  32.481  0.00  0.00    -0.643 OA
ENDBRANCH   1   6
BRANCH   5   9
ATOM      9  C   UNL d   1      58.212   0.412  30.087  0.00  0.00     0.019 C 
ATOM     10  C   UNL d   1      57.885   0.682  29.389  0.00  0.00     0.002 C 
ATOM     11  C   UNL d   1      58.951   0.680  30.326  0.00  0.00     0.002 C 
ENDBRANCH   5   9
TORSDOF 2
ENDMDL
MODEL 7
REMARK VINA RESULT:      -3.3      8.880      9.323
REMARK  2 active torsions:
REMARK  status: ('A' for Active; 'I' for Inactive)
REMARK    1  A    between atoms: C_6  and  C_1 
REMARK    2  A    between atoms: C_8  and  C_5 
ROOT
ATOM      1  C   UNL d   1      60.174  -9.000  33.928  0.00  0.00     0.169 A 
ATOM      2  C   UNL d   1      59.608  -8.869  34.522  0.00  0.00     0.048 A 
ATOM      3  N   UNL d   1      60.701  -8.178  34.831  0.00  0.00    -0.148 NA
ATOM      4  N   UNL d   1      60.855  -8.570  34.122  0.00  0.00    -0.142 NA
ATOM      5  C   UNL d   1      59.930  -8.368  35.070  0.00  0.00     0.105 A 
ENDROOT
BRANCH   1   6
ATOM      6  C   UNL d   1      60.080  -9.475  33.261  0.00  0.00     0.231 C 
ATOM      7  O   UNL d   1      60.737  -9.818  32.898  0.00  0.00    -0.643 OA
ATOM      8  O   UNL d   1      59.323  -9.609  32.956  0.00  0.00    -0.643 OA
ENDBRANCH   1   6
BRANCH   5   9
ATOM      9  C   UNL d   1      59.551  -8.095  35.753  0.00  0.00     0.019 C 
ATOM     10  C   UNL d   1      59.311  -8.622  36.329  0.00  0.00     0.002 C 
ATOM     11  C   UNL d   1      59.417  -7.289  35.849  0.00  0.00     0.002 C 
ENDBRANCH   5   9
TORSDOF 2
ENDMDL
MODEL 8
REMARK VINA RESULT:      -2.7      4.353      5.032
REMARK  2 active torsions:
REMARK  status: ('A' for Active; 'I' for Inactive)
REMARK    1  A    between atoms: C_6  and  C_1 
REMARK    2  A    between atoms: C_8  and  C_5 
ROOT
ATOM      1  C   UNL d   1      58.683  -1.000  29.104  0.00  0.00     0.169 A 
ATOM      2  C   UNL d   1      59.114  -1.606  28.734  0.00  0.00     0.048 A 
ATOM      3  N   UNL d   1      58.376  -2.150  29.697  0.00  0.00    -0.148 NA
ATOM      4  N   UNL d   1      58.224  -1.339  29.703  0.00  0.00    -0.142 NA
ATOM      5  C   UNL d   1      58.926  -2.305  29.096  0.00  0.00     0.105 A 
ENDROOT
BRANCH   1   6
ATOM      6  C   UNL d   1      58.705  -0.199  28.911  0.00  0.00     0.231 C 
ATOM      7  O   UNL d   1      59.329   0.275  29.170  0.00  0.00    -0.643 OA
ATOM      8  O   UNL d   1      58.098   0.130  28.455  0.00  0.00    -0.643 OA
ENDBRANCH   1   6
BRANCH   5   9
ATOM      9  C   UNL d   1      59.233  -3.048  28.899  0.00  0.00     0.019 C 
ATOM     10  C   UNL d   1      58.769  -3.592  28.503  0.00  0.00     0.002 C 
ATOM     11  C   UNL d   1      60.007  -3.236  29.102  0.00  0.00     0.002 C 
ENDBRANCH   5   9
TORSDOF 2
ENDMDL
MODEL 9
REMARK VINA RESULT:      -2.5      4.341      4.568
REMARK  2 active torsions:
REMARK  status: ('A' for Active; 'I' for Inactive)
REMARK    1  A    between atoms: C_6  and  C_1 
REMARK    2  A    between atoms: C_8  and  C_5 
ROOT
ATOM      1  C   UNL d   1      58.755  -2.167  29.288  0.00  0.00     0.169 A 
ATOM      2  C   UNL d   1      59.093  -1.482  28.963  0.00  0.00     0.048 A 
ATOM      3  N   UNL d   1      58.116  -1.112  29.784  0.00  0.00    -0.148 NA
ATOM      4  N   UNL d   1      58.146  -1.936  29.800  0.00  0.00    -0.142 NA
ATOM      5  C   UNL d   1      58.703  -0.841  29.265  0.00  0.00     0.105 A 
ENDROOT
BRANCH   1   6
ATOM      6  C   UNL d   1      58.982  -2.945  29.133  0.00  0.00     0.231 C 
ATOM      7  O   UNL d   1      59.769  -3.175  29.226  0.00  0.00    -0.643 OA
ATOM      8  O   UNL d   1      58.417  -3.495  28.882  0.00  0.00    -0.643 OA
ENDBRANCH   1   6
BRANCH   5   9
ATOM      9  C   UNL d   1      58.866  -0.050  29.085  0.00  0.00     0.019 C 
ATOM     10  C   UNL d   1      58.493   0.313  28.455  0.00  0.00     0.002 C 
ATOM     11  C   UNL d   1      59.404   0.370  29.543  0.00  0.00     0.002 C 
ENDBRANCH   5   9
TORSDOF 2
ENDMDL
