MODEL 1
REMARK VINA RESULT:      -1.8      0.000      0.000
REMARK  4 active torsions:
REMARK  status: ('A' for Active; 'I' for Inactive)
REMARK       I    between atoms: C_2  and  N_1 
REMARK    1  A    between atoms: C_4  and  C_2 
REMARK    2  A    between atoms: S_8  and  C_3 
REMARK    3  A    between atoms: O_12  and  C_7 
REMARK    4  A    between atoms: C_15  and  O_12 
ROOT
ATOM      1  C   UNL d   1     -41.489-123.021 -50.903  0.00  0.00     0.079 A 
ATOM      2  C   UNL d   1     -41.358-122.327 -51.341  0.00  0.00     0.105 A 
ATOM      3  C   UNL d   1     -41.442-123.760 -51.262  0.00  0.00     0.007 A 
ATOM      4  C   UNL d   1     -41.180-122.393 -52.145  0.00  0.00     0.025 A 
ATOM      5  C   UNL d   1     -41.265-123.817 -52.062  0.00  0.00     0.000 A 
ATOM      6  C   UNL d   1     -41.135-123.139 -52.499  0.00  0.00     0.002 A 
ENDROOT
BRANCH   1   7
ATOM      7  C   UNL d   1     -41.668-122.967 -50.097  0.00  0.00     0.268 C 
ATOM      8  N   UNL d   1     -42.386-123.252 -49.814  0.00  0.00    -0.251 N 
ATOM      9  C   UNL d   1     -42.642-123.238 -49.028  0.00  0.00     0.178 A 
ATOM     10  C   UNL d   1     -42.979-123.607 -50.273  0.00  0.00     0.106 A 
ATOM     11  N   UNL d   1     -43.386-123.579 -49.003  0.00  0.00    -0.219 NA
ATOM     12  C   UNL d   1     -43.599-123.808 -49.763  0.00  0.00     0.120 A 
ATOM     13  O   UNL d   1     -41.123-122.626 -49.579  0.00  0.00    -0.267 OA
BRANCH   9  14
ATOM     14  S   UNL d   1     -42.218-122.933 -48.395  0.00  0.00    -0.076 SA
ATOM     15  C   UNL d   1     -42.572-122.853 -47.652  0.00  0.00     0.077 C 
ENDBRANCH   9  14
ENDBRANCH   1   7
BRANCH   2  16
ATOM     16  O   UNL d   1     -41.406-121.591 -50.979  0.00  0.00    -0.305 OA
BRANCH  16  17
ATOM     17  C   UNL d   1     -41.352-120.907 -51.436  0.00  0.00     0.123 C 
ATOM     18  C   UNL d   1     -41.136-120.204 -51.088  0.00  0.00     0.029 C 
ENDBRANCH  16  17
ENDBRANCH   2  16
TORSDOF 4
ENDMDL
MODEL 2
REMARK VINA RESULT:      -1.7      2.646      3.890
REMARK  4 active torsions:
REMARK  status: ('A' for Active; 'I' for Inactive)
REMARK       I    between atoms: C_2  and  N_1 
REMARK    1  A    between atoms: C_4  and  C_2 
REMARK    2  A    between atoms: S_8  and  C_3 
REMARK    3  A    between atoms: O_12  and  C_7 
REMARK    4  A    between atoms: C_15  and  O_12 
ROOT
ATOM      1  C   UNL d   1     -41.715-122.698 -52.373  0.00  0.00     0.079 A 
ATOM      2  C   UNL d   1     -41.465-122.136 -51.815  0.00  0.00     0.105 A 
ATOM      3  C   UNL d   1     -41.678-123.503 -52.204  0.00  0.00     0.007 A 
ATOM      4  C   UNL d   1     -41.179-122.399 -51.086  0.00  0.00     0.025 A 
ATOM      5  C   UNL d   1     -41.392-123.757 -51.478  0.00  0.00     0.000 A 
ATOM      6  C   UNL d   1     -41.145-123.209 -50.924  0.00  0.00     0.002 A 
ENDROOT
BRANCH   1   7
ATOM      7  C   UNL d   1     -42.003-122.445 -53.106  0.00  0.00     0.268 C 
ATOM      8  N   UNL d   1     -41.766-122.825 -53.796  0.00  0.00    -0.251 N 
ATOM      9  C   UNL d   1     -42.005-122.637 -54.565  0.00  0.00     0.178 A 
ATOM     10  C   UNL d   1     -41.243-123.469 -53.838  0.00  0.00     0.106 A 
ATOM     11  N   UNL d   1     -41.633-123.159 -55.075  0.00  0.00    -0.219 NA
ATOM     12  C   UNL d   1     -41.164-123.672 -54.636  0.00  0.00     0.120 A 
ATOM     13  O   UNL d   1     -42.528-121.809 -53.141  0.00  0.00    -0.267 OA
BRANCH   9  14
ATOM     14  S   UNL d   1     -42.522-122.034 -54.768  0.00  0.00    -0.076 SA
ATOM     15  C   UNL d   1     -42.651-121.840 -55.562  0.00  0.00     0.077 C 
ENDBRANCH   9  14
ENDBRANCH   1   7
BRANCH   2  16
ATOM     16  O   UNL d   1     -41.503-121.333 -51.987  0.00  0.00    -0.305 OA
BRANCH  16  17
ATOM     17  C   UNL d   1     -41.124-120.791 -51.493  0.00  0.00     0.123 C 
ATOM     18  C   UNL d   1     -41.194-119.994 -51.639  0.00  0.00     0.029 C 
ENDBRANCH  16  17
ENDBRANCH   2  16
TORSDOF 4
ENDMDL
MODEL 3
REMARK VINA RESULT:      -1.0      1.584      3.410
REMARK  4 active torsions:
REMARK  status: ('A' for Active; 'I' for Inactive)
REMARK       I    between atoms: C_2  and  N_1 
REMARK    1  A    between atoms: C_4  and  C_2 
REMARK    2  A    between atoms: S_8  and  C_3 
REMARK    3  A    between atoms: O_12  and  C_7 
REMARK    4  A    between atoms: C_15  and  O_12 
ROOT
ATOM      1  C   UNL d   1     -41.778-123.122 -49.772  0.00  0.00     0.079 A 
ATOM      2  C   UNL d   1     -42.547-123.158 -49.458  0.00  0.00     0.105 A 
ATOM      3  C   UNL d   1     -41.123-123.088 -49.275  0.00  0.00     0.007 A 
ATOM      4  C   UNL d   1     -42.641-123.160 -48.638  0.00  0.00     0.025 A 
ATOM      5  C   UNL d   1     -41.224-123.090 -48.460  0.00  0.00     0.000 A 
ATOM      6  C   UNL d   1     -41.977-123.126 -48.145  0.00  0.00     0.002 A 
ENDROOT
BRANCH   1   7
ATOM      7  C   UNL d   1     -41.672-123.119 -50.592  0.00  0.00     0.268 C 
ATOM      8  N   UNL d   1     -41.457-122.425 -50.978  0.00  0.00    -0.251 N 
ATOM      9  C   UNL d   1     -41.332-122.335 -51.791  0.00  0.00     0.178 A 
ATOM     10  C   UNL d   1     -41.329-121.690 -50.614  0.00  0.00     0.106 A 
ATOM     11  N   UNL d   1     -41.129-121.554 -51.925  0.00  0.00    -0.219 NA
ATOM     12  C   UNL d   1     -41.125-121.152 -51.208  0.00  0.00     0.120 A 
ATOM     13  O   UNL d   1     -41.783-123.816 -51.021  0.00  0.00    -0.267 OA
BRANCH   9  14
ATOM     14  S   UNL d   1     -41.401-122.931 -52.350  0.00  0.00    -0.076 SA
ATOM     15  C   UNL d   1     -41.257-122.774 -53.150  0.00  0.00     0.077 C 
ENDBRANCH   9  14
ENDBRANCH   1   7
BRANCH   2  16
ATOM     16  O   UNL d   1     -43.199-123.192 -49.957  0.00  0.00    -0.305 OA
BRANCH  16  17
ATOM     17  C   UNL d   1     -43.936-123.399 -49.652  0.00  0.00     0.123 C 
ATOM     18  C   UNL d   1     -44.612-123.100 -49.990  0.00  0.00     0.029 C 
ENDBRANCH  16  17
ENDBRANCH   2  16
TORSDOF 4
ENDMDL
MODEL 4
REMARK VINA RESULT:       0.1      1.982      2.705
REMARK  4 active torsions:
REMARK  status: ('A' for Active; 'I' for Inactive)
REMARK       I    between atoms: C_2  and  N_1 
REMARK    1  A    between atoms: C_4  and  C_2 
REMARK    2  A    between atoms: S_8  and  C_3 
REMARK    3  A    between atoms: O_12  and  C_7 
REMARK    4  A    between atoms: C_15  and  O_12 
ROOT
ATOM      1  C   UNL d   1     -41.453-122.703 -53.359  0.00  0.00     0.079 A 
ATOM      2  C   UNL d   1     -41.833-122.311 -53.986  0.00  0.00     0.105 A 
ATOM      3  C   UNL d   1     -41.127-123.451 -53.468  0.00  0.00     0.007 A 
ATOM      4  C   UNL d   1     -41.877-122.686 -54.721  0.00  0.00     0.025 A 
ATOM      5  C   UNL d   1     -41.174-123.817 -54.201  0.00  0.00     0.000 A 
ATOM      6  C   UNL d   1     -41.546-123.437 -54.821  0.00  0.00     0.002 A 
ENDROOT
BRANCH   1   7
ATOM      7  C   UNL d   1     -41.404-122.337 -52.619  0.00  0.00     0.268 C 
ATOM      8  N   UNL d   1     -41.592-122.758 -51.937  0.00  0.00    -0.251 N 
ATOM      9  C   UNL d   1     -41.569-122.469 -51.163  0.00  0.00     0.178 A 
ATOM     10  C   UNL d   1     -41.837-123.550 -51.911  0.00  0.00     0.106 A 
ATOM     11  N   UNL d   1     -41.798-123.077 -50.665  0.00  0.00    -0.219 NA
ATOM     12  C   UNL d   1     -41.965-123.744 -51.117  0.00  0.00     0.120 A 
ATOM     13  O   UNL d   1     -41.166-121.548 -52.568  0.00  0.00    -0.267 OA
BRANCH   9  14
ATOM     14  S   UNL d   1     -41.354-121.708 -50.945  0.00  0.00    -0.076 SA
ATOM     15  C   UNL d   1     -41.137-121.540 -50.165  0.00  0.00     0.077 C 
ENDBRANCH   9  14
ENDBRANCH   1   7
BRANCH   2  16
ATOM     16  O   UNL d   1     -42.158-121.564 -53.874  0.00  0.00    -0.305 OA
BRANCH  16  17
ATOM     17  C   UNL d   1     -42.598-121.216 -54.478  0.00  0.00     0.123 C 
ATOM     18  C   UNL d   1     -42.516-120.422 -54.632  0.00  0.00     0.029 C 
ENDBRANCH  16  17
ENDBRANCH   2  16
TORSDOF 4
ENDMDL
MODEL 5
REMARK VINA RESULT:       0.8      1.287      2.193
REMARK  4 active torsions:
REMARK  status: ('A' for Active; 'I' for Inactive)
REMARK       I    between atoms: C_2  and  N_1 
REMARK    1  A    between atoms: C_4  and  C_2 
REMARK    2  A    between atoms: S_8  and  C_3 
REMARK    3  A    between atoms: O_12  and  C_7 
REMARK    4  A    between atoms: C_15  and  O_12 
ROOT
ATOM      1  C   UNL d   1     -41.989-121.673 -51.249  0.00  0.00     0.079 A 
ATOM      2  C   UNL d   1     -41.749-121.995 -51.978  0.00  0.00     0.105 A 
ATOM      3  C   UNL d   1     -41.799-120.898 -51.050  0.00  0.00     0.007 A 
ATOM      4  C   UNL d   1     -41.317-121.521 -52.498  0.00  0.00     0.025 A 
ATOM      5  C   UNL d   1     -41.368-120.433 -51.572  0.00  0.00     0.000 A 
ATOM      6  C   UNL d   1     -41.130-120.743 -52.289  0.00  0.00     0.002 A 
ENDROOT
BRANCH   1   7
ATOM      7  C   UNL d   1     -42.423-122.139 -50.721  0.00  0.00     0.268 C 
ATOM      8  N   UNL d   1     -42.060-122.449 -50.050  0.00  0.00    -0.251 N 
ATOM      9  C   UNL d   1     -42.418-122.921 -49.474  0.00  0.00     0.178 A 
ATOM     10  C   UNL d   1     -41.265-122.338 -49.836  0.00  0.00     0.106 A 
ATOM     11  N   UNL d   1     -41.851-123.099 -48.911  0.00  0.00    -0.219 NA
ATOM     12  C   UNL d   1     -41.141-122.745 -49.127  0.00  0.00     0.120 A 
ATOM     13  O   UNL d   1     -43.220-122.292 -50.870  0.00  0.00    -0.267 OA
BRANCH   9  14
ATOM     14  S   UNL d   1     -43.202-123.161 -49.477  0.00  0.00    -0.076 SA
ATOM     15  C   UNL d   1     -43.448-123.799 -49.011  0.00  0.00     0.077 C 
ENDBRANCH   9  14
ENDBRANCH   1   7
BRANCH   2  16
ATOM     16  O   UNL d   1     -41.941-122.770 -52.173  0.00  0.00    -0.305 OA
BRANCH  16  17
ATOM     17  C   UNL d   1     -41.821-123.037 -52.944  0.00  0.00     0.123 C 
ATOM     18  C   UNL d   1     -41.633-123.817 -53.076  0.00  0.00     0.029 C 
ENDBRANCH  16  17
ENDBRANCH   2  16
TORSDOF 4
ENDMDL
