MODEL 1
REMARK VINA RESULT:      -7.2      0.000      0.000
REMARK  5 active torsions:
REMARK  status: ('A' for Active; 'I' for Inactive)
REMARK    1  A    between atoms: N_7  and  C_1 
REMARK    2  A    between atoms: O_17  and  C_5 
REMARK    3  A    between atoms: C_10  and  N_7 
REMARK    4  A    between atoms: O_18  and  C_8 
REMARK    5  A    between atoms: O_19  and  C_9 
ROOT
ATOM      1  C   UNL d   1      52.847  34.103  54.001  0.00  0.00     0.139 A 
ATOM      2  C   UNL d   1      52.431  33.935  53.309  0.00  0.00     0.120 A 
ATOM      3  C   UNL d   1      53.374  33.533  54.315  0.00  0.00     0.120 A 
ATOM      4  C   UNL d   1      53.054  32.653  53.245  0.00  0.00     0.087 A 
ATOM      5  C   UNL d   1      53.474  32.808  53.933  0.00  0.00     0.045 A 
ATOM      6  C   UNL d   1      52.531  33.201  52.920  0.00  0.00     0.045 A 
ENDROOT
BRANCH   4   7
ATOM      7  N   UNL d   1      53.159  31.921  52.864  0.00  0.00    -0.226 NA
BRANCH   7   8
ATOM      8  C   UNL d   1      52.719  31.269  53.099  0.00  0.00     0.169 A 
ATOM      9  C   UNL d   1      53.069  30.613  53.331  0.00  0.00     0.094 A 
ATOM     10  C   UNL d   1      52.648  29.987  53.556  0.00  0.00     0.190 A 
ATOM     11  C   UNL d   1      54.219  29.919  53.571  0.00  0.00     0.128 A 
ATOM     12  N   UNL d   1      53.013  29.337  53.786  0.00  0.00    -0.128 NA
ATOM     13  N   UNL d   1      51.875  30.019  53.550  0.00  0.00    -0.203 NA
ATOM     14  N   UNL d   1      53.783  29.296  53.795  0.00  0.00    -0.145 NA
ATOM     15  C   UNL d   1      51.496  30.678  53.317  0.00  0.00     0.202 A 
ATOM     16  N   UNL d   1      51.918  31.303  53.092  0.00  0.00    -0.205 NA
ENDBRANCH   7   8
ENDBRANCH   4   7
BRANCH   3  17
ATOM     17  O   UNL d   1      53.797  33.698  55.013  0.00  0.00    -0.326 OA
ATOM     18  C   UNL d   1      54.419  33.198  55.247  0.00  0.00     0.181 C 
ENDBRANCH   3  17
BRANCH   2  19
ATOM     19  O   UNL d   1      51.906  34.497  52.992  0.00  0.00    -0.326 OA
ATOM     20  C   UNL d   1      51.387  34.282  52.376  0.00  0.00     0.181 C 
ENDBRANCH   2  19
BRANCH   1  21
ATOM     21  O   UNL d   1      52.751  34.828  54.389  0.00  0.00    -0.324 OA
ATOM     22  C   UNL d   1      53.224  35.483  54.162  0.00  0.00     0.182 C 
ENDBRANCH   1  21
TORSDOF 5
ENDMDL
MODEL 2
REMARK VINA RESULT:      -7.1      0.040      1.680
REMARK  5 active torsions:
REMARK  status: ('A' for Active; 'I' for Inactive)
REMARK    1  A    between atoms: N_7  and  C_1 
REMARK    2  A    between atoms: O_17  and  C_5 
REMARK    3  A    between atoms: C_10  and  N_7 
REMARK    4  A    between atoms: O_18  and  C_8 
REMARK    5  A    between atoms: O_19  and  C_9 
ROOT
ATOM      1  C   UNL d   1      52.822  34.118  54.023  0.00  0.00     0.139 A 
ATOM      2  C   UNL d   1      53.343  33.556  54.329  0.00  0.00     0.120 A 
ATOM      3  C   UNL d   1      52.403  33.952  53.318  0.00  0.00     0.120 A 
ATOM      4  C   UNL d   1      53.032  32.680  53.246  0.00  0.00     0.087 A 
ATOM      5  C   UNL d   1      52.511  33.231  52.932  0.00  0.00     0.045 A 
ATOM      6  C   UNL d   1      53.454  32.824  53.940  0.00  0.00     0.045 A 
ENDROOT
BRANCH   4   7
ATOM      7  N   UNL d   1      53.138  31.954  52.854  0.00  0.00    -0.226 NA
BRANCH   7   8
ATOM      8  C   UNL d   1      52.710  31.294  53.089  0.00  0.00     0.169 A 
ATOM      9  C   UNL d   1      53.072  30.639  53.308  0.00  0.00     0.094 A 
ATOM     10  C   UNL d   1      52.661  30.007  53.533  0.00  0.00     0.190 A 
ATOM     11  C   UNL d   1      54.233  29.957  53.522  0.00  0.00     0.128 A 
ATOM     12  N   UNL d   1      53.037  29.358  53.749  0.00  0.00    -0.128 NA
ATOM     13  N   UNL d   1      51.888  30.029  53.539  0.00  0.00    -0.203 NA
ATOM     14  N   UNL d   1      53.809  29.327  53.747  0.00  0.00    -0.145 NA
ATOM     15  C   UNL d   1      51.498  30.686  53.319  0.00  0.00     0.202 A 
ATOM     16  N   UNL d   1      51.908  31.319  53.094  0.00  0.00    -0.205 NA
ENDBRANCH   7   8
ENDBRANCH   4   7
BRANCH   3  17
ATOM     17  O   UNL d   1      51.876  34.517  53.006  0.00  0.00    -0.326 OA
ATOM     18  C   UNL d   1      51.348  34.299  52.400  0.00  0.00     0.181 C 
ENDBRANCH   3  17
BRANCH   2  19
ATOM     19  O   UNL d   1      53.763  33.715  55.029  0.00  0.00    -0.326 OA
ATOM     20  C   UNL d   1      54.383  33.211  55.267  0.00  0.00     0.181 C 
ENDBRANCH   2  19
BRANCH   1  21
ATOM     21  O   UNL d   1      52.709  34.844  54.405  0.00  0.00    -0.324 OA
ATOM     22  C   UNL d   1      53.182  35.501  54.189  0.00  0.00     0.182 C 
ENDBRANCH   1  21
TORSDOF 5
ENDMDL
MODEL 3
REMARK VINA RESULT:      -6.4      2.159      4.143
REMARK  5 active torsions:
REMARK  status: ('A' for Active; 'I' for Inactive)
REMARK    1  A    between atoms: N_7  and  C_1 
REMARK    2  A    between atoms: O_17  and  C_5 
REMARK    3  A    between atoms: C_10  and  N_7 
REMARK    4  A    between atoms: O_18  and  C_8 
REMARK    5  A    between atoms: O_19  and  C_9 
ROOT
ATOM      1  C   UNL d   1      52.541  31.072  53.153  0.00  0.00     0.139 A 
ATOM      2  C   UNL d   1      53.352  31.011  53.291  0.00  0.00     0.120 A 
ATOM      3  C   UNL d   1      52.186  31.829  53.106  0.00  0.00     0.120 A 
ATOM      4  C   UNL d   1      53.452  32.434  53.335  0.00  0.00     0.087 A 
ATOM      5  C   UNL d   1      52.646  32.508  53.198  0.00  0.00     0.045 A 
ATOM      6  C   UNL d   1      53.820  31.698  53.384  0.00  0.00     0.045 A 
ENDROOT
BRANCH   4   7
ATOM      7  N   UNL d   1      53.911  33.121  53.427  0.00  0.00    -0.226 NA
BRANCH   7   8
ATOM      8  C   UNL d   1      54.025  33.443  54.173  0.00  0.00     0.169 A 
ATOM      9  C   UNL d   1      53.737  34.144  54.355  0.00  0.00     0.094 A 
ATOM     10  C   UNL d   1      53.846  34.452  55.071  0.00  0.00     0.190 A 
ATOM     11  C   UNL d   1      53.037  35.255  53.987  0.00  0.00     0.128 A 
ATOM     12  N   UNL d   1      53.551  35.155  55.238  0.00  0.00    -0.128 NA
ATOM     13  N   UNL d   1      54.242  34.059  55.605  0.00  0.00    -0.203 NA
ATOM     14  N   UNL d   1      53.154  35.555  54.711  0.00  0.00    -0.145 NA
ATOM     15  C   UNL d   1      54.546  33.342  55.443  0.00  0.00     0.202 A 
ATOM     16  N   UNL d   1      54.437  33.034  54.727  0.00  0.00    -0.205 NA
ENDBRANCH   7   8
ENDBRANCH   4   7
BRANCH   3  17
ATOM     17  O   UNL d   1      51.367  31.896  52.967  0.00  0.00    -0.326 OA
ATOM     18  C   UNL d   1      51.011  32.648  52.955  0.00  0.00     0.181 C 
ENDBRANCH   3  17
BRANCH   2  19
ATOM     19  O   UNL d   1      53.711  30.262  53.338  0.00  0.00    -0.326 OA
ATOM     20  C   UNL d   1      54.489  30.154  53.060  0.00  0.00     0.181 C 
ENDBRANCH   2  19
BRANCH   1  21
ATOM     21  O   UNL d   1      52.073  30.395  53.060  0.00  0.00    -0.324 OA
ATOM     22  C   UNL d   1      51.844  29.957  53.738  0.00  0.00     0.182 C 
ENDBRANCH   1  21
TORSDOF 5
ENDMDL
MODEL 4
REMARK VINA RESULT:      -6.3      2.067      3.755
REMARK  5 active torsions:
REMARK  status: ('A' for Active; 'I' for Inactive)
REMARK    1  A    between atoms: N_7  and  C_1 
REMARK    2  A    between atoms: O_17  and  C_5 
REMARK    3  A    between atoms: C_10  and  N_7 
REMARK    4  A    between atoms: O_18  and  C_8 
REMARK    5  A    between atoms: O_19  and  C_9 
ROOT
ATOM      1  C   UNL d   1      53.862  33.669  54.315  0.00  0.00     0.139 A 
ATOM      2  C   UNL d   1      53.555  32.959  54.027  0.00  0.00     0.120 A 
ATOM      3  C   UNL d   1      53.359  34.333  54.399  0.00  0.00     0.120 A 
ATOM      4  C   UNL d   1      52.268  33.565  53.908  0.00  0.00     0.087 A 
ATOM      5  C   UNL d   1      52.562  34.276  54.193  0.00  0.00     0.045 A 
ATOM      6  C   UNL d   1      52.747  32.899  53.818  0.00  0.00     0.045 A 
ENDROOT
BRANCH   4   7
ATOM      7  N   UNL d   1      51.464  33.513  53.702  0.00  0.00    -0.226 NA
BRANCH   7   8
ATOM      8  C   UNL d   1      51.206  33.803  52.979  0.00  0.00     0.169 A 
ATOM      9  C   UNL d   1      50.546  34.215  52.925  0.00  0.00     0.094 A 
ATOM     10  C   UNL d   1      50.298  34.493  52.232  0.00  0.00     0.190 A 
ATOM     11  C   UNL d   1      49.457  34.769  53.532  0.00  0.00     0.128 A 
ATOM     12  N   UNL d   1      49.636  34.904  52.195  0.00  0.00    -0.128 NA
ATOM     13  N   UNL d   1      50.710  34.359  51.592  0.00  0.00    -0.203 NA
ATOM     14  N   UNL d   1      49.218  35.043  52.829  0.00  0.00    -0.145 NA
ATOM     15  C   UNL d   1      51.386  33.941  51.622  0.00  0.00     0.202 A 
ATOM     16  N   UNL d   1      51.634  33.663  52.315  0.00  0.00    -0.205 NA
ENDBRANCH   7   8
ENDBRANCH   4   7
BRANCH   3  17
ATOM     17  O   UNL d   1      53.665  35.051  54.689  0.00  0.00    -0.326 OA
ATOM     18  C   UNL d   1      53.204  35.743  54.648  0.00  0.00     0.181 C 
ENDBRANCH   3  17
BRANCH   2  19
ATOM     19  O   UNL d   1      54.049  32.296  53.942  0.00  0.00    -0.326 OA
ATOM     20  C   UNL d   1      53.728  31.565  53.699  0.00  0.00     0.181 C 
ENDBRANCH   2  19
BRANCH   1  21
ATOM     21  O   UNL d   1      54.661  33.732  54.524  0.00  0.00    -0.324 OA
ATOM     22  C   UNL d   1      54.899  33.547  55.306  0.00  0.00     0.182 C 
ENDBRANCH   1  21
TORSDOF 5
ENDMDL
MODEL 5
REMARK VINA RESULT:      -6.3      2.073      3.672
REMARK  5 active torsions:
REMARK  status: ('A' for Active; 'I' for Inactive)
REMARK    1  A    between atoms: N_7  and  C_1 
REMARK    2  A    between atoms: O_17  and  C_5 
REMARK    3  A    between atoms: C_10  and  N_7 
REMARK    4  A    between atoms: O_18  and  C_8 
REMARK    5  A    between atoms: O_19  and  C_9 
ROOT
ATOM      1  C   UNL d   1      53.888  33.689  54.372  0.00  0.00     0.139 A 
ATOM      2  C   UNL d   1      53.385  34.338  54.452  0.00  0.00     0.120 A 
ATOM      3  C   UNL d   1      53.588  32.969  54.068  0.00  0.00     0.120 A 
ATOM      4  C   UNL d   1      52.304  33.564  53.934  0.00  0.00     0.087 A 
ATOM      5  C   UNL d   1      52.795  32.911  53.850  0.00  0.00     0.045 A 
ATOM      6  C   UNL d   1      52.580  34.282  54.231  0.00  0.00     0.045 A 
ENDROOT
BRANCH   4   7
ATOM      7  N   UNL d   1      51.505  33.500  53.713  0.00  0.00    -0.226 NA
BRANCH   7   8
ATOM      8  C   UNL d   1      51.254  33.794  52.988  0.00  0.00     0.169 A 
ATOM      9  C   UNL d   1      50.588  34.195  52.928  0.00  0.00     0.094 A 
ATOM     10  C   UNL d   1      50.348  34.477  52.234  0.00  0.00     0.190 A 
ATOM     11  C   UNL d   1      49.478  34.721  53.521  0.00  0.00     0.128 A 
ATOM     12  N   UNL d   1      49.679  34.876  52.189  0.00  0.00    -0.128 NA
ATOM     13  N   UNL d   1      50.774  34.358  51.600  0.00  0.00    -0.203 NA
ATOM     14  N   UNL d   1      49.247  35.000  52.816  0.00  0.00    -0.145 NA
ATOM     15  C   UNL d   1      51.457  33.952  51.637  0.00  0.00     0.202 A 
ATOM     16  N   UNL d   1      51.697  33.670  52.332  0.00  0.00    -0.205 NA
ENDBRANCH   7   8
ENDBRANCH   4   7
BRANCH   3  17
ATOM     17  O   UNL d   1      54.093  32.311  53.985  0.00  0.00    -0.326 OA
ATOM     18  C   UNL d   1      53.799  31.605  53.658  0.00  0.00     0.181 C 
ENDBRANCH   3  17
BRANCH   2  19
ATOM     19  O   UNL d   1      53.676  35.056  54.753  0.00  0.00    -0.326 OA
ATOM     20  C   UNL d   1      53.238  35.758  54.656  0.00  0.00     0.181 C 
ENDBRANCH   2  19
BRANCH   1  21
ATOM     21  O   UNL d   1      54.686  33.741  54.589  0.00  0.00    -0.324 OA
ATOM     22  C   UNL d   1      54.911  33.558  55.375  0.00  0.00     0.182 C 
ENDBRANCH   1  21
TORSDOF 5
ENDMDL
MODEL 6
REMARK VINA RESULT:      -6.0      1.997      3.727
REMARK  5 active torsions:
REMARK  status: ('A' for Active; 'I' for Inactive)
REMARK    1  A    between atoms: N_7  and  C_1 
REMARK    2  A    between atoms: O_17  and  C_5 
REMARK    3  A    between atoms: C_10  and  N_7 
REMARK    4  A    between atoms: O_18  and  C_8 
REMARK    5  A    between atoms: O_19  and  C_9 
ROOT
ATOM      1  C   UNL d   1      53.418  30.762  53.995  0.00  0.00     0.139 A 
ATOM      2  C   UNL d   1      53.030  30.661  53.274  0.00  0.00     0.120 A 
ATOM      3  C   UNL d   1      53.578  31.536  54.273  0.00  0.00     0.120 A 
ATOM      4  C   UNL d   1      52.962  32.077  53.112  0.00  0.00     0.087 A 
ATOM      5  C   UNL d   1      53.348  32.191  53.828  0.00  0.00     0.045 A 
ATOM      6  C   UNL d   1      52.796  31.323  52.821  0.00  0.00     0.045 A 
ENDROOT
BRANCH   4   7
ATOM      7  N   UNL d   1      52.732  32.740  52.666  0.00  0.00    -0.226 NA
BRANCH   7   8
ATOM      8  C   UNL d   1      52.069  33.173  52.886  0.00  0.00     0.169 A 
ATOM      9  C   UNL d   1      52.131  33.922  53.093  0.00  0.00     0.094 A 
ATOM     10  C   UNL d   1      51.496  34.336  53.303  0.00  0.00     0.190 A 
ATOM     11  C   UNL d   1      52.912  35.021  53.299  0.00  0.00     0.128 A 
ATOM     12  N   UNL d   1      51.573  35.085  53.509  0.00  0.00    -0.128 NA
ATOM     13  N   UNL d   1      50.799  34.002  53.306  0.00  0.00    -0.203 NA
ATOM     14  N   UNL d   1      52.265  35.428  53.509  0.00  0.00    -0.145 NA
ATOM     15  C   UNL d   1      50.712  33.239  53.098  0.00  0.00     0.202 A 
ATOM     16  N   UNL d   1      51.347  32.824  52.888  0.00  0.00    -0.205 NA
ENDBRANCH   7   8
ENDBRANCH   4   7
BRANCH   3  17
ATOM     17  O   UNL d   1      53.969  31.643  55.000  0.00  0.00    -0.326 OA
ATOM     18  C   UNL d   1      54.192  32.408  55.240  0.00  0.00     0.181 C 
ENDBRANCH   3  17
BRANCH   2  19
ATOM     19  O   UNL d   1      52.869  29.895  52.992  0.00  0.00    -0.326 OA
ATOM     20  C   UNL d   1      52.894  29.738  52.174  0.00  0.00     0.181 C 
ENDBRANCH   2  19
BRANCH   1  21
ATOM     21  O   UNL d   1      53.652  30.109  54.447  0.00  0.00    -0.324 OA
ATOM     22  C   UNL d   1      53.072  29.662  54.855  0.00  0.00     0.182 C 
ENDBRANCH   1  21
TORSDOF 5
ENDMDL
