MODEL 1
REMARK VINA RESULT:      -6.8      0.000      0.000
REMARK  3 active torsions:
REMARK  status: ('A' for Active; 'I' for Inactive)
REMARK    1  A    between atoms: S_5  and  C_1 
REMARK    2  A    between atoms: N_3  and  C_2 
REMARK    3  A    between atoms: C_4  and  S_5 
ROOT
ATOM      1  C   UNL d   1      53.220  33.506  54.085  0.00  0.00     0.140 A 
ATOM      2  C   UNL d   1      53.864  33.159  54.409  0.00  0.00     0.188 A 
ATOM      3  N   UNL d   1      53.007  34.268  54.263  0.00  0.00    -0.216 NA
ATOM      4  C   UNL d   1      54.335  33.594  54.950  0.00  0.00     0.209 A 
ATOM      5  N   UNL d   1      54.130  34.346  55.129  0.00  0.00    -0.202 NA
ATOM      6  C   UNL d   1      53.479  34.703  54.804  0.00  0.00     0.201 A 
ATOM      7  N   UNL d   1      54.849  33.343  55.221  0.00  0.00    -0.125 N 
ENDROOT
BRANCH   1   8
ATOM      8  S   UNL d   1      52.748  33.071  53.544  0.00  0.00    -0.028 SA
BRANCH   8   9
ATOM      9  C   UNL d   1      52.065  33.439  53.187  0.00  0.00     0.196 A 
ATOM     10  N   UNL d   1      51.348  33.459  53.593  0.00  0.00    -0.221 NA
ATOM     11  C   UNL d   1      50.710  33.829  53.206  0.00  0.00     0.085 A 
ATOM     12  C   UNL d   1      49.960  33.842  53.648  0.00  0.00     0.021 C 
ATOM     13  C   UNL d   1      50.771  34.156  52.471  0.00  0.00     0.038 A 
ATOM     14  C   UNL d   1      51.474  34.135  52.077  0.00  0.00     0.085 A 
ATOM     15  N   UNL d   1      52.157  33.761  52.446  0.00  0.00    -0.221 NA
ATOM     16  C   UNL d   1      51.537  34.470  51.324  0.00  0.00     0.021 C 
ENDBRANCH   8   9
ENDBRANCH   1   8
BRANCH   2  17
ATOM     17  N   UNL d   1      54.076  32.396  54.231  0.00  0.00    -0.108 N 
ATOM     18  O   UNL d   1      53.811  31.706  54.653  0.00  0.00    -0.532 OA
ATOM     19  O   UNL d   1      54.588  32.190  53.603  0.00  0.00    -0.532 OA
ENDBRANCH   2  17
TORSDOF 3
ENDMDL
MODEL 2
REMARK VINA RESULT:      -6.7      2.163      3.266
REMARK  3 active torsions:
REMARK  status: ('A' for Active; 'I' for Inactive)
REMARK    1  A    between atoms: S_5  and  C_1 
REMARK    2  A    between atoms: N_3  and  C_2 
REMARK    3  A    between atoms: C_4  and  S_5 
ROOT
ATOM      1  C   UNL d   1      53.488  32.644  53.995  0.00  0.00     0.140 A 
ATOM      2  C   UNL d   1      53.729  33.268  54.435  0.00  0.00     0.188 A 
ATOM      3  N   UNL d   1      52.767  32.634  53.623  0.00  0.00    -0.216 NA
ATOM      4  C   UNL d   1      53.223  33.933  54.515  0.00  0.00     0.209 A 
ATOM      5  N   UNL d   1      52.512  33.928  54.150  0.00  0.00    -0.202 NA
ATOM      6  C   UNL d   1      52.261  33.299  53.703  0.00  0.00     0.201 A 
ATOM      7  N   UNL d   1      53.390  34.439  54.856  0.00  0.00    -0.125 N 
ENDROOT
BRANCH   1   8
ATOM      8  S   UNL d   1      53.994  31.980  53.915  0.00  0.00    -0.028 SA
BRANCH   8   9
ATOM      9  C   UNL d   1      53.657  31.206  53.781  0.00  0.00     0.196 A 
ATOM     10  N   UNL d   1      53.436  30.979  53.020  0.00  0.00    -0.221 NA
ATOM     11  C   UNL d   1      53.112  30.216  52.937  0.00  0.00     0.085 A 
ATOM     12  C   UNL d   1      52.883  29.992  52.128  0.00  0.00     0.021 C 
ATOM     13  C   UNL d   1      53.013  29.711  53.558  0.00  0.00     0.038 A 
ATOM     14  C   UNL d   1      53.231  29.936  54.301  0.00  0.00     0.085 A 
ATOM     15  N   UNL d   1      53.569  30.718  54.426  0.00  0.00    -0.221 NA
ATOM     16  C   UNL d   1      53.129  29.418  54.937  0.00  0.00     0.021 C 
ENDBRANCH   8   9
ENDBRANCH   1   8
BRANCH   2  17
ATOM     17  N   UNL d   1      54.450  33.279  54.807  0.00  0.00    -0.108 N 
ATOM     18  O   UNL d   1      55.187  33.484  54.434  0.00  0.00    -0.532 OA
ATOM     19  O   UNL d   1      54.561  33.086  55.613  0.00  0.00    -0.532 OA
ENDBRANCH   2  17
TORSDOF 3
ENDMDL
MODEL 3
REMARK VINA RESULT:      -6.6      1.245      1.921
REMARK  3 active torsions:
REMARK  status: ('A' for Active; 'I' for Inactive)
REMARK    1  A    between atoms: S_5  and  C_1 
REMARK    2  A    between atoms: N_3  and  C_2 
REMARK    3  A    between atoms: C_4  and  S_5 
ROOT
ATOM      1  C   UNL d   1      52.986  32.255  53.192  0.00  0.00     0.140 A 
ATOM      2  C   UNL d   1      53.569  31.901  53.609  0.00  0.00     0.188 A 
ATOM      3  N   UNL d   1      52.454  31.828  52.751  0.00  0.00    -0.216 NA
ATOM      4  C   UNL d   1      53.636  31.065  53.593  0.00  0.00     0.209 A 
ATOM      5  N   UNL d   1      53.114  30.640  53.161  0.00  0.00    -0.202 NA
ATOM      6  C   UNL d   1      52.521  30.992  52.735  0.00  0.00     0.201 A 
ATOM      7  N   UNL d   1      54.088  30.760  53.915  0.00  0.00    -0.125 N 
ENDROOT
BRANCH   1   8
ATOM      8  S   UNL d   1      52.919  33.091  53.208  0.00  0.00    -0.028 SA
BRANCH   8   9
ATOM      9  C   UNL d   1      52.183  33.461  52.979  0.00  0.00     0.196 A 
ATOM     10  N   UNL d   1      51.561  33.508  53.517  0.00  0.00    -0.221 NA
ATOM     11  C   UNL d   1      50.864  33.876  53.250  0.00  0.00     0.085 A 
ATOM     12  C   UNL d   1      50.215  33.918  53.829  0.00  0.00     0.021 C 
ATOM     13  C   UNL d   1      50.783  34.179  52.506  0.00  0.00     0.038 A 
ATOM     14  C   UNL d   1      51.394  34.131  51.982  0.00  0.00     0.085 A 
ATOM     15  N   UNL d   1      52.132  33.756  52.223  0.00  0.00    -0.221 NA
ATOM     16  C   UNL d   1      51.312  34.441  51.221  0.00  0.00     0.021 C 
ENDBRANCH   8   9
ENDBRANCH   1   8
BRANCH   2  17
ATOM     17  N   UNL d   1      54.101  32.327  54.050  0.00  0.00    -0.108 N 
ATOM     18  O   UNL d   1      54.034  32.473  54.885  0.00  0.00    -0.532 OA
ATOM     19  O   UNL d   1      54.790  32.681  53.734  0.00  0.00    -0.532 OA
ENDBRANCH   2  17
TORSDOF 3
ENDMDL
MODEL 4
REMARK VINA RESULT:      -6.6      1.767      3.674
REMARK  3 active torsions:
REMARK  status: ('A' for Active; 'I' for Inactive)
REMARK    1  A    between atoms: S_5  and  C_1 
REMARK    2  A    between atoms: N_3  and  C_2 
REMARK    3  A    between atoms: C_4  and  S_5 
ROOT
ATOM      1  C   UNL d   1      51.852  33.310  52.955  0.00  0.00     0.140 A 
ATOM      2  C   UNL d   1      51.513  33.952  52.619  0.00  0.00     0.188 A 
ATOM      3  N   UNL d   1      51.435  32.809  53.440  0.00  0.00    -0.216 NA
ATOM      4  C   UNL d   1      50.704  34.115  52.769  0.00  0.00     0.209 A 
ATOM      5  N   UNL d   1      50.289  33.625  53.246  0.00  0.00    -0.202 NA
ATOM      6  C   UNL d   1      50.626  32.973  53.590  0.00  0.00     0.201 A 
ATOM      7  N   UNL d   1      50.413  34.616  52.515  0.00  0.00    -0.125 N 
ENDROOT
BRANCH   1   8
ATOM      8  S   UNL d   1      52.661  33.146  52.805  0.00  0.00    -0.028 SA
BRANCH   8   9
ATOM      9  C   UNL d   1      53.092  32.626  53.329  0.00  0.00     0.196 A 
ATOM     10  N   UNL d   1      53.126  31.818  53.171  0.00  0.00    -0.221 NA
ATOM     11  C   UNL d   1      53.557  31.351  53.708  0.00  0.00     0.085 A 
ATOM     12  C   UNL d   1      53.585  30.500  53.528  0.00  0.00     0.021 C 
ATOM     13  C   UNL d   1      53.929  31.656  54.357  0.00  0.00     0.038 A 
ATOM     14  C   UNL d   1      53.893  32.447  54.508  0.00  0.00     0.085 A 
ATOM     15  N   UNL d   1      53.456  32.962  53.974  0.00  0.00    -0.221 NA
ATOM     16  C   UNL d   1      54.273  32.759  55.172  0.00  0.00     0.021 C 
ENDBRANCH   8   9
ENDBRANCH   1   8
BRANCH   2  17
ATOM     17  N   UNL d   1      51.930  34.452  52.134  0.00  0.00    -0.108 N 
ATOM     18  O   UNL d   1      52.427  35.088  52.403  0.00  0.00    -0.532 OA
ATOM     19  O   UNL d   1      51.923  34.405  51.299  0.00  0.00    -0.532 OA
ENDBRANCH   2  17
TORSDOF 3
ENDMDL
MODEL 5
REMARK VINA RESULT:      -6.5      1.835      3.351
REMARK  3 active torsions:
REMARK  status: ('A' for Active; 'I' for Inactive)
REMARK    1  A    between atoms: S_5  and  C_1 
REMARK    2  A    between atoms: N_3  and  C_2 
REMARK    3  A    between atoms: C_4  and  S_5 
ROOT
ATOM      1  C   UNL d   1      53.292  31.765  53.735  0.00  0.00     0.140 A 
ATOM      2  C   UNL d   1      53.224  31.009  53.485  0.00  0.00     0.188 A 
ATOM      3  N   UNL d   1      52.973  32.385  53.321  0.00  0.00    -0.216 NA
ATOM      4  C   UNL d   1      52.810  30.848  52.773  0.00  0.00     0.209 A 
ATOM      5  N   UNL d   1      52.493  31.455  52.361  0.00  0.00    -0.202 NA
ATOM      6  C   UNL d   1      52.559  32.225  52.609  0.00  0.00     0.201 A 
ATOM      7  N   UNL d   1      52.741  30.259  52.553  0.00  0.00    -0.125 N 
ENDROOT
BRANCH   1   8
ATOM      8  S   UNL d   1      53.706  31.926  54.447  0.00  0.00    -0.028 SA
BRANCH   8   9
ATOM      9  C   UNL d   1      53.955  32.725  54.621  0.00  0.00     0.196 A 
ATOM     10  N   UNL d   1      53.400  33.288  54.852  0.00  0.00    -0.221 NA
ATOM     11  C   UNL d   1      53.688  34.053  55.010  0.00  0.00     0.085 A 
ATOM     12  C   UNL d   1      53.090  34.637  55.253  0.00  0.00     0.021 C 
ATOM     13  C   UNL d   1      54.468  34.251  54.947  0.00  0.00     0.038 A 
ATOM     14  C   UNL d   1      55.009  33.697  54.721  0.00  0.00     0.085 A 
ATOM     15  N   UNL d   1      54.747  32.895  54.548  0.00  0.00    -0.221 NA
ATOM     16  C   UNL d   1      55.807  33.900  54.656  0.00  0.00     0.021 C 
ENDBRANCH   8   9
ENDBRANCH   1   8
BRANCH   2  17
ATOM     17  N   UNL d   1      53.543  30.389  53.900  0.00  0.00    -0.108 N 
ATOM     18  O   UNL d   1      53.189  30.027  54.583  0.00  0.00    -0.532 OA
ATOM     19  O   UNL d   1      54.270  30.023  53.705  0.00  0.00    -0.532 OA
ENDBRANCH   2  17
TORSDOF 3
ENDMDL
MODEL 6
REMARK VINA RESULT:      -6.4      1.581      3.615
REMARK  3 active torsions:
REMARK  status: ('A' for Active; 'I' for Inactive)
REMARK    1  A    between atoms: S_5  and  C_1 
REMARK    2  A    between atoms: N_3  and  C_2 
REMARK    3  A    between atoms: C_4  and  S_5 
ROOT
ATOM      1  C   UNL d   1      52.102  33.914  53.228  0.00  0.00     0.140 A 
ATOM      2  C   UNL d   1      51.356  33.873  52.942  0.00  0.00     0.188 A 
ATOM      3  N   UNL d   1      52.704  34.263  52.811  0.00  0.00    -0.216 NA
ATOM      4  C   UNL d   1      51.188  34.200  52.188  0.00  0.00     0.209 A 
ATOM      5  N   UNL d   1      51.778  34.545  51.772  0.00  0.00    -0.202 NA
ATOM      6  C   UNL d   1      52.536  34.590  52.056  0.00  0.00     0.201 A 
ATOM      7  N   UNL d   1      50.607  34.181  51.938  0.00  0.00    -0.125 N 
ENDROOT
BRANCH   1   8
ATOM      8  S   UNL d   1      52.270  33.587  53.983  0.00  0.00    -0.028 SA
BRANCH   8   9
ATOM      9  C   UNL d   1      53.035  33.236  54.130  0.00  0.00     0.196 A 
ATOM     10  N   UNL d   1      53.214  32.493  53.823  0.00  0.00    -0.221 NA
ATOM     11  C   UNL d   1      53.971  32.190  53.992  0.00  0.00     0.085 A 
ATOM     12  C   UNL d   1      54.144  31.404  53.660  0.00  0.00     0.021 C 
ATOM     13  C   UNL d   1      54.515  32.590  54.434  0.00  0.00     0.038 A 
ATOM     14  C   UNL d   1      54.337  33.317  54.733  0.00  0.00     0.085 A 
ATOM     15  N   UNL d   1      53.563  33.663  54.579  0.00  0.00    -0.221 NA
ATOM     16  C   UNL d   1      54.895  33.727  55.185  0.00  0.00     0.021 C 
ENDBRANCH   8   9
ENDBRANCH   1   8
BRANCH   2  17
ATOM     17  N   UNL d   1      50.755  33.524  53.360  0.00  0.00    -0.108 N 
ATOM     18  O   UNL d   1      50.531  32.706  53.299  0.00  0.00    -0.532 OA
ATOM     19  O   UNL d   1      50.273  33.930  53.910  0.00  0.00    -0.532 OA
ENDBRANCH   2  17
TORSDOF 3
ENDMDL
