MODEL 1
REMARK VINA RESULT:      -4.6      0.000      0.000
REMARK  2 active torsions:
REMARK  status: ('A' for Active; 'I' for Inactive)
REMARK    1  A    between atoms: C_6  and  N_1 
REMARK    2  A    between atoms: C_14  and  C_13 
ROOT
ATOM      1  C   UNL d   1      56.165   0.098  33.131  0.00  0.00     0.070 A 
ATOM      2  C   UNL d   1      56.233  -0.696  32.921  0.00  0.00     0.018 A 
ATOM      3  C   UNL d   1      56.495   0.681  32.650  0.00  0.00     0.018 A 
ATOM      4  C   UNL d   1      56.631  -0.912  32.227  0.00  0.00     0.002 A 
ATOM      5  C   UNL d   1      56.894   0.473  31.956  0.00  0.00     0.002 A 
ATOM      6  C   UNL d   1      56.961  -0.329  31.745  0.00  0.00     0.000 A 
ENDROOT
BRANCH   1   7
ATOM      7  N   UNL d   1      55.769   0.300  33.819  0.00  0.00    -0.242 N 
ATOM      8  C   UNL d   1      56.127   0.531  34.525  0.00  0.00     0.267 A 
ATOM      9  C   UNL d   1      55.524   0.682  35.070  0.00  0.00     0.066 A 
ATOM     10  O   UNL d   1      56.936   0.598  34.661  0.00  0.00    -0.267 OA
ATOM     11  C   UNL d   1      54.803   0.547  34.707  0.00  0.00     0.066 A 
ATOM     12  C   UNL d   1      54.952   0.310  33.932  0.00  0.00     0.267 A 
ATOM     13  O   UNL d   1      54.379   0.116  33.367  0.00  0.00    -0.267 OA
ENDBRANCH   1   7
BRANCH   6  14
ATOM     14  C   UNL d   1      57.359  -0.534  31.055  0.00  0.00     0.000 C 
ATOM     15  C   UNL d   1      57.789   0.045  30.648  0.00  0.00     0.000 C 
ENDBRANCH   6  14
TORSDOF 2
ENDMDL
MODEL 2
REMARK VINA RESULT:      -4.5      1.787      3.488
REMARK  2 active torsions:
REMARK  status: ('A' for Active; 'I' for Inactive)
REMARK    1  A    between atoms: C_6  and  N_1 
REMARK    2  A    between atoms: C_14  and  C_13 
ROOT
ATOM      1  C   UNL d   1      57.236   0.083  31.744  0.00  0.00     0.070 A 
ATOM      2  C   UNL d   1      56.801   0.682  32.106  0.00  0.00     0.018 A 
ATOM      3  C   UNL d   1      57.020  -0.706  31.852  0.00  0.00     0.018 A 
ATOM      4  C   UNL d   1      56.146   0.495  32.580  0.00  0.00     0.002 A 
ATOM      5  C   UNL d   1      56.368  -0.900  32.322  0.00  0.00     0.002 A 
ATOM      6  C   UNL d   1      55.930  -0.294  32.687  0.00  0.00     0.000 A 
ENDROOT
BRANCH   1   7
ATOM      7  N   UNL d   1      57.881   0.278  31.279  0.00  0.00    -0.242 N 
ATOM      8  C   UNL d   1      58.605   0.555  31.560  0.00  0.00     0.267 A 
ATOM      9  C   UNL d   1      59.093   0.682  30.905  0.00  0.00     0.066 A 
ATOM     10  O   UNL d   1      58.804   0.682  32.349  0.00  0.00    -0.267 OA
ATOM     11  C   UNL d   1      58.677   0.486  30.227  0.00  0.00     0.066 A 
ATOM     12  C   UNL d   1      57.926   0.236  30.457  0.00  0.00     0.267 A 
ATOM     13  O   UNL d   1      57.323  -0.014  29.947  0.00  0.00    -0.267 OA
ENDBRANCH   1   7
BRANCH   6  14
ATOM     14  C   UNL d   1      55.282  -0.488  33.155  0.00  0.00     0.000 C 
ATOM     15  C   UNL d   1      55.055   0.022  33.766  0.00  0.00     0.000 C 
ENDBRANCH   6  14
TORSDOF 2
ENDMDL
