MODEL 1
REMARK VINA RESULT:      -4.6      0.000      0.000
REMARK  2 active torsions:
REMARK  status: ('A' for Active; 'I' for Inactive)
REMARK    1  A    between atoms: N_7  and  C_3 
REMARK    2  A    between atoms: C_11  and  N_8 
ROOT
ATOM      1  N   UNL d   1      57.980  -0.121  30.485  0.00  0.00    -0.286 N 
ATOM      2  N   UNL d   1      57.065   0.024  31.846  0.00  0.00    -0.301 N 
ATOM      3  C   UNL d   1      57.840  -0.784  30.958  0.00  0.00     0.101 A 
ATOM      4  C   UNL d   1      57.667   0.605  30.689  0.00  0.00     0.101 A 
ATOM      5  C   UNL d   1      57.381  -0.707  31.639  0.00  0.00     0.100 A 
ATOM      6  C   UNL d   1      57.208   0.682  31.370  0.00  0.00     0.100 A 
ENDROOT
BRANCH   1   7
ATOM      7  C   UNL d   1      58.437  -0.197  29.807  0.00  0.00     0.154 A 
ATOM      8  C   UNL d   1      59.199   0.089  29.798  0.00  0.00     0.091 A 
ATOM      9  C   UNL d   1      59.656   0.014  29.120  0.00  0.00     0.170 A 
ATOM     10  C   UNL d   1      59.649   0.473  30.376  0.00  0.00     0.127 A 
ATOM     11  N   UNL d   1      60.394   0.352  29.276  0.00  0.00    -0.209 N 
ATOM     12  N   UNL d   1      59.349  -0.348  28.455  0.00  0.00    -0.205 NA
ATOM     13  C   UNL d   1      61.025   0.396  28.743  0.00  0.00     0.123 C 
ATOM     14  N   UNL d   1      60.388   0.634  30.048  0.00  0.00    -0.162 NA
ATOM     15  C   UNL d   1      58.584  -0.634  28.468  0.00  0.00     0.202 A 
ATOM     16  N   UNL d   1      58.125  -0.558  29.149  0.00  0.00    -0.206 NA
ENDBRANCH   1   7
BRANCH   2  17
ATOM     17  C   UNL d   1      56.606   0.096  32.528  0.00  0.00     0.065 A 
ATOM     18  C   UNL d   1      55.917  -0.343  32.601  0.00  0.00     0.030 A 
ATOM     19  C   UNL d   1      55.451  -0.279  33.279  0.00  0.00     0.070 A 
ATOM     20 CL   UNL d   1      54.758  -0.724  33.347  0.00  0.00    -0.081 Cl
ATOM     21  C   UNL d   1      55.684   0.234  33.888  0.00  0.00     0.068 A 
ATOM     22  C   UNL d   1      56.380   0.678  33.813  0.00  0.00     0.014 A 
ATOM     23 CL   UNL d   1      55.222   0.303  34.568  0.00  0.00    -0.082 Cl
ATOM     24  C   UNL d   1      56.842   0.608  33.132  0.00  0.00     0.018 A 
ENDBRANCH   2  17
TORSDOF 2
ENDMDL
