MODEL 1
REMARK VINA RESULT:      -5.4      0.000      0.000
REMARK  3 active torsions:
REMARK  status: ('A' for Active; 'I' for Inactive)
REMARK    1  A    between atoms: C_6  and  N_1 
REMARK    2  A    between atoms: C_9  and  C_6 
REMARK    3  A    between atoms: C_10  and  C_9 
ROOT
ATOM      1  C   UNL d   1     -41.862-122.637 -53.402  0.00  0.00     0.086 C 
ENDROOT
BRANCH   1   2
ATOM      2  N   UNL d   1     -41.889-122.485 -54.192  0.00  0.00    -0.240 N 
ATOM      3  C   UNL d   1     -42.275-121.826 -54.553  0.00  0.00     0.267 A 
ATOM      4  C   UNL d   1     -42.163-121.888 -55.385  0.00  0.00     0.066 A 
ATOM      5  O   UNL d   1     -42.675-121.250 -54.163  0.00  0.00    -0.267 OA
ATOM      6  C   UNL d   1     -41.707-122.588 -55.528  0.00  0.00     0.066 A 
ATOM      7  C   UNL d   1     -41.540-122.952 -54.800  0.00  0.00     0.267 A 
ATOM      8  O   UNL d   1     -41.123-123.626 -54.693  0.00  0.00    -0.267 OA
ENDBRANCH   1   2
BRANCH   1   9
ATOM      9  C   UNL d   1     -41.189-122.431 -52.972  0.00  0.00     0.019 C 
BRANCH   9  10
ATOM     10  C   UNL d   1     -41.167-122.561 -52.164  0.00  0.00     0.002 A 
ATOM     11  C   UNL d   1     -41.156-123.327 -51.875  0.00  0.00     0.000 A 
ATOM     12  C   UNL d   1     -41.134-123.462 -51.067  0.00  0.00     0.000 A 
ATOM     13  C   UNL d   1     -41.123-122.820 -50.548  0.00  0.00     0.000 A 
ATOM     14  C   UNL d   1     -41.135-122.049 -50.842  0.00  0.00     0.000 A 
ATOM     15  C   UNL d   1     -41.157-121.930 -51.653  0.00  0.00     0.000 A 
ENDBRANCH   9  10
ENDBRANCH   1   9
TORSDOF 3
ENDMDL
MODEL 2
REMARK VINA RESULT:      -5.1      1.264      3.620
REMARK  3 active torsions:
REMARK  status: ('A' for Active; 'I' for Inactive)
REMARK    1  A    between atoms: C_6  and  N_1 
REMARK    2  A    between atoms: C_9  and  C_6 
REMARK    3  A    between atoms: C_10  and  C_9 
ROOT
ATOM      1  C   UNL d   1     -41.184-122.313 -52.814  0.00  0.00     0.086 C 
ENDROOT
BRANCH   1   2
ATOM      2  N   UNL d   1     -41.193-122.363 -52.010  0.00  0.00    -0.240 N 
ATOM      3  C   UNL d   1     -41.234-123.078 -51.562  0.00  0.00     0.267 A 
ATOM      4  C   UNL d   1     -41.230-122.870 -50.747  0.00  0.00     0.066 A 
ATOM      5  O   UNL d   1     -41.269-123.817 -51.870  0.00  0.00    -0.267 OA
ATOM      6  C   UNL d   1     -41.187-122.025 -50.701  0.00  0.00     0.066 A 
ATOM      7  C   UNL d   1     -41.164-121.716 -51.472  0.00  0.00     0.267 A 
ATOM      8  O   UNL d   1     -41.123-120.942 -51.670  0.00  0.00    -0.267 OA
ENDBRANCH   1   2
BRANCH   1   9
ATOM      9  C   UNL d   1     -41.847-122.549 -53.243  0.00  0.00     0.019 C 
BRANCH   9  10
ATOM     10  C   UNL d   1     -41.902-122.369 -54.040  0.00  0.00     0.002 A 
ATOM     11  C   UNL d   1     -41.308-122.605 -54.552  0.00  0.00     0.000 A 
ATOM     12  C   UNL d   1     -41.359-122.426 -55.350  0.00  0.00     0.000 A 
ATOM     13  C   UNL d   1     -42.012-122.008 -55.633  0.00  0.00     0.000 A 
ATOM     14  C   UNL d   1     -42.608-121.771 -55.114  0.00  0.00     0.000 A 
ATOM     15  C   UNL d   1     -42.544-121.957 -54.318  0.00  0.00     0.000 A 
ENDBRANCH   9  10
ENDBRANCH   1   9
TORSDOF 3
ENDMDL
MODEL 3
REMARK VINA RESULT:      -4.0      1.929      2.882
REMARK  3 active torsions:
REMARK  status: ('A' for Active; 'I' for Inactive)
REMARK    1  A    between atoms: C_6  and  N_1 
REMARK    2  A    between atoms: C_9  and  C_6 
REMARK    3  A    between atoms: C_10  and  C_9 
ROOT
ATOM      1  C   UNL d   1     -41.125-122.663 -50.661  0.00  0.00     0.086 C 
ENDROOT
BRANCH   1   2
ATOM      2  N   UNL d   1     -41.124-122.474 -51.443  0.00  0.00    -0.240 N 
ATOM      3  C   UNL d   1     -41.124-121.691 -51.760  0.00  0.00     0.267 A 
ATOM      4  C   UNL d   1     -41.123-121.754 -52.599  0.00  0.00     0.066 A 
ATOM      5  O   UNL d   1     -41.124-121.015 -51.328  0.00  0.00    -0.267 OA
ATOM      6  C   UNL d   1     -41.123-122.579 -52.791  0.00  0.00     0.066 A 
ATOM      7  C   UNL d   1     -41.124-123.018 -52.086  0.00  0.00     0.267 A 
ATOM      8  O   UNL d   1     -41.124-123.816 -52.025  0.00  0.00    -0.267 OA
ENDBRANCH   1   2
BRANCH   1   9
ATOM      9  C   UNL d   1     -41.757-123.091 -50.347  0.00  0.00     0.019 C 
BRANCH   9  10
ATOM     10  C   UNL d   1     -41.808-123.207 -49.538  0.00  0.00     0.002 A 
ATOM     11  C   UNL d   1     -41.154-123.476 -49.124  0.00  0.00     0.000 A 
ATOM     12  C   UNL d   1     -41.200-123.594 -48.314  0.00  0.00     0.000 A 
ATOM     13  C   UNL d   1     -41.909-123.441 -47.921  0.00  0.00     0.000 A 
ATOM     14  C   UNL d   1     -42.566-123.170 -48.341  0.00  0.00     0.000 A 
ATOM     15  C   UNL d   1     -42.504-123.057 -49.150  0.00  0.00     0.000 A 
ENDBRANCH   9  10
ENDBRANCH   1   9
TORSDOF 3
ENDMDL
MODEL 4
REMARK VINA RESULT:      -3.9      2.768      4.517
REMARK  3 active torsions:
REMARK  status: ('A' for Active; 'I' for Inactive)
REMARK    1  A    between atoms: C_6  and  N_1 
REMARK    2  A    between atoms: C_9  and  C_6 
REMARK    3  A    between atoms: C_10  and  C_9 
ROOT
ATOM      1  C   UNL d   1     -42.134-122.828 -50.114  0.00  0.00     0.086 C 
ENDROOT
BRANCH   1   2
ATOM      2  N   UNL d   1     -42.312-123.145 -49.396  0.00  0.00    -0.240 N 
ATOM      3  C   UNL d   1     -41.833-123.092 -48.702  0.00  0.00     0.267 A 
ATOM      4  C   UNL d   1     -42.231-123.500 -48.083  0.00  0.00     0.066 A 
ATOM      5  O   UNL d   1     -41.126-122.717 -48.654  0.00  0.00    -0.267 OA
ATOM      6  C   UNL d   1     -42.955-123.802 -48.404  0.00  0.00     0.066 A 
ATOM      7  C   UNL d   1     -43.004-123.585 -49.205  0.00  0.00     0.267 A 
ATOM      8  O   UNL d   1     -43.602-123.762 -49.706  0.00  0.00    -0.267 OA
ENDBRANCH   1   2
BRANCH   1   9
ATOM      9  C   UNL d   1     -41.412-123.009 -50.470  0.00  0.00     0.019 C 
BRANCH   9  10
ATOM     10  C   UNL d   1     -41.316-122.897 -51.275  0.00  0.00     0.002 A 
ATOM     11  C   UNL d   1     -41.279-122.136 -51.578  0.00  0.00     0.000 A 
ATOM     12  C   UNL d   1     -41.183-122.019 -52.383  0.00  0.00     0.000 A 
ATOM     13  C   UNL d   1     -41.123-122.671 -52.885  0.00  0.00     0.000 A 
ATOM     14  C   UNL d   1     -41.160-123.436 -52.577  0.00  0.00     0.000 A 
ATOM     15  C   UNL d   1     -41.257-123.538 -51.769  0.00  0.00     0.000 A 
ENDBRANCH   9  10
ENDBRANCH   1   9
TORSDOF 3
ENDMDL
