MODEL 1
REMARK VINA RESULT:      52.2      0.000      0.000
REMARK  4 active torsions:
REMARK  status: ('A' for Active; 'I' for Inactive)
REMARK    1  A    between atoms: C_11  and  C_3 
REMARK    2  A    between atoms: N_10  and  C_4 
REMARK    3  A    between atoms: C_13  and  N_10 
REMARK    4  A    between atoms: C_14  and  C_13 
ROOT
ATOM      1  C   UNL d   1     -51.261  25.826  33.464  0.00  0.00     0.167 A 
ATOM      2  N   UNL d   1     -50.519  26.178  33.533  0.00  0.00    -0.195 N 
ATOM      3  C   UNL d   1     -51.157  25.015  33.487  0.00  0.00     0.057 A 
ATOM      4  C   UNL d   1     -50.450  26.998  33.528  0.00  0.00     0.167 A 
ATOM      5  N   UNL d   1     -49.964  25.581  33.598  0.00  0.00    -0.161 NA
ATOM      6  N   UNL d   1     -51.934  26.294  33.390  0.00  0.00    -0.227 NA
ATOM      7  C   UNL d   1     -51.129  27.467  33.453  0.00  0.00     0.058 A 
ATOM      8  C   UNL d   1     -50.349  24.869  33.570  0.00  0.00     0.124 A 
ATOM      9  C   UNL d   1     -51.863  27.119  33.385  0.00  0.00     0.086 A 
ATOM     10  C   UNL d   1     -52.525  27.607  33.311  0.00  0.00     0.021 C 
ENDROOT
BRANCH   4  11
ATOM     11  N   UNL d   1     -49.708  27.350  33.597  0.00  0.00    -0.224 NA
BRANCH  11  12
ATOM     12  C   UNL d   1     -49.355  27.422  34.336  0.00  0.00     0.120 C 
BRANCH  12  13
ATOM     13  C   UNL d   1     -48.880  28.085  34.508  0.00  0.00     0.101 A 
ATOM     14  N   UNL d   1     -48.496  28.144  35.240  0.00  0.00    -0.242 NA
ATOM     15  C   UNL d   1     -48.029  28.795  35.408  0.00  0.00     0.099 A 
ATOM     16  C   UNL d   1     -47.937  29.399  34.848  0.00  0.00     0.021 A 
ATOM     17  C   UNL d   1     -48.319  29.338  34.120  0.00  0.00     0.003 A 
ATOM     18  C   UNL d   1     -48.792  28.679  33.949  0.00  0.00     0.021 A 
ENDBRANCH  12  13
ENDBRANCH  11  12
ENDBRANCH   4  11
BRANCH   3  19
ATOM     19  C   UNL d   1     -51.804  24.504  33.429  0.00  0.00     0.004 A 
ATOM     20  C   UNL d   1     -52.570  24.819  33.437  0.00  0.00     0.000 A 
ATOM     21  C   UNL d   1     -53.217  24.318  33.380  0.00  0.00     0.000 A 
ATOM     22  C   UNL d   1     -53.106  23.496  33.315  0.00  0.00     0.000 A 
ATOM     23  C   UNL d   1     -52.340  23.191  33.309  0.00  0.00     0.000 A 
ATOM     24  C   UNL d   1     -51.690  23.698  33.366  0.00  0.00     0.000 A 
ENDBRANCH   3  19
TORSDOF 4
ENDMDL
