MODEL 1
REMARK VINA RESULT:      -1.0      0.000      0.000
REMARK  4 active torsions:
REMARK  status: ('A' for Active; 'I' for Inactive)
REMARK    1  A    between atoms: C_5  and  N_1 
REMARK       I    between atoms: C_2  and  N_3 
REMARK    2  A    between atoms: C_6  and  C_2 
REMARK    3  A    between atoms: N_3  and  C_4 
REMARK    4  A    between atoms: O_18  and  C_11 
ROOT
ATOM      1  C   UNL d   1     -41.587-122.420 -51.116  0.00  0.00     0.108 A 
ATOM      2  C   UNL d   1     -41.266-121.163 -51.565  0.00  0.00     0.128 A 
ATOM      3  C   UNL d   1     -41.497-121.626 -50.959  0.00  0.00     0.045 A 
ATOM      4  C   UNL d   1     -41.453-122.728 -51.837  0.00  0.00     0.112 A 
ATOM      5  C   UNL d   1     -41.123-121.411 -52.285  0.00  0.00     0.026 A 
ATOM      6  C   UNL d   1     -41.211-122.217 -52.456  0.00  0.00     0.027 A 
ENDROOT
BRANCH   1   7
ATOM      7  N   UNL d   1     -41.842-122.962 -50.462  0.00  0.00    -0.204 NA
ATOM      8  C   UNL d   1     -42.189-122.617 -49.784  0.00  0.00     0.302 C 
ATOM      9  O   UNL d   1     -42.271-121.798 -49.768  0.00  0.00    -0.263 OA
BRANCH   8  10
ATOM     10  C   UNL d   1     -42.447-123.071 -49.143  0.00  0.00     0.158 A 
ATOM     11  O   UNL d   1     -43.191-123.405 -49.007  0.00  0.00    -0.300 OA
ATOM     12  C   UNL d   1     -43.150-123.807 -48.277  0.00  0.00     0.123 A 
ATOM     13  C   UNL d   1     -42.368-123.703 -47.985  0.00  0.00     0.029 A 
ATOM     14  C   UNL d   1     -41.974-123.260 -48.525  0.00  0.00     0.032 A 
ENDBRANCH   8  10
ENDBRANCH   1   7
BRANCH   4  15
ATOM     15  O   UNL d   1     -41.541-123.534 -52.009  0.00  0.00    -0.327 OA
ATOM     16  C   UNL d   1     -41.391-123.810 -52.827  0.00  0.00     0.181 C 
ENDBRANCH   4  15
BRANCH   2  17
ATOM     17  N   UNL d   1     -41.169-120.292 -51.385  0.00  0.00    -0.114 N 
ATOM     18  O   UNL d   1     -41.126-119.710 -52.022  0.00  0.00    -0.532 OA
ATOM     19  O   UNL d   1     -41.123-120.061 -50.578  0.00  0.00    -0.532 OA
ENDBRANCH   2  17
TORSDOF 4
ENDMDL
MODEL 2
REMARK VINA RESULT:       0.9      1.468      2.233
REMARK  4 active torsions:
REMARK  status: ('A' for Active; 'I' for Inactive)
REMARK    1  A    between atoms: C_5  and  N_1 
REMARK       I    between atoms: C_2  and  N_3 
REMARK    2  A    between atoms: C_6  and  C_2 
REMARK    3  A    between atoms: N_3  and  C_4 
REMARK    4  A    between atoms: O_18  and  C_11 
ROOT
ATOM      1  C   UNL d   1     -42.544-122.666 -50.449  0.00  0.00     0.108 A 
ATOM      2  C   UNL d   1     -42.107-122.467 -51.736  0.00  0.00     0.128 A 
ATOM      3  C   UNL d   1     -41.984-122.804 -51.024  0.00  0.00     0.045 A 
ATOM      4  C   UNL d   1     -43.187-122.217 -50.583  0.00  0.00     0.112 A 
ATOM      5  C   UNL d   1     -42.715-122.022 -51.918  0.00  0.00     0.026 A 
ATOM      6  C   UNL d   1     -43.292-121.875 -51.341  0.00  0.00     0.027 A 
ENDROOT
BRANCH   1   7
ATOM      7  N   UNL d   1     -42.435-123.027 -49.646  0.00  0.00    -0.204 NA
ATOM      8  C   UNL d   1     -41.784-122.772 -49.190  0.00  0.00     0.302 C 
ATOM      9  O   UNL d   1     -41.286-122.201 -49.515  0.00  0.00    -0.263 OA
BRANCH   8  10
ATOM     10  C   UNL d   1     -41.631-123.072 -48.435  0.00  0.00     0.158 A 
ATOM     11  O   UNL d   1     -41.273-123.786 -48.222  0.00  0.00    -0.300 OA
ATOM     12  C   UNL d   1     -41.256-123.813 -47.387  0.00  0.00     0.123 A 
ATOM     13  C   UNL d   1     -41.612-123.101 -47.114  0.00  0.00     0.029 A 
ATOM     14  C   UNL d   1     -41.825-122.681 -47.764  0.00  0.00     0.032 A 
ENDBRANCH   8  10
ENDBRANCH   1   7
BRANCH   4  15
ATOM     15  O   UNL d   1     -43.764-122.069 -50.006  0.00  0.00    -0.327 OA
ATOM     16  C   UNL d   1     -44.599-121.985 -50.256  0.00  0.00     0.181 C 
ENDBRANCH   4  15
BRANCH   2  17
ATOM     17  N   UNL d   1     -41.488-122.623 -52.362  0.00  0.00    -0.114 N 
ATOM     18  O   UNL d   1     -41.260-123.431 -52.568  0.00  0.00    -0.532 OA
ATOM     19  O   UNL d   1     -41.138-121.960 -52.741  0.00  0.00    -0.532 OA
ENDBRANCH   2  17
TORSDOF 4
ENDMDL
MODEL 3
REMARK VINA RESULT:       1.8      1.661      3.696
REMARK  4 active torsions:
REMARK  status: ('A' for Active; 'I' for Inactive)
REMARK    1  A    between atoms: C_5  and  N_1 
REMARK       I    between atoms: C_2  and  N_3 
REMARK    2  A    between atoms: C_6  and  C_2 
REMARK    3  A    between atoms: N_3  and  C_4 
REMARK    4  A    between atoms: O_18  and  C_11 
ROOT
ATOM      1  C   UNL d   1     -42.430-122.868 -50.873  0.00  0.00     0.108 A 
ATOM      2  C   UNL d   1     -43.471-122.271 -50.205  0.00  0.00     0.128 A 
ATOM      3  C   UNL d   1     -43.127-122.448 -50.902  0.00  0.00     0.045 A 
ATOM      4  C   UNL d   1     -42.101-123.096 -50.185  0.00  0.00     0.112 A 
ATOM      5  C   UNL d   1     -43.193-122.468 -49.510  0.00  0.00     0.026 A 
ATOM      6  C   UNL d   1     -42.484-122.896 -49.467  0.00  0.00     0.027 A 
ENDROOT
BRANCH   1   7
ATOM      7  N   UNL d   1     -42.023-123.081 -51.632  0.00  0.00    -0.204 NA
ATOM      8  C   UNL d   1     -42.064-122.534 -52.262  0.00  0.00     0.302 C 
ATOM      9  O   UNL d   1     -42.480-121.834 -52.137  0.00  0.00    -0.263 OA
BRANCH   8  10
ATOM     10  C   UNL d   1     -41.705-122.677 -52.992  0.00  0.00     0.158 A 
ATOM     11  O   UNL d   1     -41.453-123.394 -53.317  0.00  0.00    -0.300 OA
ATOM     12  C   UNL d   1     -41.129-123.224 -54.067  0.00  0.00     0.123 A 
ATOM     13  C   UNL d   1     -41.194-122.392 -54.178  0.00  0.00     0.029 A 
ATOM     14  C   UNL d   1     -41.542-122.095 -53.518  0.00  0.00     0.032 A 
ENDBRANCH   8  10
ENDBRANCH   1   7
BRANCH   4  15
ATOM     15  O   UNL d   1     -41.392-123.524 -50.142  0.00  0.00    -0.327 OA
ATOM     16  C   UNL d   1     -41.123-123.817 -49.362  0.00  0.00     0.181 C 
ENDBRANCH   4  15
BRANCH   2  17
ATOM     17  N   UNL d   1     -44.236-121.809 -50.246  0.00  0.00    -0.114 N 
ATOM     18  O   UNL d   1     -44.996-122.197 -50.107  0.00  0.00    -0.532 OA
ATOM     19  O   UNL d   1     -44.191-120.989 -50.424  0.00  0.00    -0.532 OA
ENDBRANCH   2  17
TORSDOF 4
ENDMDL
