MODEL 1
REMARK VINA RESULT:      -7.7      0.000      0.000
REMARK  5 active torsions:
REMARK  status: ('A' for Active; 'I' for Inactive)
REMARK    1  A    between atoms: C_7  and  C_3 
REMARK    2  A    between atoms: C_8  and  C_7 
REMARK       I    between atoms: N_14  and  C_8 
REMARK    3  A    between atoms: N_9  and  C_16 
REMARK    4  A    between atoms: C_15  and  N_14 
REMARK    5  A    between atoms: C_16  and  C_15 
ROOT
ATOM      1  C   UNL d   1      52.453  33.124  53.127  0.00  0.00     0.281 C 
ATOM      2  O   UNL d   1      51.714  33.023  53.479  0.00  0.00    -0.265 OA
ATOM      3  N   UNL d   1      52.882  32.469  52.873  0.00  0.00    -0.205 NA
ENDROOT
BRANCH   1   4
ATOM      4  C   UNL d   1      52.763  33.880  53.029  0.00  0.00     0.082 C 
BRANCH   4   5
ATOM      5  C   UNL d   1      53.037  34.304  53.684  0.00  0.00     0.096 A 
ATOM      6  C   UNL d   1      52.709  35.038  53.865  0.00  0.00     0.082 A 
ATOM      7  C   UNL d   1      52.976  35.473  54.520  0.00  0.00     0.285 A 
ATOM      8  N   UNL d   1      53.578  35.150  54.984  0.00  0.00    -0.152 NA
ATOM      9  O   UNL d   1      52.651  36.201  54.700  0.00  0.00    -0.265 OA
ATOM     10  C   UNL d   1      53.906  34.415  54.802  0.00  0.00     0.371 A 
ATOM     11  N   UNL d   1      53.636  33.996  54.155  0.00  0.00    -0.191 NA
ATOM     12  O   UNL d   1      54.508  34.105  55.275  0.00  0.00    -0.242 OA
ENDBRANCH   4   5
ENDBRANCH   1   4
BRANCH   3  13
ATOM     13  C   UNL d   1      52.573  31.713  52.971  0.00  0.00     0.121 C 
BRANCH  13  14
ATOM     14  C   UNL d   1      53.017  31.048  52.747  0.00  0.00     0.101 C 
BRANCH  14  15
ATOM     15  N   UNL d   1      52.975  30.347  53.173  0.00  0.00    -0.298 N 
ATOM     16  C   UNL d   1      53.572  30.187  53.720  0.00  0.00     0.107 A 
ATOM     17  C   UNL d   1      53.536  29.477  54.156  0.00  0.00     0.142 A 
ATOM     18  O   UNL d   1      52.917  28.952  54.040  0.00  0.00    -0.300 OA
ATOM     19  C   UNL d   1      52.330  29.132  53.489  0.00  0.00     0.142 A 
ATOM     20  C   UNL d   1      52.362  29.830  53.057  0.00  0.00     0.107 A 
ENDBRANCH  14  15
ENDBRANCH  13  14
ENDBRANCH   3  13
TORSDOF 5
ENDMDL
MODEL 2
REMARK VINA RESULT:      -6.8      3.188      4.854
REMARK  5 active torsions:
REMARK  status: ('A' for Active; 'I' for Inactive)
REMARK    1  A    between atoms: C_7  and  C_3 
REMARK    2  A    between atoms: C_8  and  C_7 
REMARK       I    between atoms: N_14  and  C_8 
REMARK    3  A    between atoms: N_9  and  C_16 
REMARK    4  A    between atoms: C_15  and  N_14 
REMARK    5  A    between atoms: C_16  and  C_15 
ROOT
ATOM      1  C   UNL d   1      51.075  33.980  52.986  0.00  0.00     0.281 C 
ATOM      2  O   UNL d   1      50.705  33.493  53.540  0.00  0.00    -0.265 OA
ATOM      3  N   UNL d   1      50.627  34.499  52.529  0.00  0.00    -0.205 NA
ENDROOT
BRANCH   1   4
ATOM      4  C   UNL d   1      51.891  33.948  52.889  0.00  0.00     0.082 C 
BRANCH   4   5
ATOM      5  C   UNL d   1      52.391  34.174  53.507  0.00  0.00     0.096 A 
ATOM      6  C   UNL d   1      52.799  33.600  53.937  0.00  0.00     0.082 A 
ATOM      7  C   UNL d   1      53.304  33.814  54.560  0.00  0.00     0.285 A 
ATOM      8  N   UNL d   1      53.386  34.616  54.738  0.00  0.00    -0.152 NA
ATOM      9  O   UNL d   1      53.708  33.245  54.985  0.00  0.00    -0.265 OA
ATOM     10  C   UNL d   1      52.978  35.190  54.309  0.00  0.00     0.371 A 
ATOM     11  N   UNL d   1      52.484  34.968  53.697  0.00  0.00    -0.191 NA
ATOM     12  O   UNL d   1      53.070  35.989  54.498  0.00  0.00    -0.242 OA
ENDBRANCH   4   5
ENDBRANCH   1   4
BRANCH   3  13
ATOM     13  C   UNL d   1      49.811  34.531  52.626  0.00  0.00     0.121 C 
BRANCH  13  14
ATOM     14  C   UNL d   1      49.331  34.855  52.030  0.00  0.00     0.101 C 
BRANCH  14  15
ATOM     15  N   UNL d   1      48.633  35.245  52.214  0.00  0.00    -0.298 N 
ATOM     16  C   UNL d   1      48.017  35.222  51.665  0.00  0.00     0.107 A 
ATOM     17  C   UNL d   1      47.305  35.617  51.845  0.00  0.00     0.142 A 
ATOM     18  O   UNL d   1      47.223  36.018  52.555  0.00  0.00    -0.300 OA
ATOM     19  C   UNL d   1      47.851  36.029  53.090  0.00  0.00     0.142 A 
ATOM     20  C   UNL d   1      48.554  35.642  52.916  0.00  0.00     0.107 A 
ENDBRANCH  14  15
ENDBRANCH  13  14
ENDBRANCH   3  13
TORSDOF 5
ENDMDL
MODEL 3
REMARK VINA RESULT:      -6.8      2.462      4.187
REMARK  5 active torsions:
REMARK  status: ('A' for Active; 'I' for Inactive)
REMARK    1  A    between atoms: C_7  and  C_3 
REMARK    2  A    between atoms: C_8  and  C_7 
REMARK       I    between atoms: N_14  and  C_8 
REMARK    3  A    between atoms: N_9  and  C_16 
REMARK    4  A    between atoms: C_15  and  N_14 
REMARK    5  A    between atoms: C_16  and  C_15 
ROOT
ATOM      1  C   UNL d   1      52.568  34.383  53.343  0.00  0.00     0.281 C 
ATOM      2  O   UNL d   1      52.465  34.999  53.882  0.00  0.00    -0.265 OA
ATOM      3  N   UNL d   1      51.931  34.118  52.893  0.00  0.00    -0.205 NA
ENDROOT
BRANCH   1   4
ATOM      4  C   UNL d   1      53.307  34.033  53.254  0.00  0.00     0.082 C 
BRANCH   4   5
ATOM      5  C   UNL d   1      53.661  33.644  53.892  0.00  0.00     0.096 A 
ATOM      6  C   UNL d   1      54.215  34.038  54.359  0.00  0.00     0.082 A 
ATOM      7  C   UNL d   1      54.576  33.657  55.002  0.00  0.00     0.285 A 
ATOM      8  N   UNL d   1      54.366  32.875  55.161  0.00  0.00    -0.152 NA
ATOM      9  O   UNL d   1      55.125  34.048  55.464  0.00  0.00    -0.265 OA
ATOM     10  C   UNL d   1      53.812  32.481  54.694  0.00  0.00     0.371 A 
ATOM     11  N   UNL d   1      53.462  32.865  54.064  0.00  0.00    -0.191 NA
ATOM     12  O   UNL d   1      53.611  31.698  54.865  0.00  0.00    -0.242 OA
ENDBRANCH   4   5
ENDBRANCH   1   4
BRANCH   3  13
ATOM     13  C   UNL d   1      51.192  34.468  52.982  0.00  0.00     0.121 C 
BRANCH  13  14
ATOM     14  C   UNL d   1      50.514  34.094  52.681  0.00  0.00     0.101 C 
BRANCH  14  15
ATOM     15  N   UNL d   1      49.831  34.520  52.522  0.00  0.00    -0.298 N 
ATOM     16  C   UNL d   1      49.502  34.463  51.767  0.00  0.00     0.107 A 
ATOM     17  C   UNL d   1      48.808  34.893  51.599  0.00  0.00     0.142 A 
ATOM     18  O   UNL d   1      48.463  35.362  52.176  0.00  0.00    -0.300 OA
ATOM     19  C   UNL d   1      48.807  35.405  52.925  0.00  0.00     0.142 A 
ATOM     20  C   UNL d   1      49.491  34.983  53.094  0.00  0.00     0.107 A 
ENDBRANCH  14  15
ENDBRANCH  13  14
ENDBRANCH   3  13
TORSDOF 5
ENDMDL
MODEL 4
REMARK VINA RESULT:      -6.8      1.186      4.938
REMARK  5 active torsions:
REMARK  status: ('A' for Active; 'I' for Inactive)
REMARK    1  A    between atoms: C_7  and  C_3 
REMARK    2  A    between atoms: C_8  and  C_7 
REMARK       I    between atoms: N_14  and  C_8 
REMARK    3  A    between atoms: N_9  and  C_16 
REMARK    4  A    between atoms: C_15  and  N_14 
REMARK    5  A    between atoms: C_16  and  C_15 
ROOT
ATOM      1  C   UNL d   1      53.815  31.698  53.758  0.00  0.00     0.281 C 
ATOM      2  O   UNL d   1      53.928  31.753  54.574  0.00  0.00    -0.265 OA
ATOM      3  N   UNL d   1      53.602  32.366  53.326  0.00  0.00    -0.205 NA
ENDROOT
BRANCH   1   4
ATOM      4  C   UNL d   1      53.915  30.977  53.376  0.00  0.00     0.082 C 
BRANCH   4   5
ATOM      5  C   UNL d   1      53.445  30.329  53.584  0.00  0.00     0.096 A 
ATOM      6  C   UNL d   1      53.744  29.749  54.088  0.00  0.00     0.082 A 
ATOM      7  C   UNL d   1      53.282  29.094  54.304  0.00  0.00     0.285 A 
ATOM      8  N   UNL d   1      52.516  29.039  54.000  0.00  0.00    -0.152 NA
ATOM      9  O   UNL d   1      53.578  28.519  54.803  0.00  0.00    -0.265 OA
ATOM     10  C   UNL d   1      52.217  29.619  53.496  0.00  0.00     0.371 A 
ATOM     11  N   UNL d   1      52.681  30.260  53.290  0.00  0.00    -0.191 NA
ATOM     12  O   UNL d   1      51.449  29.552  53.200  0.00  0.00    -0.242 OA
ENDBRANCH   4   5
ENDBRANCH   1   4
BRANCH   3  13
ATOM     13  C   UNL d   1      53.501  33.087  53.709  0.00  0.00     0.121 C 
BRANCH  13  14
ATOM     14  C   UNL d   1      53.337  33.773  53.270  0.00  0.00     0.101 C 
BRANCH  14  15
ATOM     15  N   UNL d   1      52.976  34.423  53.619  0.00  0.00    -0.298 N 
ATOM     16  C   UNL d   1      52.175  34.551  53.467  0.00  0.00     0.107 A 
ATOM     17  C   UNL d   1      51.802  35.209  53.818  0.00  0.00     0.142 A 
ATOM     18  O   UNL d   1      52.227  35.715  54.303  0.00  0.00    -0.300 OA
ATOM     19  C   UNL d   1      53.027  35.569  54.442  0.00  0.00     0.142 A 
ATOM     20  C   UNL d   1      53.398  34.922  54.098  0.00  0.00     0.107 A 
ENDBRANCH  14  15
ENDBRANCH  13  14
ENDBRANCH   3  13
TORSDOF 5
ENDMDL
MODEL 5
REMARK VINA RESULT:      -5.2     10.048     10.832
REMARK  5 active torsions:
REMARK  status: ('A' for Active; 'I' for Inactive)
REMARK    1  A    between atoms: C_7  and  C_3 
REMARK    2  A    between atoms: C_8  and  C_7 
REMARK       I    between atoms: N_14  and  C_8 
REMARK    3  A    between atoms: N_9  and  C_16 
REMARK    4  A    between atoms: C_15  and  N_14 
REMARK    5  A    between atoms: C_16  and  C_15 
ROOT
ATOM      1  C   UNL d   1      44.827  26.929  56.682  0.00  0.00     0.281 C 
ATOM      2  O   UNL d   1      45.651  26.893  56.662  0.00  0.00    -0.265 OA
ATOM      3  N   UNL d   1      44.381  26.285  56.428  0.00  0.00    -0.205 NA
ENDROOT
BRANCH   1   4
ATOM      4  C   UNL d   1      44.451  27.607  56.956  0.00  0.00     0.082 C 
BRANCH   4   5
ATOM      5  C   UNL d   1      44.652  27.924  57.693  0.00  0.00     0.096 A 
ATOM      6  C   UNL d   1      44.971  28.684  57.740  0.00  0.00     0.082 A 
ATOM      7  C   UNL d   1      45.178  29.013  58.473  0.00  0.00     0.285 A 
ATOM      8  N   UNL d   1      45.055  28.561  59.153  0.00  0.00    -0.152 NA
ATOM      9  O   UNL d   1      45.494  29.765  58.519  0.00  0.00    -0.265 OA
ATOM     10  C   UNL d   1      44.736  27.801  59.106  0.00  0.00     0.371 A 
ATOM     11  N   UNL d   1      44.537  27.487  58.378  0.00  0.00    -0.191 NA
ATOM     12  O   UNL d   1      44.619  27.360  59.794  0.00  0.00    -0.242 OA
ENDBRANCH   4   5
ENDBRANCH   1   4
BRANCH   3  13
ATOM     13  C   UNL d   1      44.758  25.607  56.154  0.00  0.00     0.121 C 
BRANCH  13  14
ATOM     14  C   UNL d   1      44.314  24.933  55.957  0.00  0.00     0.101 C 
BRANCH  14  15
ATOM     15  N   UNL d   1      44.667  24.280  55.608  0.00  0.00    -0.298 N 
ATOM     16  C   UNL d   1      44.649  24.220  54.785  0.00  0.00     0.107 A 
ATOM     17  C   UNL d   1      45.006  23.559  54.424  0.00  0.00     0.142 A 
ATOM     18  O   UNL d   1      45.368  22.983  54.882  0.00  0.00    -0.300 OA
ATOM     19  C   UNL d   1      45.375  23.062  55.703  0.00  0.00     0.142 A 
ATOM     20  C   UNL d   1      45.024  23.712  56.063  0.00  0.00     0.107 A 
ENDBRANCH  14  15
ENDBRANCH  13  14
ENDBRANCH   3  13
TORSDOF 5
ENDMDL
MODEL 6
REMARK VINA RESULT:      -5.1      9.908     11.370
REMARK  5 active torsions:
REMARK  status: ('A' for Active; 'I' for Inactive)
REMARK    1  A    between atoms: C_7  and  C_3 
REMARK    2  A    between atoms: C_8  and  C_7 
REMARK       I    between atoms: N_14  and  C_8 
REMARK    3  A    between atoms: N_9  and  C_16 
REMARK    4  A    between atoms: C_15  and  N_14 
REMARK    5  A    between atoms: C_16  and  C_15 
ROOT
ATOM      1  C   UNL d   1      44.820  26.511  58.809  0.00  0.00     0.281 C 
ATOM      2  O   UNL d   1      45.644  26.474  58.783  0.00  0.00    -0.265 OA
ATOM      3  N   UNL d   1      44.373  25.831  58.681  0.00  0.00    -0.205 NA
ENDROOT
BRANCH   1   4
ATOM      4  C   UNL d   1      44.444  27.226  58.963  0.00  0.00     0.082 C 
BRANCH   4   5
ATOM      5  C   UNL d   1      44.632  27.897  58.516  0.00  0.00     0.096 A 
ATOM      6  C   UNL d   1      45.030  28.528  58.870  0.00  0.00     0.082 A 
ATOM      7  C   UNL d   1      45.224  29.206  58.432  0.00  0.00     0.285 A 
ATOM      8  N   UNL d   1      45.008  29.232  57.636  0.00  0.00    -0.152 NA
ATOM      9  O   UNL d   1      45.617  29.831  58.782  0.00  0.00    -0.265 OA
ATOM     10  C   UNL d   1      44.610  28.602  57.283  0.00  0.00     0.371 A 
ATOM     11  N   UNL d   1      44.424  27.939  57.723  0.00  0.00    -0.191 NA
ATOM     12  O   UNL d   1      44.401  28.642  56.485  0.00  0.00    -0.242 OA
ENDBRANCH   4   5
ENDBRANCH   1   4
BRANCH   3  13
ATOM     13  C   UNL d   1      44.748  25.116  58.527  0.00  0.00     0.121 C 
BRANCH  13  14
ATOM     14  C   UNL d   1      44.315  24.408  58.530  0.00  0.00     0.101 C 
BRANCH  14  15
ATOM     15  N   UNL d   1      44.626  23.718  58.211  0.00  0.00    -0.298 N 
ATOM     16  C   UNL d   1      44.955  23.163  58.725  0.00  0.00     0.107 A 
ATOM     17  C   UNL d   1      45.273  22.461  58.407  0.00  0.00     0.142 A 
ATOM     18  O   UNL d   1      45.257  22.330  57.598  0.00  0.00    -0.300 OA
ATOM     19  C   UNL d   1      44.924  22.898  57.101  0.00  0.00     0.142 A 
ATOM     20  C   UNL d   1      44.609  23.591  57.410  0.00  0.00     0.107 A 
ENDBRANCH  14  15
ENDBRANCH  13  14
ENDBRANCH   3  13
TORSDOF 5
ENDMDL
MODEL 7
REMARK VINA RESULT:      -5.1     10.214     10.790
REMARK  5 active torsions:
REMARK  status: ('A' for Active; 'I' for Inactive)
REMARK    1  A    between atoms: C_7  and  C_3 
REMARK    2  A    between atoms: C_8  and  C_7 
REMARK       I    between atoms: N_14  and  C_8 
REMARK    3  A    between atoms: N_9  and  C_16 
REMARK    4  A    between atoms: C_15  and  N_14 
REMARK    5  A    between atoms: C_16  and  C_15 
ROOT
ATOM      1  C   UNL d   1      44.766  30.232  59.658  0.00  0.00     0.281 C 
ATOM      2  O   UNL d   1      45.568  30.389  59.547  0.00  0.00    -0.265 OA
ATOM      3  N   UNL d   1      44.415  29.592  59.278  0.00  0.00    -0.205 NA
ENDROOT
BRANCH   1   4
ATOM      4  C   UNL d   1      44.315  30.714  60.149  0.00  0.00     0.082 C 
BRANCH   4   5
ATOM      5  C   UNL d   1      44.437  30.702  60.967  0.00  0.00     0.096 A 
ATOM      6  C   UNL d   1      44.464  31.410  61.390  0.00  0.00     0.082 A 
ATOM      7  C   UNL d   1      44.586  31.410  62.211  0.00  0.00     0.285 A 
ATOM      8  N   UNL d   1      44.679  30.684  62.592  0.00  0.00    -0.152 NA
ATOM      9  O   UNL d   1      44.612  32.112  62.629  0.00  0.00    -0.265 OA
ATOM     10  C   UNL d   1      44.652  29.976  62.170  0.00  0.00     0.371 A 
ATOM     11  N   UNL d   1      44.531  29.987  61.362  0.00  0.00    -0.191 NA
ATOM     12  O   UNL d   1      44.746  29.257  62.565  0.00  0.00    -0.242 OA
ENDBRANCH   4   5
ENDBRANCH   1   4
BRANCH   3  13
ATOM     13  C   UNL d   1      44.865  29.109  58.786  0.00  0.00     0.121 C 
BRANCH  13  14
ATOM     14  C   UNL d   1      44.511  28.473  58.387  0.00  0.00     0.101 C 
BRANCH  14  15
ATOM     15  N   UNL d   1      44.945  27.997  57.878  0.00  0.00    -0.298 N 
ATOM     16  C   UNL d   1      44.930  28.172  57.072  0.00  0.00     0.107 A 
ATOM     17  C   UNL d   1      45.369  27.692  56.550  0.00  0.00     0.142 A 
ATOM     18  O   UNL d   1      45.805  27.061  56.837  0.00  0.00    -0.300 OA
ATOM     19  C   UNL d   1      45.807  26.903  57.647  0.00  0.00     0.142 A 
ATOM     20  C   UNL d   1      45.376  27.373  58.164  0.00  0.00     0.107 A 
ENDBRANCH  14  15
ENDBRANCH  13  14
ENDBRANCH   3  13
TORSDOF 5
ENDMDL
MODEL 8
REMARK VINA RESULT:      -5.0      9.612     11.536
REMARK  5 active torsions:
REMARK  status: ('A' for Active; 'I' for Inactive)
REMARK    1  A    between atoms: C_7  and  C_3 
REMARK    2  A    between atoms: C_8  and  C_7 
REMARK       I    between atoms: N_14  and  C_8 
REMARK    3  A    between atoms: N_9  and  C_16 
REMARK    4  A    between atoms: C_15  and  N_14 
REMARK    5  A    between atoms: C_16  and  C_15 
ROOT
ATOM      1  C   UNL d   1      44.768  27.018  56.612  0.00  0.00     0.281 C 
ATOM      2  O   UNL d   1      45.591  27.002  56.667  0.00  0.00    -0.265 OA
ATOM      3  N   UNL d   1      44.342  27.621  56.978  0.00  0.00    -0.205 NA
ENDROOT
BRANCH   1   4
ATOM      4  C   UNL d   1      44.371  26.433  56.192  0.00  0.00     0.082 C 
BRANCH   4   5
ATOM      5  C   UNL d   1      44.513  25.635  56.359  0.00  0.00     0.096 A 
ATOM      6  C   UNL d   1      44.826  25.143  55.776  0.00  0.00     0.082 A 
ATOM      7  C   UNL d   1      44.973  24.341  55.930  0.00  0.00     0.285 A 
ATOM      8  N   UNL d   1      44.798  24.050  56.683  0.00  0.00    -0.152 NA
ATOM      9  O   UNL d   1      45.283  23.853  55.353  0.00  0.00    -0.265 OA
ATOM     10  C   UNL d   1      44.485  24.542  57.267  0.00  0.00     0.371 A 
ATOM     11  N   UNL d   1      44.345  25.330  57.103  0.00  0.00    -0.191 NA
ATOM     12  O   UNL d   1      44.315  24.237  58.015  0.00  0.00    -0.242 OA
ENDBRANCH   4   5
ENDBRANCH   1   4
BRANCH   3  13
ATOM     13  C   UNL d   1      44.739  28.207  57.398  0.00  0.00     0.121 C 
BRANCH  13  14
ATOM     14  C   UNL d   1      44.314  28.746  57.865  0.00  0.00     0.101 C 
BRANCH  14  15
ATOM     15  N   UNL d   1      44.654  29.451  58.115  0.00  0.00    -0.298 N 
ATOM     16  C   UNL d   1      44.605  30.107  57.616  0.00  0.00     0.107 A 
ATOM     17  C   UNL d   1      44.948  30.825  57.865  0.00  0.00     0.142 A 
ATOM     18  O   UNL d   1      45.327  30.872  58.591  0.00  0.00    -0.300 OA
ATOM     19  C   UNL d   1      45.365  30.205  59.074  0.00  0.00     0.142 A 
ATOM     20  C   UNL d   1      45.028  29.496  58.833  0.00  0.00     0.107 A 
ENDBRANCH  14  15
ENDBRANCH  13  14
ENDBRANCH   3  13
TORSDOF 5
ENDMDL
