MODEL 1
REMARK VINA RESULT:      26.4      0.000      0.000
REMARK  6 active torsions:
REMARK  status: ('A' for Active; 'I' for Inactive)
REMARK    1  A    between atoms: C_2  and  S_1 
REMARK    2  A    between atoms: N_7  and  S_1 
REMARK    3  A    between atoms: C_15  and  N_7 
REMARK    4  A    between atoms: C_14  and  O_21 
REMARK    5  A    between atoms: C_24  and  C_15 
REMARK    6  A    between atoms: O_21  and  C_24 
ROOT
ATOM      1  S   UNL d   1      14.566  12.480  -1.223  0.00  0.00     0.285 S 
ATOM      2  O   UNL d   1      15.204  12.763  -1.676  0.00  0.00    -0.198 OA
ATOM      3  O   UNL d   1      13.932  12.200  -0.775  0.00  0.00    -0.198 OA
ENDROOT
BRANCH   1   4
ATOM      4  C   UNL d   1      14.114  12.403  -1.924  0.00  0.00     0.107 A 
ATOM      5  C   UNL d   1      14.290  12.858  -2.580  0.00  0.00     0.040 A 
ATOM      6  C   UNL d   1      13.842  12.774  -3.259  0.00  0.00     0.123 A 
ATOM      7  O   UNL d   1      14.016  13.231  -3.923  0.00  0.00    -0.301 OA
ATOM      8  C   UNL d   1      13.218  12.234  -3.282  0.00  0.00     0.123 A 
ATOM      9  C   UNL d   1      13.567  13.150  -4.611  0.00  0.00     0.149 A 
ATOM     10  C   UNL d   1      12.943  12.610  -4.634  0.00  0.00     0.149 A 
ATOM     11  O   UNL d   1      12.769  12.152  -3.969  0.00  0.00    -0.301 OA
ATOM     12  C   UNL d   1      13.042  11.779  -2.626  0.00  0.00     0.028 A 
ATOM     13  C   UNL d   1      13.489  11.863  -1.947  0.00  0.00     0.015 A 
ENDBRANCH   1   4
BRANCH   1  14
ATOM     14  N   UNL d   1      15.021  12.561  -0.537  0.00  0.00    -0.155 NA
BRANCH  14  15
ATOM     15  C   UNL d   1      14.978  13.253  -0.092  0.00  0.00     0.139 C 
BRANCH  15  16
ATOM     16  C   UNL d   1      15.011  13.989  -0.459  0.00  0.00     0.144 C 
BRANCH  16  17
ATOM     17  O   UNL d   1      15.370  14.628  -0.085  0.00  0.00    -0.303 OA
BRANCH  17  18
ATOM     18  C   UNL d   1      15.339  15.380  -0.418  0.00  0.00     0.100 A 
ATOM     19  C   UNL d   1      15.686  16.017  -0.024  0.00  0.00     0.027 A 
ATOM     20  C   UNL d   1      15.657  16.773  -0.355  0.00  0.00     0.032 A 
ATOM     21  C   UNL d   1      15.281  16.891  -1.080  0.00  0.00     0.140 A 
ATOM     22  C   UNL d   1      14.934  16.255  -1.474  0.00  0.00     0.032 A 
ATOM     23  F   UNL d   1      15.248  17.656  -1.421  0.00  0.00    -0.204 F 
ATOM     24  C   UNL d   1      14.964  15.503  -1.141  0.00  0.00     0.027 A 
ENDBRANCH  17  18
ENDBRANCH  16  17
ENDBRANCH  15  16
ENDBRANCH  14  15
ENDBRANCH   1  14
TORSDOF 6
ENDMDL
MODEL 2
REMARK VINA RESULT:      28.6      1.610      4.245
REMARK  6 active torsions:
REMARK  status: ('A' for Active; 'I' for Inactive)
REMARK    1  A    between atoms: C_2  and  S_1 
REMARK    2  A    between atoms: N_7  and  S_1 
REMARK    3  A    between atoms: C_15  and  N_7 
REMARK    4  A    between atoms: C_14  and  O_21 
REMARK    5  A    between atoms: C_24  and  C_15 
REMARK    6  A    between atoms: O_21  and  C_24 
ROOT
ATOM      1  S   UNL d   1      15.013  13.176  -0.615  0.00  0.00     0.285 S 
ATOM      2  O   UNL d   1      15.656  13.044  -0.103  0.00  0.00    -0.198 OA
ATOM      3  O   UNL d   1      14.376  13.308  -1.123  0.00  0.00    -0.198 OA
ENDROOT
BRANCH   1   4
ATOM      4  C   UNL d   1      15.191  13.994  -0.614  0.00  0.00     0.107 A 
ATOM      5  C   UNL d   1      14.880  14.484  -1.190  0.00  0.00     0.040 A 
ATOM      6  C   UNL d   1      15.060  15.281  -1.179  0.00  0.00     0.123 A 
ATOM      7  O   UNL d   1      14.749  15.780  -1.758  0.00  0.00    -0.301 OA
ATOM      8  C   UNL d   1      15.551  15.589  -0.590  0.00  0.00     0.123 A 
ATOM      9  C   UNL d   1      14.928  16.585  -1.751  0.00  0.00     0.149 A 
ATOM     10  C   UNL d   1      15.419  16.893  -1.163  0.00  0.00     0.149 A 
ATOM     11  O   UNL d   1      15.730  16.395  -0.583  0.00  0.00    -0.301 OA
ATOM     12  C   UNL d   1      15.862  15.099  -0.014  0.00  0.00     0.028 A 
ATOM     13  C   UNL d   1      15.682  14.302  -0.025  0.00  0.00     0.015 A 
ENDBRANCH   1   4
BRANCH   1  14
ATOM     14  N   UNL d   1      14.846  12.365  -0.610  0.00  0.00    -0.155 NA
BRANCH  14  15
ATOM     15  C   UNL d   1      14.571  11.996  -1.293  0.00  0.00     0.139 C 
BRANCH  15  16
ATOM     16  C   UNL d   1      13.868  12.239  -1.646  0.00  0.00     0.144 C 
BRANCH  16  17
ATOM     17  O   UNL d   1      13.525  11.792  -2.246  0.00  0.00    -0.303 OA
BRANCH  17  18
ATOM     18  C   UNL d   1      13.389  12.122  -2.988  0.00  0.00     0.100 A 
ATOM     19  C   UNL d   1      13.730  11.780  -3.657  0.00  0.00     0.027 A 
ATOM     20  C   UNL d   1      13.595  12.107  -4.403  0.00  0.00     0.032 A 
ATOM     21  C   UNL d   1      13.120  12.778  -4.479  0.00  0.00     0.140 A 
ATOM     22  C   UNL d   1      12.779  13.120  -3.810  0.00  0.00     0.032 A 
ATOM     23  F   UNL d   1      12.979  13.115  -5.233  0.00  0.00    -0.204 F 
ATOM     24  C   UNL d   1      12.915  12.790  -3.069  0.00  0.00     0.027 A 
ENDBRANCH  17  18
ENDBRANCH  16  17
ENDBRANCH  15  16
ENDBRANCH  14  15
ENDBRANCH   1  14
TORSDOF 6
ENDMDL
