MODEL 1
REMARK VINA RESULT:      -8.7      0.000      0.000
REMARK  7 active torsions:
REMARK  status: ('A' for Active; 'I' for Inactive)
REMARK    1  A    between atoms: C_2  and  N_1 
REMARK    2  A    between atoms: C_4  and  C_2 
REMARK    3  A    between atoms: O_3  and  C_9 
REMARK    4  A    between atoms: C_7  and  O_3 
REMARK    5  A    between atoms: C_9  and  C_4 
REMARK    6  A    between atoms: C_10  and  C_12 
REMARK    7  A    between atoms: C_17  and  C_10 
ROOT
ATOM      1  N   UNL d   1      51.127  34.130  53.034  0.00  0.00    -0.300 N 
ATOM      2  C   UNL d   1      51.829  34.455  52.856  0.00  0.00     0.080 A 
ATOM      3  C   UNL d   1      51.079  33.327  53.302  0.00  0.00     0.080 A 
ATOM      4  C   UNL d   1      52.498  33.240  53.186  0.00  0.00     0.003 A 
ATOM      5  C   UNL d   1      52.525  34.012  52.930  0.00  0.00     0.019 A 
ATOM      6  C   UNL d   1      51.776  32.891  53.374  0.00  0.00     0.019 A 
ENDROOT
BRANCH   1   7
ATOM      7  C   UNL d   1      50.436  34.616  52.945  0.00  0.00     0.125 C 
BRANCH   7   8
ATOM      8  C   UNL d   1      49.911  34.512  52.281  0.00  0.00     0.238 C 
ATOM      9  O   UNL d   1      50.187  34.186  51.577  0.00  0.00    -0.283 OA
BRANCH   8  10
ATOM     10  C   UNL d   1      49.125  34.744  52.357  0.00  0.00     0.166 C 
BRANCH  10  11
ATOM     11  O   UNL d   1      48.770  35.214  51.783  0.00  0.00    -0.302 OA
BRANCH  11  12
ATOM     12  C   UNL d   1      48.002  35.528  51.925  0.00  0.00     0.100 A 
ATOM     13  C   UNL d   1      47.360  35.341  51.400  0.00  0.00     0.026 A 
ATOM     14  C   UNL d   1      46.605  35.647  51.536  0.00  0.00     0.013 A 
ATOM     15  C   UNL d   1      46.470  36.135  52.179  0.00  0.00     0.058 A 
ATOM     16  C   UNL d   1      47.087  36.327  52.702  0.00  0.00     0.013 A 
ATOM     17 CL   UNL d   1      45.690  36.451  52.319  0.00  0.00    -0.082 Cl
ATOM     18  C   UNL d   1      47.842  36.024  52.570  0.00  0.00     0.026 A 
ENDBRANCH  11  12
ENDBRANCH  10  11
ENDBRANCH   8  10
ENDBRANCH   7   8
ENDBRANCH   1   7
BRANCH   4  19
ATOM     19  C   UNL d   1      53.244  32.786  53.259  0.00  0.00     0.000 C 
BRANCH  19  20
ATOM     20  C   UNL d   1      53.738  32.908  53.919  0.00  0.00     0.000 A 
ATOM     21  C   UNL d   1      53.577  32.558  54.634  0.00  0.00     0.000 A 
ATOM     22  C   UNL d   1      54.078  32.687  55.291  0.00  0.00     0.000 A 
ATOM     23  C   UNL d   1      54.734  33.174  55.198  0.00  0.00     0.000 A 
ATOM     24  C   UNL d   1      54.895  33.525  54.482  0.00  0.00     0.000 A 
ATOM     25  C   UNL d   1      54.406  33.399  53.840  0.00  0.00     0.000 A 
ENDBRANCH  19  20
ENDBRANCH   4  19
TORSDOF 7
ENDMDL
MODEL 2
REMARK VINA RESULT:      -8.0      1.422      1.986
REMARK  7 active torsions:
REMARK  status: ('A' for Active; 'I' for Inactive)
REMARK    1  A    between atoms: C_2  and  N_1 
REMARK    2  A    between atoms: C_4  and  C_2 
REMARK    3  A    between atoms: O_3  and  C_9 
REMARK    4  A    between atoms: C_7  and  O_3 
REMARK    5  A    between atoms: C_9  and  C_4 
REMARK    6  A    between atoms: C_10  and  C_12 
REMARK    7  A    between atoms: C_17  and  C_10 
ROOT
ATOM      1  N   UNL d   1      51.969  33.765  53.154  0.00  0.00    -0.300 N 
ATOM      2  C   UNL d   1      52.125  33.302  52.527  0.00  0.00     0.080 A 
ATOM      3  C   UNL d   1      52.391  33.664  53.882  0.00  0.00     0.080 A 
ATOM      4  C   UNL d   1      53.120  32.601  53.270  0.00  0.00     0.003 A 
ATOM      5  C   UNL d   1      52.705  32.713  52.580  0.00  0.00     0.019 A 
ATOM      6  C   UNL d   1      52.967  33.075  53.927  0.00  0.00     0.019 A 
ENDROOT
BRANCH   1   7
ATOM      7  C   UNL d   1      51.367  34.358  53.062  0.00  0.00     0.125 C 
BRANCH   7   8
ATOM      8  C   UNL d   1      50.543  34.163  53.161  0.00  0.00     0.238 C 
ATOM      9  O   UNL d   1      50.317  33.517  53.618  0.00  0.00    -0.283 OA
BRANCH   8  10
ATOM     10  C   UNL d   1      49.978  34.633  52.789  0.00  0.00     0.166 C 
BRANCH  10  11
ATOM     11  O   UNL d   1      49.423  35.048  53.232  0.00  0.00    -0.302 OA
BRANCH  11  12
ATOM     12  C   UNL d   1      48.752  35.380  52.845  0.00  0.00     0.100 A 
ATOM     13  C   UNL d   1      48.264  35.947  53.248  0.00  0.00     0.026 A 
ATOM     14  C   UNL d   1      47.606  36.275  52.873  0.00  0.00     0.013 A 
ATOM     15  C   UNL d   1      47.418  36.054  52.107  0.00  0.00     0.058 A 
ATOM     16  C   UNL d   1      47.886  35.501  51.699  0.00  0.00     0.013 A 
ATOM     17 CL   UNL d   1      46.738  36.393  51.720  0.00  0.00    -0.082 Cl
ATOM     18  C   UNL d   1      48.543  35.171  52.070  0.00  0.00     0.026 A 
ENDBRANCH  11  12
ENDBRANCH  10  11
ENDBRANCH   8  10
ENDBRANCH   7   8
ENDBRANCH   1   7
BRANCH   4  19
ATOM     19  C   UNL d   1      53.731  31.973  53.307  0.00  0.00     0.000 C 
BRANCH  19  20
ATOM     20  C   UNL d   1      53.500  31.183  53.441  0.00  0.00     0.000 A 
ATOM     21  C   UNL d   1      53.197  30.727  52.841  0.00  0.00     0.000 A 
ATOM     22  C   UNL d   1      52.969  29.935  52.987  0.00  0.00     0.000 A 
ATOM     23  C   UNL d   1      53.058  29.631  53.745  0.00  0.00     0.000 A 
ATOM     24  C   UNL d   1      53.361  30.088  54.345  0.00  0.00     0.000 A 
ATOM     25  C   UNL d   1      53.585  30.861  54.204  0.00  0.00     0.000 A 
ENDBRANCH  19  20
ENDBRANCH   4  19
TORSDOF 7
ENDMDL
MODEL 3
REMARK VINA RESULT:      -7.9      2.226      6.375
REMARK  7 active torsions:
REMARK  status: ('A' for Active; 'I' for Inactive)
REMARK    1  A    between atoms: C_2  and  N_1 
REMARK    2  A    between atoms: C_4  and  C_2 
REMARK    3  A    between atoms: O_3  and  C_9 
REMARK    4  A    between atoms: C_7  and  O_3 
REMARK    5  A    between atoms: C_9  and  C_4 
REMARK    6  A    between atoms: C_10  and  C_12 
REMARK    7  A    between atoms: C_17  and  C_10 
ROOT
ATOM      1  N   UNL d   1      49.581  34.555  52.580  0.00  0.00    -0.300 N 
ATOM      2  C   UNL d   1      49.226  34.537  51.870  0.00  0.00     0.080 A 
ATOM      3  C   UNL d   1      49.347  35.122  53.166  0.00  0.00     0.080 A 
ATOM      4  C   UNL d   1      48.384  35.627  52.242  0.00  0.00     0.003 A 
ATOM      5  C   UNL d   1      48.621  35.076  51.693  0.00  0.00     0.019 A 
ATOM      6  C   UNL d   1      48.744  35.655  52.983  0.00  0.00     0.019 A 
ENDROOT
BRANCH   1   7
ATOM      7  C   UNL d   1      50.196  33.987  52.725  0.00  0.00     0.125 C 
BRANCH   7   8
ATOM      8  C   UNL d   1      51.011  34.173  52.552  0.00  0.00     0.238 C 
ATOM      9  O   UNL d   1      51.230  34.443  51.807  0.00  0.00    -0.283 OA
BRANCH   8  10
ATOM     10  C   UNL d   1      51.573  34.077  53.146  0.00  0.00     0.166 C 
BRANCH  10  11
ATOM     11  O   UNL d   1      52.358  33.920  52.958  0.00  0.00    -0.302 OA
BRANCH  11  12
ATOM     12  C   UNL d   1      52.900  33.737  53.575  0.00  0.00     0.100 A 
ATOM     13  C   UNL d   1      53.231  32.956  53.636  0.00  0.00     0.026 A 
ATOM     14  C   UNL d   1      53.763  32.772  54.240  0.00  0.00     0.013 A 
ATOM     15  C   UNL d   1      53.978  33.343  54.786  0.00  0.00     0.058 A 
ATOM     16  C   UNL d   1      53.663  34.111  54.740  0.00  0.00     0.013 A 
ATOM     17 CL   UNL d   1      54.527  33.152  55.409  0.00  0.00    -0.082 Cl
ATOM     18  C   UNL d   1      53.132  34.299  54.140  0.00  0.00     0.026 A 
ENDBRANCH  11  12
ENDBRANCH  10  11
ENDBRANCH   8  10
ENDBRANCH   7   8
ENDBRANCH   1   7
BRANCH   4  19
ATOM     19  C   UNL d   1      47.743  36.188  52.038  0.00  0.00     0.000 C 
BRANCH  19  20
ATOM     20  C   UNL d   1      46.951  35.985  52.200  0.00  0.00     0.000 A 
ATOM     21  C   UNL d   1      46.630  36.101  52.938  0.00  0.00     0.000 A 
ATOM     22  C   UNL d   1      45.834  35.894  53.090  0.00  0.00     0.000 A 
ATOM     23  C   UNL d   1      45.386  35.572  52.481  0.00  0.00     0.000 A 
ATOM     24  C   UNL d   1      45.707  35.455  51.743  0.00  0.00     0.000 A 
ATOM     25  C   UNL d   1      46.485  35.657  51.593  0.00  0.00     0.000 A 
ENDBRANCH  19  20
ENDBRANCH   4  19
TORSDOF 7
ENDMDL
