MODEL 1
REMARK VINA RESULT:      -8.2      0.000      0.000
REMARK  4 active torsions:
REMARK  status: ('A' for Active; 'I' for Inactive)
REMARK    1  A    between atoms: C_5  and  C_4 
REMARK    2  A    between atoms: C_6  and  C_5 
REMARK       I    between atoms: N_11  and  C_6 
REMARK    3  A    between atoms: C_9  and  C_10 
REMARK    4  A    between atoms: C_14  and  N_11 
ROOT
ATOM      1  C   UNL d   1     -46.931  14.195  22.891  0.00  0.00     0.074 C 
ENDROOT
BRANCH   1   2
ATOM      2  C   UNL d   1     -46.568  13.475  22.987  0.00  0.00     0.092 A 
ATOM      3  C   UNL d   1     -45.757  13.399  22.821  0.00  0.00     0.285 A 
ATOM      4  N   UNL d   1     -45.379  12.663  22.917  0.00  0.00    -0.207 NA
ATOM      5  O   UNL d   1     -45.323  14.046  22.562  0.00  0.00    -0.265 OA
ATOM      6  C   UNL d   1     -45.813  12.026  23.173  0.00  0.00     0.091 A 
ATOM      7  C   UNL d   1     -46.624  12.101  23.339  0.00  0.00     0.047 A 
ATOM      8  C   UNL d   1     -45.435  11.286  23.270  0.00  0.00     0.020 A 
ATOM      9  S   UNL d   1     -46.987  12.812  23.246  0.00  0.00    -0.080 SA
ATOM     10  C   UNL d   1     -47.036  11.445  23.595  0.00  0.00     0.008 A 
ATOM     11  C   UNL d   1     -46.681  10.705  23.698  0.00  0.00     0.001 A 
ATOM     12  C   UNL d   1     -45.870  10.629  23.532  0.00  0.00     0.002 A 
ENDBRANCH   1   2
BRANCH   1  13
ATOM     13  C   UNL d   1     -47.736  14.268  22.947  0.00  0.00     0.280 C 
ATOM     14  N   UNL d   1     -48.167  14.608  22.337  0.00  0.00    -0.208 NA
ATOM     15  O   UNL d   1     -48.119  13.999  23.617  0.00  0.00    -0.265 OA
BRANCH  14  16
ATOM     16  C   UNL d   1     -48.980  14.677  22.400  0.00  0.00     0.085 A 
ATOM     17  C   UNL d   1     -49.480  14.149  21.997  0.00  0.00     0.025 A 
ATOM     18  C   UNL d   1     -50.291  14.234  22.072  0.00  0.00     0.066 A 
ATOM     19  C   UNL d   1     -50.605  14.805  22.518  0.00  0.00     0.006 A 
ATOM     20  C   UNL d   1     -50.123  15.348  22.933  0.00  0.00     0.002 A 
ATOM     21  C   UNL d   1     -49.305  15.268  22.862  0.00  0.00     0.019 A 
BRANCH  18  22
ATOM     22  C   UNL d   1     -50.805  13.737  21.693  0.00  0.00     0.211 C 
ATOM     23  O   UNL d   1     -51.063  13.035  22.032  0.00  0.00    -0.644 OA
ATOM     24  O   UNL d   1     -51.062  13.962  20.947  0.00  0.00    -0.644 OA
ENDBRANCH  18  22
ENDBRANCH  14  16
ENDBRANCH   1  13
TORSDOF 4
ENDMDL
MODEL 2
REMARK VINA RESULT:      -7.7      1.427      4.849
REMARK  4 active torsions:
REMARK  status: ('A' for Active; 'I' for Inactive)
REMARK    1  A    between atoms: C_5  and  C_4 
REMARK    2  A    between atoms: C_6  and  C_5 
REMARK       I    between atoms: N_11  and  C_6 
REMARK    3  A    between atoms: C_9  and  C_10 
REMARK    4  A    between atoms: C_14  and  N_11 
ROOT
ATOM      1  C   UNL d   1     -49.504  12.245  22.564  0.00  0.00     0.074 C 
ENDROOT
BRANCH   1   2
ATOM      2  C   UNL d   1     -49.887  12.961  22.525  0.00  0.00     0.092 A 
ATOM      3  C   UNL d   1     -50.348  13.143  21.858  0.00  0.00     0.285 A 
ATOM      4  N   UNL d   1     -50.743  13.876  21.812  0.00  0.00    -0.207 NA
ATOM      5  O   UNL d   1     -50.419  12.606  21.242  0.00  0.00    -0.265 OA
ATOM      6  C   UNL d   1     -50.669  14.404  22.424  0.00  0.00     0.091 A 
ATOM      7  C   UNL d   1     -50.208  14.222  23.091  0.00  0.00     0.047 A 
ATOM      8  C   UNL d   1     -51.064  15.140  22.379  0.00  0.00     0.020 A 
ATOM      9  S   UNL d   1     -49.828  13.515  23.134  0.00  0.00    -0.080 SA
ATOM     10  C   UNL d   1     -50.152  14.772  23.692  0.00  0.00     0.008 A 
ATOM     11  C   UNL d   1     -50.534  15.505  23.667  0.00  0.00     0.001 A 
ATOM     12  C   UNL d   1     -50.996  15.686  23.000  0.00  0.00     0.002 A 
ENDBRANCH   1   2
BRANCH   1  13
ATOM     13  C   UNL d   1     -48.765  12.185  22.890  0.00  0.00     0.280 C 
ATOM     14  N   UNL d   1     -48.111  12.047  22.414  0.00  0.00    -0.208 NA
ATOM     15  O   UNL d   1     -48.672  12.263  23.698  0.00  0.00    -0.265 OA
BRANCH  14  16
ATOM     16  C   UNL d   1     -47.367  11.987  22.749  0.00  0.00     0.085 A 
ATOM     17  C   UNL d   1     -46.769  12.531  22.548  0.00  0.00     0.025 A 
ATOM     18  C   UNL d   1     -46.031  12.455  22.893  0.00  0.00     0.066 A 
ATOM     19  C   UNL d   1     -45.876  11.880  23.411  0.00  0.00     0.006 A 
ATOM     20  C   UNL d   1     -46.460  11.322  23.629  0.00  0.00     0.002 A 
ATOM     21  C   UNL d   1     -47.205  11.392  23.285  0.00  0.00     0.019 A 
BRANCH  18  22
ATOM     22  C   UNL d   1     -45.429  12.968  22.718  0.00  0.00     0.211 C 
ATOM     23  O   UNL d   1     -45.411  13.735  23.008  0.00  0.00    -0.644 OA
ATOM     24  O   UNL d   1     -44.828  12.687  22.234  0.00  0.00    -0.644 OA
ENDBRANCH  18  22
ENDBRANCH  14  16
ENDBRANCH   1  13
TORSDOF 4
ENDMDL
MODEL 3
REMARK VINA RESULT:      -7.7      1.660      4.463
REMARK  4 active torsions:
REMARK  status: ('A' for Active; 'I' for Inactive)
REMARK    1  A    between atoms: C_5  and  C_4 
REMARK    2  A    between atoms: C_6  and  C_5 
REMARK       I    between atoms: N_11  and  C_6 
REMARK    3  A    between atoms: C_9  and  C_10 
REMARK    4  A    between atoms: C_14  and  N_11 
ROOT
ATOM      1  C   UNL d   1     -47.739  14.340  22.686  0.00  0.00     0.074 C 
ENDROOT
BRANCH   1   2
ATOM      2  C   UNL d   1     -48.504  14.096  22.808  0.00  0.00     0.092 A 
ATOM      3  C   UNL d   1     -49.110  14.663  22.868  0.00  0.00     0.285 A 
ATOM      4  N   UNL d   1     -49.897  14.420  22.993  0.00  0.00    -0.207 NA
ATOM      5  O   UNL d   1     -48.939  15.463  22.804  0.00  0.00    -0.265 OA
ATOM      6  C   UNL d   1     -50.061  13.627  23.056  0.00  0.00     0.091 A 
ATOM      7  C   UNL d   1     -49.456  13.060  22.996  0.00  0.00     0.047 A 
ATOM      8  C   UNL d   1     -50.850  13.381  23.181  0.00  0.00     0.020 A 
ATOM      9  S   UNL d   1     -48.697  13.296  22.875  0.00  0.00    -0.080 SA
ATOM     10  C   UNL d   1     -49.649  12.270  23.062  0.00  0.00     0.008 A 
ATOM     11  C   UNL d   1     -50.423  12.007  23.187  0.00  0.00     0.001 A 
ATOM     12  C   UNL d   1     -51.028  12.573  23.247  0.00  0.00     0.002 A 
ENDBRANCH   1   2
BRANCH   1  13
ATOM     13  C   UNL d   1     -47.157  13.807  22.502  0.00  0.00     0.280 C 
ATOM     14  N   UNL d   1     -46.492  13.735  22.978  0.00  0.00    -0.208 NA
ATOM     15  O   UNL d   1     -47.234  13.340  21.836  0.00  0.00    -0.265 OA
BRANCH  14  16
ATOM     16  C   UNL d   1     -45.908  13.196  22.786  0.00  0.00     0.085 A 
ATOM     17  C   UNL d   1     -45.859  12.468  23.187  0.00  0.00     0.025 A 
ATOM     18  C   UNL d   1     -45.268  11.941  22.982  0.00  0.00     0.066 A 
ATOM     19  C   UNL d   1     -44.746  12.108  22.412  0.00  0.00     0.006 A 
ATOM     20  C   UNL d   1     -44.776  12.832  21.995  0.00  0.00     0.002 A 
ATOM     21  C   UNL d   1     -45.369  13.368  22.198  0.00  0.00     0.019 A 
BRANCH  18  22
ATOM     22  C   UNL d   1     -45.192  11.225  23.353  0.00  0.00     0.211 C 
ATOM     23  O   UNL d   1     -44.462  10.921  23.570  0.00  0.00    -0.644 OA
ATOM     24  O   UNL d   1     -45.883  10.809  23.507  0.00  0.00    -0.644 OA
ENDBRANCH  18  22
ENDBRANCH  14  16
ENDBRANCH   1  13
TORSDOF 4
ENDMDL
MODEL 4
REMARK VINA RESULT:      -7.0      8.571      9.916
REMARK  4 active torsions:
REMARK  status: ('A' for Active; 'I' for Inactive)
REMARK    1  A    between atoms: C_5  and  C_4 
REMARK    2  A    between atoms: C_6  and  C_5 
REMARK       I    between atoms: N_11  and  C_6 
REMARK    3  A    between atoms: C_9  and  C_10 
REMARK    4  A    between atoms: C_14  and  N_11 
ROOT
ATOM      1  C   UNL d   1     -40.573  14.678  18.626  0.00  0.00     0.074 C 
ENDROOT
BRANCH   1   2
ATOM      2  C   UNL d   1     -40.108  14.554  17.971  0.00  0.00     0.092 A 
ATOM      3  C   UNL d   1     -40.256  14.985  17.277  0.00  0.00     0.285 A 
ATOM      4  N   UNL d   1     -39.784  14.863  16.601  0.00  0.00    -0.207 NA
ATOM      5  O   UNL d   1     -40.866  15.534  17.249  0.00  0.00    -0.265 OA
ATOM      6  C   UNL d   1     -39.181  14.319  16.633  0.00  0.00     0.091 A 
ATOM      7  C   UNL d   1     -39.033  13.887  17.328  0.00  0.00     0.047 A 
ATOM      8  C   UNL d   1     -38.706  14.194  15.956  0.00  0.00     0.020 A 
ATOM      9  S   UNL d   1     -39.490  14.007  17.978  0.00  0.00    -0.080 SA
ATOM     10  C   UNL d   1     -38.422  13.347  17.332  0.00  0.00     0.008 A 
ATOM     11  C   UNL d   1     -37.940  13.209  16.674  0.00  0.00     0.001 A 
ATOM     12  C   UNL d   1     -38.088  13.641  15.979  0.00  0.00     0.002 A 
ENDBRANCH   1   2
BRANCH   1  13
ATOM     13  C   UNL d   1     -40.247  14.920  19.328  0.00  0.00     0.280 C 
ATOM     14  N   UNL d   1     -40.524  14.620  20.040  0.00  0.00    -0.208 NA
ATOM     15  O   UNL d   1     -39.639  15.465  19.323  0.00  0.00    -0.265 OA
BRANCH  14  16
ATOM     16  C   UNL d   1     -40.191  14.868  20.745  0.00  0.00     0.085 A 
ATOM     17  C   UNL d   1     -39.709  14.354  21.187  0.00  0.00     0.025 A 
ATOM     18  C   UNL d   1     -39.384  14.620  21.890  0.00  0.00     0.066 A 
ATOM     19  C   UNL d   1     -39.518  15.352  22.155  0.00  0.00     0.006 A 
ATOM     20  C   UNL d   1     -39.999  15.887  21.728  0.00  0.00     0.002 A 
ATOM     21  C   UNL d   1     -40.329  15.626  21.019  0.00  0.00     0.019 A 
BRANCH  18  22
ATOM     22  C   UNL d   1     -38.911  14.144  22.343  0.00  0.00     0.211 C 
ATOM     23  O   UNL d   1     -39.214  13.521  22.783  0.00  0.00    -0.644 OA
ATOM     24  O   UNL d   1     -38.107  14.310  22.348  0.00  0.00    -0.644 OA
ENDBRANCH  18  22
ENDBRANCH  14  16
ENDBRANCH   1  13
TORSDOF 4
ENDMDL
MODEL 5
REMARK VINA RESULT:      -6.5      8.255      9.515
REMARK  4 active torsions:
REMARK  status: ('A' for Active; 'I' for Inactive)
REMARK    1  A    between atoms: C_5  and  C_4 
REMARK    2  A    between atoms: C_6  and  C_5 
REMARK       I    between atoms: N_11  and  C_6 
REMARK    3  A    between atoms: C_9  and  C_10 
REMARK    4  A    between atoms: C_14  and  N_11 
ROOT
ATOM      1  C   UNL d   1     -40.629  14.718  20.264  0.00  0.00     0.074 C 
ENDROOT
BRANCH   1   2
ATOM      2  C   UNL d   1     -40.141  14.698  20.912  0.00  0.00     0.092 A 
ATOM      3  C   UNL d   1     -40.186  15.305  21.478  0.00  0.00     0.285 A 
ATOM      4  N   UNL d   1     -39.688  15.290  22.146  0.00  0.00    -0.207 NA
ATOM      5  O   UNL d   1     -40.719  15.922  21.385  0.00  0.00    -0.265 OA
ATOM      6  C   UNL d   1     -39.162  14.677  22.233  0.00  0.00     0.091 A 
ATOM      7  C   UNL d   1     -39.116  14.070  21.668  0.00  0.00     0.047 A 
ATOM      8  C   UNL d   1     -38.661  14.662  22.903  0.00  0.00     0.020 A 
ATOM      9  S   UNL d   1     -39.598  14.086  21.024  0.00  0.00    -0.080 SA
ATOM     10  C   UNL d   1     -38.579  13.467  21.781  0.00  0.00     0.008 A 
ATOM     11  C   UNL d   1     -38.075  13.432  22.436  0.00  0.00     0.001 A 
ATOM     12  C   UNL d   1     -38.120  14.040  23.002  0.00  0.00     0.002 A 
ENDBRANCH   1   2
BRANCH   1  13
ATOM     13  C   UNL d   1     -40.329  14.831  19.519  0.00  0.00     0.280 C 
ATOM     14  N   UNL d   1     -40.563  14.349  18.898  0.00  0.00    -0.208 NA
ATOM     15  O   UNL d   1     -39.790  15.431  19.389  0.00  0.00    -0.265 OA
BRANCH  14  16
ATOM     16  C   UNL d   1     -40.256  14.469  18.149  0.00  0.00     0.085 A 
ATOM     17  C   UNL d   1     -39.617  14.010  17.878  0.00  0.00     0.025 A 
ATOM     18  C   UNL d   1     -39.323  14.144  17.126  0.00  0.00     0.066 A 
ATOM     19  C   UNL d   1     -39.633  14.698  16.655  0.00  0.00     0.006 A 
ATOM     20  C   UNL d   1     -40.275  15.172  16.906  0.00  0.00     0.002 A 
ATOM     21  C   UNL d   1     -40.576  15.041  17.663  0.00  0.00     0.019 A 
BRANCH  18  22
ATOM     22  C   UNL d   1     -38.702  13.715  16.832  0.00  0.00     0.211 C 
ATOM     23  O   UNL d   1     -38.599  12.921  17.009  0.00  0.00    -0.644 OA
ATOM     24  O   UNL d   1     -38.173  14.110  16.344  0.00  0.00    -0.644 OA
ENDBRANCH  18  22
ENDBRANCH  14  16
ENDBRANCH   1  13
TORSDOF 4
ENDMDL
MODEL 6
REMARK VINA RESULT:      -6.4      1.510      2.205
REMARK  4 active torsions:
REMARK  status: ('A' for Active; 'I' for Inactive)
REMARK    1  A    between atoms: C_5  and  C_4 
REMARK    2  A    between atoms: C_6  and  C_5 
REMARK       I    between atoms: N_11  and  C_6 
REMARK    3  A    between atoms: C_9  and  C_10 
REMARK    4  A    between atoms: C_14  and  N_11 
ROOT
ATOM      1  C   UNL d   1     -47.873  11.994  23.474  0.00  0.00     0.074 C 
ENDROOT
BRANCH   1   2
ATOM      2  C   UNL d   1     -47.112  12.141  23.230  0.00  0.00     0.092 A 
ATOM      3  C   UNL d   1     -46.527  11.562  23.343  0.00  0.00     0.285 A 
ATOM      4  N   UNL d   1     -45.744  11.706  23.096  0.00  0.00    -0.207 NA
ATOM      5  O   UNL d   1     -46.713  10.845  23.698  0.00  0.00    -0.265 OA
ATOM      6  C   UNL d   1     -45.565  12.417  22.746  0.00  0.00     0.091 A 
ATOM      7  C   UNL d   1     -46.150  12.996  22.632  0.00  0.00     0.047 A 
ATOM      8  C   UNL d   1     -44.780  12.563  22.497  0.00  0.00     0.020 A 
ATOM      9  S   UNL d   1     -46.904  12.855  22.872  0.00  0.00    -0.080 SA
ATOM     10  C   UNL d   1     -45.942  13.701  22.278  0.00  0.00     0.008 A 
ATOM     11  C   UNL d   1     -45.172  13.865  22.024  0.00  0.00     0.001 A 
ATOM     12  C   UNL d   1     -44.587  13.286  22.138  0.00  0.00     0.002 A 
ENDBRANCH   1   2
BRANCH   1  13
ATOM     13  C   UNL d   1     -48.493  12.431  23.189  0.00  0.00     0.280 C 
ATOM     14  N   UNL d   1     -49.071  12.715  23.698  0.00  0.00    -0.208 NA
ATOM     15  O   UNL d   1     -48.542  12.588  22.388  0.00  0.00    -0.265 OA
BRANCH  14  16
ATOM     16  C   UNL d   1     -49.695  13.155  23.404  0.00  0.00     0.085 A 
ATOM     17  C   UNL d   1     -49.587  13.955  23.203  0.00  0.00     0.025 A 
ATOM     18  C   UNL d   1     -50.223  14.380  22.911  0.00  0.00     0.066 A 
ATOM     19  C   UNL d   1     -50.932  14.046  22.815  0.00  0.00     0.006 A 
ATOM     20  C   UNL d   1     -51.064  13.244  23.009  0.00  0.00     0.002 A 
ATOM     21  C   UNL d   1     -50.429  12.810  23.305  0.00  0.00     0.019 A 
BRANCH  18  22
ATOM     22  C   UNL d   1     -50.151  15.160  22.706  0.00  0.00     0.211 C 
ATOM     23  O   UNL d   1     -49.468  15.590  22.856  0.00  0.00    -0.644 OA
ATOM     24  O   UNL d   1     -50.796  15.511  22.338  0.00  0.00    -0.644 OA
ENDBRANCH  18  22
ENDBRANCH  14  16
ENDBRANCH   1  13
TORSDOF 4
ENDMDL
