MODEL 1
REMARK VINA RESULT:      -5.2      0.000      0.000
REMARK  4 active torsions:
REMARK  status: ('A' for Active; 'I' for Inactive)
REMARK    1  A    between atoms: C_10  and  N_1 
REMARK       I    between atoms: C_6  and  N_9 
REMARK    2  A    between atoms: C_8  and  C_6 
REMARK    3  A    between atoms: N_9  and  C_12 
REMARK    4  A    between atoms: C_12  and  C_10 
ROOT
ATOM      1  C   UNL d   1     -41.278-123.048 -51.037  0.00  0.00     0.101 C 
ENDROOT
BRANCH   1   2
ATOM      2  N   UNL d   1     -41.228-122.608 -51.733  0.00  0.00    -0.304 N 
ATOM      3  C   UNL d   1     -41.156-121.785 -51.784  0.00  0.00     0.064 A 
ATOM      4  C   UNL d   1     -41.124-121.579 -52.579  0.00  0.00     0.019 A 
ATOM      5  C   UNL d   1     -41.123-121.263 -51.146  0.00  0.00     0.019 C 
ATOM      6  C   UNL d   1     -41.175-122.269 -53.029  0.00  0.00     0.018 A 
ATOM      7  C   UNL d   1     -41.239-122.907 -52.508  0.00  0.00     0.064 A 
ATOM      8  C   UNL d   1     -41.172-122.409 -53.839  0.00  0.00     0.002 A 
ATOM      9  C   UNL d   1     -41.300-123.676 -52.791  0.00  0.00     0.018 A 
ATOM     10  C   UNL d   1     -41.297-123.817 -53.601  0.00  0.00     0.002 A 
ATOM     11  C   UNL d   1     -41.232-123.183 -54.139  0.00  0.00     0.000 A 
ENDBRANCH   1   2
BRANCH   1  12
ATOM     12  C   UNL d   1     -41.824-122.836 -50.457  0.00  0.00     0.121 C 
BRANCH  12  13
ATOM     13  N   UNL d   1     -42.567-123.194 -50.441  0.00  0.00    -0.205 NA
ATOM     14  C   UNL d   1     -42.891-123.447 -49.728  0.00  0.00     0.279 C 
ATOM     15  O   UNL d   1     -43.634-123.806 -49.713  0.00  0.00    -0.265 OA
BRANCH  14  16
ATOM     16  C   UNL d   1     -42.468-123.341 -49.023  0.00  0.00     0.058 A 
ATOM     17  C   UNL d   1     -41.776-123.739 -48.913  0.00  0.00     0.005 A 
ATOM     18  C   UNL d   1     -41.349-123.638 -48.213  0.00  0.00     0.000 A 
ATOM     19  C   UNL d   1     -41.617-123.135 -47.621  0.00  0.00     0.000 A 
ATOM     20  C   UNL d   1     -42.336-122.722 -47.740  0.00  0.00     0.000 A 
ATOM     21  C   UNL d   1     -42.760-122.829 -48.445  0.00  0.00     0.005 A 
ENDBRANCH  14  16
ENDBRANCH  12  13
ENDBRANCH   1  12
TORSDOF 4
ENDMDL
MODEL 2
REMARK VINA RESULT:      -5.2      1.458      2.465
REMARK  4 active torsions:
REMARK  status: ('A' for Active; 'I' for Inactive)
REMARK    1  A    between atoms: C_10  and  N_1 
REMARK       I    between atoms: C_6  and  N_9 
REMARK    2  A    between atoms: C_8  and  C_6 
REMARK    3  A    between atoms: N_9  and  C_12 
REMARK    4  A    between atoms: C_12  and  C_10 
ROOT
ATOM      1  C   UNL d   1     -42.070-122.284 -52.918  0.00  0.00     0.101 C 
ENDROOT
BRANCH   1   2
ATOM      2  N   UNL d   1     -41.798-122.608 -53.626  0.00  0.00    -0.304 N 
ATOM      3  C   UNL d   1     -41.375-123.316 -53.705  0.00  0.00     0.064 A 
ATOM      4  C   UNL d   1     -41.215-123.431 -54.503  0.00  0.00     0.019 A 
ATOM      5  C   UNL d   1     -41.154-123.817 -53.089  0.00  0.00     0.019 C 
ATOM      6  C   UNL d   1     -41.535-122.799 -54.926  0.00  0.00     0.018 A 
ATOM      7  C   UNL d   1     -41.896-122.289 -54.386  0.00  0.00     0.064 A 
ATOM      8  C   UNL d   1     -41.551-122.613 -55.727  0.00  0.00     0.002 A 
ATOM      9  C   UNL d   1     -42.268-121.601 -54.640  0.00  0.00     0.018 A 
ATOM     10  C   UNL d   1     -42.284-121.415 -55.441  0.00  0.00     0.002 A 
ATOM     11  C   UNL d   1     -41.924-121.920 -55.998  0.00  0.00     0.000 A 
ENDBRANCH   1   2
BRANCH   1  12
ATOM     12  C   UNL d   1     -41.592-122.304 -52.247  0.00  0.00     0.121 C 
BRANCH  12  13
ATOM     13  N   UNL d   1     -41.345-121.598 -51.899  0.00  0.00    -0.205 NA
ATOM     14  C   UNL d   1     -41.370-121.507 -51.080  0.00  0.00     0.279 C 
ATOM     15  O   UNL d   1     -41.123-120.802 -50.732  0.00  0.00    -0.265 OA
BRANCH  14  16
ATOM     16  C   UNL d   1     -41.645-122.130 -50.606  0.00  0.00     0.058 A 
ATOM     17  C   UNL d   1     -41.123-122.681 -50.335  0.00  0.00     0.005 A 
ATOM     18  C   UNL d   1     -41.390-123.304 -49.862  0.00  0.00     0.000 A 
ATOM     19  C   UNL d   1     -42.183-123.375 -49.661  0.00  0.00     0.000 A 
ATOM     20  C   UNL d   1     -42.722-122.800 -49.945  0.00  0.00     0.000 A 
ATOM     21  C   UNL d   1     -42.447-122.177 -50.419  0.00  0.00     0.005 A 
ENDBRANCH  14  16
ENDBRANCH  12  13
ENDBRANCH   1  12
TORSDOF 4
ENDMDL
