MODEL 1
REMARK VINA RESULT:      -9.3      0.000      0.000
REMARK  5 active torsions:
REMARK  status: ('A' for Active; 'I' for Inactive)
REMARK    1  A    between atoms: C_6  and  N_1 
REMARK    2  A    between atoms: C_10  and  C_6 
REMARK    3  A    between atoms: O_18  and  C_12 
REMARK    4  A    between atoms: C_20  and  O_18 
REMARK    5  A    between atoms: C_21  and  C_20 
ROOT
ATOM      1  N   UNL d   1      53.181  34.405  53.862  0.00  0.00    -0.251 N 
ATOM      2  C   UNL d   1      53.203  34.902  54.532  0.00  0.00     0.378 A 
ATOM      3  C   UNL d   1      53.490  33.669  54.081  0.00  0.00     0.092 A 
ATOM      4  O   UNL d   1      53.526  34.472  55.161  0.00  0.00    -0.258 OA
ATOM      5  C   UNL d   1      53.703  33.710  54.883  0.00  0.00     0.121 A 
ATOM      6  O   UNL d   1      52.947  35.683  54.556  0.00  0.00    -0.237 OA
ATOM      7  C   UNL d   1      53.602  32.977  53.654  0.00  0.00     0.020 A 
ATOM      8  C   UNL d   1      54.031  33.045  55.249  0.00  0.00     0.026 A 
ATOM      9  C   UNL d   1      53.930  32.319  54.028  0.00  0.00     0.002 A 
ATOM     10  C   UNL d   1      54.143  32.352  54.822  0.00  0.00     0.002 A 
ATOM     11  C   UNL d   1      54.041  31.623  53.593  0.00  0.00     0.000 C 
ENDROOT
BRANCH   1  12
ATOM     12  C   UNL d   1      52.909  34.574  53.102  0.00  0.00     0.085 C 
BRANCH  12  13
ATOM     13  C   UNL d   1      52.105  34.502  52.929  0.00  0.00     0.018 A 
ATOM     14  C   UNL d   1      51.542  34.752  53.464  0.00  0.00     0.004 A 
ATOM     15  C   UNL d   1      50.745  34.681  53.290  0.00  0.00     0.025 A 
ATOM     16  C   UNL d   1      50.509  34.353  52.571  0.00  0.00     0.100 A 
ATOM     17  C   UNL d   1      51.077  34.100  52.032  0.00  0.00     0.025 A 
ATOM     18  C   UNL d   1      51.881  34.174  52.209  0.00  0.00     0.004 A 
BRANCH  16  19
ATOM     19  O   UNL d   1      49.710  34.281  52.398  0.00  0.00    -0.305 OA
BRANCH  19  20
ATOM     20  C   UNL d   1      49.411  34.611  51.711  0.00  0.00     0.123 C 
BRANCH  20  21
ATOM     21  C   UNL d   1      48.602  34.678  51.605  0.00  0.00     0.027 C 
ATOM     22  C   UNL d   1      48.290  34.787  50.848  0.00  0.00     0.002 C 
ENDBRANCH  20  21
ENDBRANCH  19  20
ENDBRANCH  16  19
ENDBRANCH  12  13
ENDBRANCH   1  12
TORSDOF 5
ENDMDL
MODEL 2
REMARK VINA RESULT:      -9.1      1.776      4.409
REMARK  5 active torsions:
REMARK  status: ('A' for Active; 'I' for Inactive)
REMARK    1  A    between atoms: C_6  and  N_1 
REMARK    2  A    between atoms: C_10  and  C_6 
REMARK    3  A    between atoms: O_18  and  C_12 
REMARK    4  A    between atoms: C_20  and  O_18 
REMARK    5  A    between atoms: C_21  and  C_20 
ROOT
ATOM      1  N   UNL d   1      52.889  33.454  53.365  0.00  0.00    -0.251 N 
ATOM      2  C   UNL d   1      53.066  33.721  54.136  0.00  0.00     0.378 A 
ATOM      3  C   UNL d   1      52.183  33.813  53.127  0.00  0.00     0.092 A 
ATOM      4  O   UNL d   1      52.468  34.244  54.369  0.00  0.00    -0.258 OA
ATOM      5  C   UNL d   1      51.923  34.301  53.747  0.00  0.00     0.121 A 
ATOM      6  O   UNL d   1      53.722  33.500  54.580  0.00  0.00    -0.237 OA
ATOM      7  C   UNL d   1      51.752  33.756  52.431  0.00  0.00     0.020 A 
ATOM      8  C   UNL d   1      51.222  34.731  53.656  0.00  0.00     0.026 A 
ATOM      9  C   UNL d   1      51.054  34.189  52.350  0.00  0.00     0.002 A 
ATOM     10  C   UNL d   1      50.790  34.675  52.960  0.00  0.00     0.002 A 
ATOM     11  C   UNL d   1      50.622  34.129  51.646  0.00  0.00     0.000 C 
ENDROOT
BRANCH   1  12
ATOM     12  C   UNL d   1      53.313  32.928  52.891  0.00  0.00     0.085 C 
BRANCH  12  13
ATOM     13  C   UNL d   1      53.332  32.126  53.084  0.00  0.00     0.018 A 
ATOM     14  C   UNL d   1      52.736  31.626  52.839  0.00  0.00     0.004 A 
ATOM     15  C   UNL d   1      52.757  30.831  53.031  0.00  0.00     0.025 A 
ATOM     16  C   UNL d   1      53.384  30.532  53.477  0.00  0.00     0.100 A 
ATOM     17  C   UNL d   1      53.985  31.037  53.724  0.00  0.00     0.025 A 
ATOM     18  C   UNL d   1      53.963  31.840  53.529  0.00  0.00     0.004 A 
BRANCH  16  19
ATOM     19  O   UNL d   1      53.405  29.735  53.670  0.00  0.00    -0.305 OA
BRANCH  19  20
ATOM     20  C   UNL d   1      53.303  29.501  54.448  0.00  0.00     0.123 C 
BRANCH  20  21
ATOM     21  C   UNL d   1      53.341  28.709  54.648  0.00  0.00     0.027 C 
ATOM     22  C   UNL d   1      53.351  28.481  55.442  0.00  0.00     0.002 C 
ENDBRANCH  20  21
ENDBRANCH  19  20
ENDBRANCH  16  19
ENDBRANCH  12  13
ENDBRANCH   1  12
TORSDOF 5
ENDMDL
MODEL 3
REMARK VINA RESULT:      -8.7      2.027      4.251
REMARK  5 active torsions:
REMARK  status: ('A' for Active; 'I' for Inactive)
REMARK    1  A    between atoms: C_6  and  N_1 
REMARK    2  A    between atoms: C_10  and  C_6 
REMARK    3  A    between atoms: O_18  and  C_12 
REMARK    4  A    between atoms: C_20  and  O_18 
REMARK    5  A    between atoms: C_21  and  C_20 
ROOT
ATOM      1  N   UNL d   1      52.978  33.200  53.315  0.00  0.00    -0.251 N 
ATOM      2  C   UNL d   1      52.202  33.505  53.273  0.00  0.00     0.378 A 
ATOM      3  C   UNL d   1      53.373  33.592  53.928  0.00  0.00     0.092 A 
ATOM      4  O   UNL d   1      52.122  34.084  53.860  0.00  0.00    -0.258 OA
ATOM      5  C   UNL d   1      52.844  34.138  54.264  0.00  0.00     0.121 A 
ATOM      6  O   UNL d   1      51.623  33.268  52.740  0.00  0.00    -0.237 OA
ATOM      7  C   UNL d   1      54.138  33.519  54.215  0.00  0.00     0.020 A 
ATOM      8  C   UNL d   1      53.097  34.609  54.895  0.00  0.00     0.026 A 
ATOM      9  C   UNL d   1      54.381  33.994  54.845  0.00  0.00     0.002 A 
ATOM     10  C   UNL d   1      53.863  34.536  55.184  0.00  0.00     0.002 A 
ATOM     11  C   UNL d   1      55.153  33.917  55.132  0.00  0.00     0.000 C 
ENDROOT
BRANCH   1  12
ATOM     12  C   UNL d   1      53.328  32.615  52.851  0.00  0.00     0.085 C 
BRANCH  12  13
ATOM     13  C   UNL d   1      53.251  31.821  53.064  0.00  0.00     0.018 A 
ATOM     14  C   UNL d   1      52.529  31.445  53.008  0.00  0.00     0.004 A 
ATOM     15  C   UNL d   1      52.455  30.659  53.220  0.00  0.00     0.025 A 
ATOM     16  C   UNL d   1      53.113  30.242  53.492  0.00  0.00     0.100 A 
ATOM     17  C   UNL d   1      53.841  30.621  53.549  0.00  0.00     0.025 A 
ATOM     18  C   UNL d   1      53.914  31.416  53.335  0.00  0.00     0.004 A 
BRANCH  16  19
ATOM     19  O   UNL d   1      53.037  29.453  53.705  0.00  0.00    -0.305 OA
BRANCH  19  20
ATOM     20  C   UNL d   1      53.327  29.196  54.426  0.00  0.00     0.123 C 
BRANCH  20  21
ATOM     21  C   UNL d   1      53.309  28.400  54.617  0.00  0.00     0.027 C 
ATOM     22  C   UNL d   1      53.441  28.157  55.395  0.00  0.00     0.002 C 
ENDBRANCH  20  21
ENDBRANCH  19  20
ENDBRANCH  16  19
ENDBRANCH  12  13
ENDBRANCH   1  12
TORSDOF 5
ENDMDL
MODEL 4
REMARK VINA RESULT:      -8.3      2.786      4.064
REMARK  5 active torsions:
REMARK  status: ('A' for Active; 'I' for Inactive)
REMARK    1  A    between atoms: C_6  and  N_1 
REMARK    2  A    between atoms: C_10  and  C_6 
REMARK    3  A    between atoms: O_18  and  C_12 
REMARK    4  A    between atoms: C_20  and  O_18 
REMARK    5  A    between atoms: C_21  and  C_20 
ROOT
ATOM      1  N   UNL d   1      53.523  31.111  53.331  0.00  0.00    -0.251 N 
ATOM      2  C   UNL d   1      52.955  31.344  52.765  0.00  0.00     0.378 A 
ATOM      3  C   UNL d   1      53.306  30.366  53.619  0.00  0.00     0.092 A 
ATOM      4  O   UNL d   1      52.390  30.741  52.707  0.00  0.00    -0.258 OA
ATOM      5  C   UNL d   1      52.606  30.138  53.233  0.00  0.00     0.121 A 
ATOM      6  O   UNL d   1      52.961  32.049  52.343  0.00  0.00    -0.237 OA
ATOM      7  C   UNL d   1      53.655  29.876  54.177  0.00  0.00     0.020 A 
ATOM      8  C   UNL d   1      52.263  29.408  53.418  0.00  0.00     0.026 A 
ATOM      9  C   UNL d   1      53.305  29.150  54.354  0.00  0.00     0.002 A 
ATOM     10  C   UNL d   1      52.611  28.917  53.976  0.00  0.00     0.002 A 
ATOM     11  C   UNL d   1      53.660  28.659  54.917  0.00  0.00     0.000 C 
ENDROOT
BRANCH   1  12
ATOM     12  C   UNL d   1      54.194  31.518  53.587  0.00  0.00     0.085 C 
BRANCH  12  13
ATOM     13  C   UNL d   1      54.116  32.274  53.910  0.00  0.00     0.018 A 
ATOM     14  C   UNL d   1      53.788  32.377  54.650  0.00  0.00     0.004 A 
ATOM     15  C   UNL d   1      53.712  33.126  54.968  0.00  0.00     0.025 A 
ATOM     16  C   UNL d   1      53.969  33.783  54.540  0.00  0.00     0.100 A 
ATOM     17  C   UNL d   1      54.300  33.679  53.794  0.00  0.00     0.025 A 
ATOM     18  C   UNL d   1      54.376  32.921  53.473  0.00  0.00     0.004 A 
BRANCH  16  19
ATOM     19  O   UNL d   1      53.892  34.535  54.860  0.00  0.00    -0.305 OA
BRANCH  19  20
ATOM     20  C   UNL d   1      53.258  35.006  54.646  0.00  0.00     0.123 C 
BRANCH  20  21
ATOM     21  C   UNL d   1      53.268  35.808  54.810  0.00  0.00     0.027 C 
ATOM     22  C   UNL d   1      52.560  36.230  54.857  0.00  0.00     0.002 C 
ENDBRANCH  20  21
ENDBRANCH  19  20
ENDBRANCH  16  19
ENDBRANCH  12  13
ENDBRANCH   1  12
TORSDOF 5
ENDMDL
