MODEL 1
REMARK VINA RESULT:      -4.4      0.000      0.000
REMARK  6 active torsions:
REMARK  status: ('A' for Active; 'I' for Inactive)
REMARK    1  A    between atoms: C_7  and  C_1 
REMARK    2  A    between atoms: C_9  and  N_10 
REMARK       I    between atoms: N_10  and  C_11 
REMARK    3  A    between atoms: C_11  and  C_19 
REMARK    4  A    between atoms: S_15  and  C_12 
REMARK    5  A    between atoms: O_24  and  C_13 
REMARK    6  A    between atoms: C_19  and  S_15 
ROOT
ATOM      1  S   UNL d   1      57.301  -0.535  31.162  0.00  0.00    -0.061 SA
ENDROOT
BRANCH   1   2
ATOM      2  C   UNL d   1      56.842  -0.318  31.832  0.00  0.00     0.133 A 
ATOM      3  C   UNL d   1      56.349  -0.875  32.185  0.00  0.00     0.029 A 
ATOM      4  C   UNL d   1      55.898  -0.666  32.841  0.00  0.00     0.024 A 
ATOM      5  C   UNL d   1      55.941   0.100  33.145  0.00  0.00     0.111 A 
ATOM      6  N   UNL d   1      56.434   0.656  32.792  0.00  0.00    -0.147 NA
ATOM      7  N   UNL d   1      56.885   0.448  32.136  0.00  0.00    -0.141 NA
BRANCH   5   8
ATOM      8  C   UNL d   1      55.490   0.309  33.802  0.00  0.00     0.068 A 
ATOM      9  C   UNL d   1      55.746   0.515  34.565  0.00  0.00     0.089 A 
ATOM     10  N   UNL d   1      55.080   0.677  35.026  0.00  0.00    -0.238 NA
ATOM     11  C   UNL d   1      56.532   0.551  34.821  0.00  0.00     0.021 C 
ATOM     12  C   UNL d   1      54.416   0.572  34.549  0.00  0.00     0.111 A 
ATOM     13  S   UNL d   1      54.664   0.345  33.795  0.00  0.00    -0.065 SA
ATOM     14  C   UNL d   1      53.617   0.676  34.785  0.00  0.00     0.028 C 
ENDBRANCH   5   8
ENDBRANCH   1   2
BRANCH   1  15
ATOM     15  C   UNL d   1      57.572   0.047  30.645  0.00  0.00     0.099 C 
BRANCH  15  16
ATOM     16  C   UNL d   1      58.284  -0.065  30.246  0.00  0.00     0.286 C 
ATOM     17  N   UNL d   1      58.345  -0.650  29.657  0.00  0.00    -0.206 NA
ATOM     18  O   UNL d   1      58.944   0.406  30.430  0.00  0.00    -0.265 OA
BRANCH  17  19
ATOM     19  C   UNL d   1      59.056  -0.763  29.258  0.00  0.00     0.107 A 
ATOM     20  C   UNL d   1      59.287  -1.526  29.025  0.00  0.00     0.112 A 
ATOM     21  C   UNL d   1      59.999  -1.639  28.625  0.00  0.00     0.026 A 
ATOM     22  C   UNL d   1      60.487  -0.992  28.455  0.00  0.00     0.002 A 
ATOM     23  C   UNL d   1      60.256  -0.229  28.689  0.00  0.00     0.002 A 
ATOM     24  C   UNL d   1      59.545  -0.115  29.088  0.00  0.00     0.021 A 
ATOM     25  C   UNL d   1      60.739   0.418  28.521  0.00  0.00     0.000 C 
BRANCH  20  26
ATOM     26  O   UNL d   1      58.801  -2.171  29.194  0.00  0.00    -0.327 OA
ATOM     27  C   UNL d   1      59.059  -2.936  29.032  0.00  0.00     0.181 C 
ENDBRANCH  20  26
ENDBRANCH  17  19
ENDBRANCH  15  16
ENDBRANCH   1  15
TORSDOF 6
ENDMDL
MODEL 2
REMARK VINA RESULT:      -3.6      1.771      6.343
REMARK  6 active torsions:
REMARK  status: ('A' for Active; 'I' for Inactive)
REMARK    1  A    between atoms: C_7  and  C_1 
REMARK    2  A    between atoms: C_9  and  N_10 
REMARK       I    between atoms: N_10  and  C_11 
REMARK    3  A    between atoms: C_11  and  C_19 
REMARK    4  A    between atoms: S_15  and  C_12 
REMARK    5  A    between atoms: O_24  and  C_13 
REMARK    6  A    between atoms: C_19  and  S_15 
ROOT
ATOM      1  S   UNL d   1      56.748  -0.385  32.091  0.00  0.00    -0.061 SA
ENDROOT
BRANCH   1   2
ATOM      2  C   UNL d   1      57.301  -0.385  31.459  0.00  0.00     0.133 A 
ATOM      3  C   UNL d   1      57.687   0.314  31.255  0.00  0.00     0.029 A 
ATOM      4  C   UNL d   1      58.230   0.317  30.637  0.00  0.00     0.024 A 
ATOM      5  C   UNL d   1      58.388  -0.378  30.221  0.00  0.00     0.111 A 
ATOM      6  N   UNL d   1      58.003  -1.076  30.425  0.00  0.00    -0.147 NA
ATOM      7  N   UNL d   1      57.460  -1.081  31.043  0.00  0.00    -0.141 NA
BRANCH   5   8
ATOM      8  C   UNL d   1      58.931  -0.374  29.603  0.00  0.00     0.068 A 
ATOM      9  C   UNL d   1      58.911   0.061  28.895  0.00  0.00     0.089 A 
ATOM     10  N   UNL d   1      59.585  -0.128  28.455  0.00  0.00    -0.238 NA
ATOM     11  C   UNL d   1      58.320   0.593  28.667  0.00  0.00     0.021 C 
ATOM     12  C   UNL d   1      60.018  -0.678  28.891  0.00  0.00     0.111 A 
ATOM     13  S   UNL d   1      59.619  -0.832  29.597  0.00  0.00    -0.065 SA
ATOM     14  C   UNL d   1      60.746  -1.028  28.659  0.00  0.00     0.028 C 
ENDBRANCH   5   8
ENDBRANCH   1   2
BRANCH   1  15
ATOM     15  C   UNL d   1      56.501   0.331  32.419  0.00  0.00     0.099 C 
BRANCH  15  16
ATOM     16  C   UNL d   1      55.914   0.331  32.997  0.00  0.00     0.286 C 
ATOM     17  N   UNL d   1      56.059   0.680  33.739  0.00  0.00    -0.206 NA
ATOM     18  O   UNL d   1      55.176  -0.016  32.841  0.00  0.00    -0.265 OA
BRANCH  17  19
ATOM     19  C   UNL d   1      55.473   0.681  34.317  0.00  0.00     0.107 A 
ATOM     20  C   UNL d   1      55.681   0.681  35.121  0.00  0.00     0.112 A 
ATOM     21  C   UNL d   1      55.095   0.681  35.700  0.00  0.00     0.026 A 
ATOM     22  C   UNL d   1      54.295   0.682  35.482  0.00  0.00     0.002 A 
ATOM     23  C   UNL d   1      54.088   0.681  34.677  0.00  0.00     0.002 A 
ATOM     24  C   UNL d   1      54.674   0.681  34.098  0.00  0.00     0.021 A 
ATOM     25  C   UNL d   1      53.293   0.681  34.456  0.00  0.00     0.000 C 
BRANCH  20  26
ATOM     26  O   UNL d   1      56.477   0.681  35.339  0.00  0.00    -0.327 OA
ATOM     27  C   UNL d   1      56.687   0.681  36.135  0.00  0.00     0.181 C 
ENDBRANCH  20  26
ENDBRANCH  17  19
ENDBRANCH  15  16
ENDBRANCH   1  15
TORSDOF 6
ENDMDL
