MODEL 1
REMARK VINA RESULT:       2.0      0.000      0.000
REMARK  6 active torsions:
REMARK  status: ('A' for Active; 'I' for Inactive)
REMARK    1  A    between atoms: S_3  and  N_1 
REMARK    2  A    between atoms: C_19  and  S_3 
REMARK    3  A    between atoms: S_4  and  N_8 
REMARK    4  A    between atoms: C_12  and  C_5 
REMARK    5  A    between atoms: C_9  and  C_6 
REMARK    6  A    between atoms: N_8  and  C_16 
ROOT
ATOM      1  N   UNL d   1      31.634  18.573 -23.555  0.00  0.00    -0.152 N 
ATOM      2  N   UNL d   1      31.663  19.254 -23.080  0.00  0.00    -0.155 NA
ATOM      3  C   UNL d   1      32.389  18.222 -23.536  0.00  0.00     0.096 A 
ATOM      4  C   UNL d   1      32.426  19.323 -22.773  0.00  0.00     0.104 A 
ATOM      5  C   UNL d   1      32.870  18.685 -23.056  0.00  0.00     0.041 A 
ENDROOT
BRANCH   4   6
ATOM      6  C   UNL d   1      32.696  19.920 -22.274  0.00  0.00     0.021 A 
ATOM      7  C   UNL d   1      32.822  20.675 -22.572  0.00  0.00     0.021 A 
ATOM      8  C   UNL d   1      33.094  21.277 -22.070  0.00  0.00     0.093 A 
ATOM      9  C   UNL d   1      33.239  21.116 -21.268  0.00  0.00     0.020 A 
ATOM     10  C   UNL d   1      33.110  20.352 -20.975  0.00  0.00     0.002 A 
ATOM     11  C   UNL d   1      32.841  19.756 -21.471  0.00  0.00     0.002 A 
BRANCH   8  12
ATOM     12  N   UNL d   1      33.221  22.043 -22.371  0.00  0.00    -0.162 NA
BRANCH  12  13
ATOM     13  S   UNL d   1      32.749  22.666 -22.121  0.00  0.00     0.266 S 
ATOM     14  O   UNL d   1      32.236  23.319 -22.175  0.00  0.00    -0.203 OA
ATOM     15  O   UNL d   1      32.620  22.771 -22.933  0.00  0.00    -0.203 OA
ATOM     16  C   UNL d   1      32.870  22.572 -21.314  0.00  0.00     0.165 C 
ENDBRANCH  12  13
ENDBRANCH   8  12
ENDBRANCH   4   6
BRANCH   1  17
ATOM     17  S   UNL d   1      30.971  18.300 -23.967  0.00  0.00     0.287 S 
ATOM     18  O   UNL d   1      30.538  18.241 -24.667  0.00  0.00    -0.198 OA
ATOM     19  O   UNL d   1      31.549  18.745 -24.358  0.00  0.00    -0.198 OA
BRANCH  17  20
ATOM     20  C   UNL d   1      30.439  17.867 -23.521  0.00  0.00     0.118 C 
ATOM     21  C   UNL d   1      29.624  17.977 -23.632  0.00  0.00     0.014 C 
ENDBRANCH  17  20
ENDBRANCH   1  17
BRANCH   3  22
ATOM     22  C   UNL d   1      32.603  17.537 -23.930  0.00  0.00     0.018 A 
ATOM     23  C   UNL d   1      32.488  16.807 -23.562  0.00  0.00     0.002 A 
ATOM     24  C   UNL d   1      32.701  16.113 -23.954  0.00  0.00     0.000 A 
ATOM     25  C   UNL d   1      33.027  16.148 -24.705  0.00  0.00     0.000 A 
ATOM     26  C   UNL d   1      33.137  16.884 -25.063  0.00  0.00     0.000 A 
ATOM     27  C   UNL d   1      33.240  15.453 -25.096  0.00  0.00     0.000 C 
ATOM     28  C   UNL d   1      32.930  17.570 -24.685  0.00  0.00     0.002 A 
ENDBRANCH   3  22
TORSDOF 6
ENDMDL
MODEL 2
REMARK VINA RESULT:       2.3      1.220      1.491
REMARK  6 active torsions:
REMARK  status: ('A' for Active; 'I' for Inactive)
REMARK    1  A    between atoms: S_3  and  N_1 
REMARK    2  A    between atoms: C_19  and  S_3 
REMARK    3  A    between atoms: S_4  and  N_8 
REMARK    4  A    between atoms: C_12  and  C_5 
REMARK    5  A    between atoms: C_9  and  C_6 
REMARK    6  A    between atoms: N_8  and  C_16 
ROOT
ATOM      1  N   UNL d   1      32.171  19.045 -23.757  0.00  0.00    -0.152 N 
ATOM      2  N   UNL d   1      32.190  19.863 -23.617  0.00  0.00    -0.155 NA
ATOM      3  C   UNL d   1      32.674  18.684 -23.200  0.00  0.00     0.096 A 
ATOM      4  C   UNL d   1      32.699  20.005 -22.982  0.00  0.00     0.104 A 
ATOM      5  C   UNL d   1      32.994  19.276 -22.729  0.00  0.00     0.041 A 
ENDROOT
BRANCH   4   6
ATOM      6  C   UNL d   1      32.879  20.742 -22.660  0.00  0.00     0.021 A 
ATOM      7  C   UNL d   1      32.877  20.841 -21.845  0.00  0.00     0.021 A 
ATOM      8  C   UNL d   1      33.058  21.582 -21.519  0.00  0.00     0.093 A 
ATOM      9  C   UNL d   1      33.241  22.222 -22.016  0.00  0.00     0.020 A 
ATOM     10  C   UNL d   1      33.241  22.113 -22.837  0.00  0.00     0.002 A 
ATOM     11  C   UNL d   1      33.062  21.380 -23.161  0.00  0.00     0.002 A 
BRANCH   8  12
ATOM     12  N   UNL d   1      33.056  21.685 -20.692  0.00  0.00    -0.162 NA
BRANCH  12  13
ATOM     13  S   UNL d   1      32.670  22.328 -20.359  0.00  0.00     0.266 S 
ATOM     14  O   UNL d   1      32.084  22.750 -19.946  0.00  0.00    -0.203 OA
ATOM     15  O   UNL d   1      32.113  21.757 -20.131  0.00  0.00    -0.203 OA
ATOM     16  C   UNL d   1      33.214  22.902 -20.579  0.00  0.00     0.165 C 
ENDBRANCH  12  13
ENDBRANCH   8  12
ENDBRANCH   4   6
BRANCH   1  17
ATOM     17  S   UNL d   1      31.729  18.666 -24.344  0.00  0.00     0.287 S 
ATOM     18  O   UNL d   1      31.682  18.313 -25.089  0.00  0.00    -0.198 OA
ATOM     19  O   UNL d   1      32.536  18.810 -24.460  0.00  0.00    -0.198 OA
BRANCH  17  20
ATOM     20  C   UNL d   1      30.938  18.555 -24.167  0.00  0.00     0.118 C 
ATOM     21  C   UNL d   1      30.432  18.222 -24.733  0.00  0.00     0.014 C 
ENDBRANCH  17  20
ENDBRANCH   1  17
BRANCH   3  22
ATOM     22  C   UNL d   1      32.817  17.879 -23.143  0.00  0.00     0.018 A 
ATOM     23  C   UNL d   1      32.722  17.503 -22.414  0.00  0.00     0.002 A 
ATOM     24  C   UNL d   1      32.864  16.693 -22.349  0.00  0.00     0.000 A 
ATOM     25  C   UNL d   1      33.099  16.264 -23.006  0.00  0.00     0.000 A 
ATOM     26  C   UNL d   1      33.190  16.650 -23.730  0.00  0.00     0.000 A 
ATOM     27  C   UNL d   1      33.241  15.453 -22.940  0.00  0.00     0.000 C 
ATOM     28  C   UNL d   1      33.052  17.445 -23.802  0.00  0.00     0.002 A 
ENDBRANCH   3  22
TORSDOF 6
ENDMDL
MODEL 3
REMARK VINA RESULT:       2.4      1.477      4.880
REMARK  6 active torsions:
REMARK  status: ('A' for Active; 'I' for Inactive)
REMARK    1  A    between atoms: S_3  and  N_1 
REMARK    2  A    between atoms: C_19  and  S_3 
REMARK    3  A    between atoms: S_4  and  N_8 
REMARK    4  A    between atoms: C_12  and  C_5 
REMARK    5  A    between atoms: C_9  and  C_6 
REMARK    6  A    between atoms: N_8  and  C_16 
ROOT
ATOM      1  N   UNL d   1      32.605  20.504 -22.052  0.00  0.00    -0.152 N 
ATOM      2  N   UNL d   1      32.553  19.678 -21.990  0.00  0.00    -0.155 NA
ATOM      3  C   UNL d   1      32.808  20.684 -22.840  0.00  0.00     0.096 A 
ATOM      4  C   UNL d   1      32.722  19.351 -22.729  0.00  0.00     0.104 A 
ATOM      5  C   UNL d   1      32.878  19.975 -23.249  0.00  0.00     0.041 A 
ENDROOT
BRANCH   4   6
ATOM      6  C   UNL d   1      32.732  18.548 -22.914  0.00  0.00     0.021 A 
ATOM      7  C   UNL d   1      32.250  18.262 -23.514  0.00  0.00     0.021 A 
ATOM      8  C   UNL d   1      32.260  17.454 -23.701  0.00  0.00     0.093 A 
ATOM      9  C   UNL d   1      32.757  16.936 -23.283  0.00  0.00     0.020 A 
ATOM     10  C   UNL d   1      33.240  17.233 -22.680  0.00  0.00     0.002 A 
ATOM     11  C   UNL d   1      33.231  18.032 -22.493  0.00  0.00     0.002 A 
BRANCH   8  12
ATOM     12  N   UNL d   1      31.772  17.162 -24.309  0.00  0.00    -0.162 NA
BRANCH  12  13
ATOM     13  S   UNL d   1      31.114  16.708 -24.125  0.00  0.00     0.266 S 
ATOM     14  O   UNL d   1      30.320  16.530 -23.948  0.00  0.00    -0.203 OA
ATOM     15  O   UNL d   1      30.721  17.438 -24.136  0.00  0.00    -0.203 OA
ATOM     16  C   UNL d   1      31.491  15.978 -24.111  0.00  0.00     0.165 C 
ENDBRANCH  12  13
ENDBRANCH   8  12
ENDBRANCH   4   6
BRANCH   1  17
ATOM     17  S   UNL d   1      32.477  21.043 -21.438  0.00  0.00     0.287 S 
ATOM     18  O   UNL d   1      32.003  21.610 -21.071  0.00  0.00    -0.198 OA
ATOM     19  O   UNL d   1      31.908  20.947 -22.032  0.00  0.00    -0.198 OA
BRANCH  17  20
ATOM     20  C   UNL d   1      33.078  21.089 -20.885  0.00  0.00     0.118 C 
ATOM     21  C   UNL d   1      33.077  21.702 -20.327  0.00  0.00     0.014 C 
ENDBRANCH  17  20
ENDBRANCH   1  17
BRANCH   3  22
ATOM     22  C   UNL d   1      32.915  21.437 -23.141  0.00  0.00     0.018 A 
ATOM     23  C   UNL d   1      32.911  21.550 -23.958  0.00  0.00     0.002 A 
ATOM     24  C   UNL d   1      33.019  22.307 -24.269  0.00  0.00     0.000 A 
ATOM     25  C   UNL d   1      33.130  22.944 -23.767  0.00  0.00     0.000 A 
ATOM     26  C   UNL d   1      33.133  22.820 -22.951  0.00  0.00     0.000 A 
ATOM     27  C   UNL d   1      33.238  23.702 -24.078  0.00  0.00     0.000 C 
ATOM     28  C   UNL d   1      33.028  22.080 -22.638  0.00  0.00     0.002 A 
ENDBRANCH   3  22
TORSDOF 6
ENDMDL
MODEL 4
REMARK VINA RESULT:       3.5      2.957      4.682
REMARK  6 active torsions:
REMARK  status: ('A' for Active; 'I' for Inactive)
REMARK    1  A    between atoms: S_3  and  N_1 
REMARK    2  A    between atoms: C_19  and  S_3 
REMARK    3  A    between atoms: S_4  and  N_8 
REMARK    4  A    between atoms: C_12  and  C_5 
REMARK    5  A    between atoms: C_9  and  C_6 
REMARK    6  A    between atoms: N_8  and  C_16 
ROOT
ATOM      1  N   UNL d   1      29.333  17.217 -24.492  0.00  0.00    -0.152 N 
ATOM      2  N   UNL d   1      30.146  17.253 -24.662  0.00  0.00    -0.155 NA
ATOM      3  C   UNL d   1      29.187  16.487 -24.120  0.00  0.00     0.096 A 
ATOM      4  C   UNL d   1      30.496  16.554 -24.398  0.00  0.00     0.104 A 
ATOM      5  C   UNL d   1      29.902  16.085 -24.065  0.00  0.00     0.041 A 
ENDROOT
BRANCH   4   6
ATOM      6  C   UNL d   1      31.295  16.359 -24.456  0.00  0.00     0.021 A 
ATOM      7  C   UNL d   1      31.861  16.863 -24.140  0.00  0.00     0.021 A 
ATOM      8  C   UNL d   1      32.665  16.667 -24.198  0.00  0.00     0.093 A 
ATOM      9  C   UNL d   1      32.896  15.964 -24.574  0.00  0.00     0.020 A 
ATOM     10  C   UNL d   1      32.319  15.461 -24.890  0.00  0.00     0.002 A 
ATOM     11  C   UNL d   1      31.523  15.653 -24.833  0.00  0.00     0.002 A 
BRANCH   8  12
ATOM     12  N   UNL d   1      33.241  17.178 -23.879  0.00  0.00    -0.162 NA
BRANCH  12  13
ATOM     13  S   UNL d   1      33.067  17.971 -23.763  0.00  0.00     0.266 S 
ATOM     14  O   UNL d   1      32.933  18.683 -23.353  0.00  0.00    -0.203 OA
ATOM     15  O   UNL d   1      33.166  17.781 -22.963  0.00  0.00    -0.203 OA
ATOM     16  C   UNL d   1      32.967  18.173 -24.553  0.00  0.00     0.165 C 
ENDBRANCH  12  13
ENDBRANCH   8  12
ENDBRANCH   4   6
BRANCH   1  17
ATOM     17  S   UNL d   1      28.778  17.804 -24.666  0.00  0.00     0.287 S 
ATOM     18  O   UNL d   1      28.125  18.068 -25.097  0.00  0.00    -0.198 OA
ATOM     19  O   UNL d   1      28.757  17.082 -25.069  0.00  0.00    -0.198 OA
BRANCH  17  20
ATOM     20  C   UNL d   1      28.855  18.494 -24.231  0.00  0.00     0.118 C 
ATOM     21  C   UNL d   1      28.713  19.226 -24.594  0.00  0.00     0.014 C 
ENDBRANCH  17  20
ENDBRANCH   1  17
BRANCH   3  22
ATOM     22  C   UNL d   1      28.456  16.226 -23.859  0.00  0.00     0.018 A 
ATOM     23  C   UNL d   1      28.173  16.482 -23.128  0.00  0.00     0.002 A 
ATOM     24  C   UNL d   1      27.437  16.223 -22.859  0.00  0.00     0.000 A 
ATOM     25  C   UNL d   1      26.989  15.712 -23.318  0.00  0.00     0.000 A 
ATOM     26  C   UNL d   1      27.282  15.462 -24.048  0.00  0.00     0.000 A 
ATOM     27  C   UNL d   1      26.253  15.453 -23.049  0.00  0.00     0.000 C 
ATOM     28  C   UNL d   1      28.004  15.712 -24.318  0.00  0.00     0.002 A 
ENDBRANCH   3  22
TORSDOF 6
ENDMDL
