MODEL 1
REMARK VINA RESULT:      31.4      0.000      0.000
REMARK  4 active torsions:
REMARK  status: ('A' for Active; 'I' for Inactive)
REMARK    1  A    between atoms: C_8  and  C_2 
REMARK    2  A    between atoms: C_9  and  N_3 
REMARK    3  A    between atoms: C_12  and  C_9 
REMARK    4  A    between atoms: C_14  and  C_12 
ROOT
ATOM      1  N   UNL d   1      13.520  12.034  -2.740  0.00  0.00    -0.217 NA
ATOM      2  C   UNL d   1      13.965  12.540  -2.270  0.00  0.00     0.149 A 
ATOM      3  N   UNL d   1      14.112  13.309  -2.521  0.00  0.00    -0.290 N 
ATOM      4  C   UNL d   1      13.364  13.053  -3.712  0.00  0.00     0.044 A 
ATOM      5  C   UNL d   1      13.218  12.281  -3.459  0.00  0.00     0.139 A 
ATOM      6  C   UNL d   1      13.811  13.573  -3.247  0.00  0.00     0.068 A 
ATOM      7  S   UNL d   1      12.778  11.780  -3.924  0.00  0.00    -0.057 SA
ATOM      8  C   UNL d   1      13.065  13.312  -4.432  0.00  0.00     0.004 A 
ATOM      9  C   UNL d   1      13.954  14.335  -3.499  0.00  0.00     0.018 A 
ATOM     10  C   UNL d   1      13.207  14.076  -4.687  0.00  0.00     0.000 A 
ATOM     11  C   UNL d   1      13.663  14.594  -4.206  0.00  0.00     0.002 A 
ENDROOT
BRANCH   2  12
ATOM     12  C   UNL d   1      14.268  12.286  -1.546  0.00  0.00     0.035 A 
ATOM     13  C   UNL d   1      15.059  12.072  -1.485  0.00  0.00     0.003 A 
ATOM     14  C   UNL d   1      15.361  11.816  -0.749  0.00  0.00     0.000 A 
ATOM     15  C   UNL d   1      14.864  11.779  -0.091  0.00  0.00     0.000 A 
ATOM     16  C   UNL d   1      14.071  11.996  -0.164  0.00  0.00     0.000 A 
ATOM     17  C   UNL d   1      13.771  12.249  -0.887  0.00  0.00     0.003 A 
ENDBRANCH   2  12
BRANCH   3  18
ATOM     18  C   UNL d   1      14.560  13.820  -2.047  0.00  0.00     0.085 C 
BRANCH  18  19
ATOM     19  C   UNL d   1      14.220  14.517  -1.780  0.00  0.00     0.064 C 
BRANCH  19  20
ATOM     20  C   UNL d   1      14.701  15.143  -1.539  0.00  0.00     0.236 C 
ATOM     21  O   UNL d   1      14.893  15.243  -0.758  0.00  0.00    -0.283 OA
ENDBRANCH  19  20
ENDBRANCH  18  19
ENDBRANCH   3  18
TORSDOF 4
ENDMDL
MODEL 2
REMARK VINA RESULT:      33.4      1.448      3.067
REMARK  4 active torsions:
REMARK  status: ('A' for Active; 'I' for Inactive)
REMARK    1  A    between atoms: C_8  and  C_2 
REMARK    2  A    between atoms: C_9  and  N_3 
REMARK    3  A    between atoms: C_12  and  C_9 
REMARK    4  A    between atoms: C_14  and  C_12 
ROOT
ATOM      1  N   UNL d   1      14.058  12.030  -1.649  0.00  0.00    -0.217 NA
ATOM      2  C   UNL d   1      14.096  12.527  -2.300  0.00  0.00     0.149 A 
ATOM      3  N   UNL d   1      14.408  13.284  -2.221  0.00  0.00    -0.290 N 
ATOM      4  C   UNL d   1      14.638  13.032  -0.833  0.00  0.00     0.044 A 
ATOM      5  C   UNL d   1      14.325  12.272  -0.915  0.00  0.00     0.139 A 
ATOM      6  C   UNL d   1      14.682  13.544  -1.483  0.00  0.00     0.068 A 
ATOM      7  S   UNL d   1      14.287  11.779  -0.269  0.00  0.00    -0.057 SA
ATOM      8  C   UNL d   1      14.910  13.287  -0.101  0.00  0.00     0.004 A 
ATOM      9  C   UNL d   1      14.992  14.293  -1.399  0.00  0.00     0.018 A 
ATOM     10  C   UNL d   1      15.221  14.039  -0.015  0.00  0.00     0.000 A 
ATOM     11  C   UNL d   1      15.261  14.549  -0.682  0.00  0.00     0.002 A 
ENDROOT
BRANCH   2  12
ATOM     12  C   UNL d   1      13.825  12.278  -3.039  0.00  0.00     0.035 A 
ATOM     13  C   UNL d   1      13.039  12.061  -3.134  0.00  0.00     0.003 A 
ATOM     14  C   UNL d   1      12.769  11.809  -3.884  0.00  0.00     0.000 A 
ATOM     15  C   UNL d   1      13.294  11.780  -4.521  0.00  0.00     0.000 A 
ATOM     16  C   UNL d   1      14.081  12.000  -4.414  0.00  0.00     0.000 A 
ATOM     17  C   UNL d   1      14.350  12.249  -3.677  0.00  0.00     0.003 A 
ENDBRANCH   2  12
BRANCH   3  18
ATOM     18  C   UNL d   1      14.446  13.787  -2.879  0.00  0.00     0.085 C 
BRANCH  18  19
ATOM     19  C   UNL d   1      14.030  14.493  -2.865  0.00  0.00     0.064 C 
BRANCH  19  20
ATOM     20  C   UNL d   1      13.857  14.882  -3.572  0.00  0.00     0.236 C 
ATOM     21  O   UNL d   1      13.999  15.675  -3.656  0.00  0.00    -0.283 OA
ENDBRANCH  19  20
ENDBRANCH  18  19
ENDBRANCH   3  18
TORSDOF 4
ENDMDL
