MODEL 1
REMARK VINA RESULT:      -6.2      0.000      0.000
REMARK  2 active torsions:
REMARK  status: ('A' for Active; 'I' for Inactive)
REMARK       I    between atoms: N_3  and  C_1 
REMARK    1  A    between atoms: C_4  and  C_1 
REMARK    2  A    between atoms: C_10  and  N_3 
ROOT
ATOM      1  C   UNL d   1     -41.487-122.487 -52.662  0.00  0.00     0.279 C 
ATOM      2  N   UNL d   1     -41.813-122.939 -53.274  0.00  0.00    -0.208 NA
ATOM      3  O   UNL d   1     -41.162-121.744 -52.824  0.00  0.00    -0.265 OA
ENDROOT
BRANCH   1   4
ATOM      4  C   UNL d   1     -41.492-122.786 -51.894  0.00  0.00     0.059 A 
ATOM      5  C   UNL d   1     -41.863-122.361 -51.296  0.00  0.00     0.013 A 
ATOM      6  C   UNL d   1     -41.874-122.646 -50.529  0.00  0.00     0.049 A 
ATOM      7  S   UNL d   1     -42.200-122.344 -49.826  0.00  0.00    -0.064 SA
ATOM      8  C   UNL d   1     -41.505-123.379 -50.350  0.00  0.00     0.088 A 
ATOM      9  C   UNL d   1     -42.027-122.893 -49.226  0.00  0.00     0.135 A 
ATOM     10  N   UNL d   1     -41.605-123.526 -49.534  0.00  0.00    -0.236 NA
ATOM     11  C   UNL d   1     -41.127-123.817 -50.946  0.00  0.00     0.020 A 
ATOM     12  C   UNL d   1     -41.123-123.518 -51.715  0.00  0.00     0.006 A 
ENDBRANCH   1   4
BRANCH   2  13
ATOM     13  C   UNL d   1     -41.804-122.623 -54.068  0.00  0.00     0.087 A 
ATOM     14  C   UNL d   1     -42.386-122.096 -54.314  0.00  0.00     0.049 A 
ATOM     15  C   UNL d   1     -42.372-121.798 -55.074  0.00  0.00     0.142 A 
ATOM     16  F   UNL d   1     -42.957-121.265 -55.331  0.00  0.00    -0.204 F 
ATOM     17  C   UNL d   1     -41.779-122.024 -55.590  0.00  0.00     0.030 A 
ATOM     18  C   UNL d   1     -41.196-122.551 -55.348  0.00  0.00     0.004 A 
ATOM     19  C   UNL d   1     -41.208-122.855 -54.577  0.00  0.00     0.019 A 
ENDBRANCH   2  13
TORSDOF 2
ENDMDL
MODEL 2
REMARK VINA RESULT:      -6.0      2.026      4.274
REMARK  2 active torsions:
REMARK  status: ('A' for Active; 'I' for Inactive)
REMARK       I    between atoms: N_3  and  C_1 
REMARK    1  A    between atoms: C_4  and  C_1 
REMARK    2  A    between atoms: C_10  and  N_3 
ROOT
ATOM      1  C   UNL d   1     -41.500-122.608 -52.031  0.00  0.00     0.279 C 
ATOM      2  N   UNL d   1     -41.815-123.223 -51.577  0.00  0.00    -0.208 NA
ATOM      3  O   UNL d   1     -41.175-121.944 -51.660  0.00  0.00    -0.265 OA
ENDROOT
BRANCH   1   4
ATOM      4  C   UNL d   1     -41.516-122.664 -52.853  0.00  0.00     0.059 A 
ATOM      5  C   UNL d   1     -41.918-122.097 -53.291  0.00  0.00     0.013 A 
ATOM      6  C   UNL d   1     -41.942-122.141 -54.108  0.00  0.00     0.049 A 
ATOM      7  S   UNL d   1     -42.297-121.658 -54.684  0.00  0.00    -0.064 SA
ATOM      8  C   UNL d   1     -41.551-122.772 -54.503  0.00  0.00     0.088 A 
ATOM      9  C   UNL d   1     -42.122-121.996 -55.422  0.00  0.00     0.135 A 
ATOM     10  N   UNL d   1     -41.668-122.673 -55.324  0.00  0.00    -0.236 NA
ATOM     11  C   UNL d   1     -41.141-123.351 -54.072  0.00  0.00     0.020 A 
ATOM     12  C   UNL d   1     -41.126-123.294 -53.248  0.00  0.00     0.006 A 
ENDBRANCH   1   4
BRANCH   2  13
ATOM     13  C   UNL d   1     -41.795-123.158 -50.725  0.00  0.00     0.087 A 
ATOM     14  C   UNL d   1     -42.418-122.806 -50.318  0.00  0.00     0.049 A 
ATOM     15  C   UNL d   1     -42.393-122.746 -49.505  0.00  0.00     0.142 A 
ATOM     16  F   UNL d   1     -43.018-122.392 -49.086  0.00  0.00    -0.204 F 
ATOM     17  C   UNL d   1     -41.748-123.038 -49.094  0.00  0.00     0.030 A 
ATOM     18  C   UNL d   1     -41.124-123.390 -49.497  0.00  0.00     0.004 A 
ATOM     19  C   UNL d   1     -41.146-123.452 -50.323  0.00  0.00     0.019 A 
ENDBRANCH   2  13
TORSDOF 2
ENDMDL
MODEL 3
REMARK VINA RESULT:      -4.5      1.885      2.867
REMARK  2 active torsions:
REMARK  status: ('A' for Active; 'I' for Inactive)
REMARK       I    between atoms: N_3  and  C_1 
REMARK    1  A    between atoms: C_4  and  C_1 
REMARK    2  A    between atoms: C_10  and  N_3 
ROOT
ATOM      1  C   UNL d   1     -42.327-122.880 -50.179  0.00  0.00     0.279 C 
ATOM      2  N   UNL d   1     -41.710-123.238 -50.598  0.00  0.00    -0.208 NA
ATOM      3  O   UNL d   1     -42.768-122.274 -50.529  0.00  0.00    -0.265 OA
ENDROOT
BRANCH   1   4
ATOM      4  C   UNL d   1     -42.494-123.133 -49.412  0.00  0.00     0.059 A 
ATOM      5  C   UNL d   1     -41.965-122.967 -48.805  0.00  0.00     0.013 A 
ATOM      6  C   UNL d   1     -42.120-123.213 -48.040  0.00  0.00     0.049 A 
ATOM      7  S   UNL d   1     -41.696-123.127 -47.330  0.00  0.00    -0.064 SA
ATOM      8  C   UNL d   1     -42.825-123.638 -47.872  0.00  0.00     0.088 A 
ATOM      9  C   UNL d   1     -42.144-123.499 -46.737  0.00  0.00     0.135 A 
ATOM     10  N   UNL d   1     -42.832-123.813 -47.056  0.00  0.00    -0.236 NA
ATOM     11  C   UNL d   1     -43.367-123.812 -48.477  0.00  0.00     0.020 A 
ATOM     12  C   UNL d   1     -43.199-123.558 -49.244  0.00  0.00     0.006 A 
ENDBRANCH   1   4
BRANCH   2  13
ATOM     13  C   UNL d   1     -41.542-122.971 -51.392  0.00  0.00     0.087 A 
ATOM     14  C   UNL d   1     -41.612-123.486 -52.030  0.00  0.00     0.049 A 
ATOM     15  C   UNL d   1     -41.450-123.224 -52.786  0.00  0.00     0.142 A 
ATOM     16  F   UNL d   1     -41.518-123.738 -53.436  0.00  0.00    -0.204 F 
ATOM     17  C   UNL d   1     -41.219-122.449 -52.908  0.00  0.00     0.030 A 
ATOM     18  C   UNL d   1     -41.148-121.932 -52.273  0.00  0.00     0.004 A 
ATOM     19  C   UNL d   1     -41.311-122.194 -51.504  0.00  0.00     0.019 A 
ENDBRANCH   2  13
TORSDOF 2
ENDMDL
MODEL 4
REMARK VINA RESULT:      -4.5      2.446      4.746
REMARK  2 active torsions:
REMARK  status: ('A' for Active; 'I' for Inactive)
REMARK       I    between atoms: N_3  and  C_1 
REMARK    1  A    between atoms: C_4  and  C_1 
REMARK    2  A    between atoms: C_10  and  N_3 
ROOT
ATOM      1  C   UNL d   1     -42.010-122.651 -50.657  0.00  0.00     0.279 C 
ATOM      2  N   UNL d   1     -41.681-123.261 -50.205  0.00  0.00    -0.208 NA
ATOM      3  O   UNL d   1     -42.558-122.133 -50.316  0.00  0.00    -0.265 OA
ENDROOT
BRANCH   1   4
ATOM      4  C   UNL d   1     -41.786-122.567 -51.445  0.00  0.00     0.059 A 
ATOM      5  C   UNL d   1     -41.704-123.235 -51.917  0.00  0.00     0.013 A 
ATOM      6  C   UNL d   1     -41.482-123.165 -52.702  0.00  0.00     0.049 A 
ATOM      7  S   UNL d   1     -41.358-123.729 -53.300  0.00  0.00    -0.064 SA
ATOM      8  C   UNL d   1     -41.337-122.405 -53.029  0.00  0.00     0.088 A 
ATOM      9  C   UNL d   1     -41.139-123.312 -53.983  0.00  0.00     0.135 A 
ATOM     10  N   UNL d   1     -41.123-122.505 -53.830  0.00  0.00    -0.236 NA
ATOM     11  C   UNL d   1     -41.416-121.723 -52.562  0.00  0.00     0.020 A 
ATOM     12  C   UNL d   1     -41.640-121.807 -51.772  0.00  0.00     0.006 A 
ENDBRANCH   1   4
BRANCH   2  13
ATOM     13  C   UNL d   1     -41.918-123.342 -49.388  0.00  0.00     0.087 A 
ATOM     14  C   UNL d   1     -41.430-123.073 -48.782  0.00  0.00     0.049 A 
ATOM     15  C   UNL d   1     -41.663-123.153 -48.004  0.00  0.00     0.142 A 
ATOM     16  F   UNL d   1     -41.175-122.884 -47.387  0.00  0.00    -0.204 F 
ATOM     17  C   UNL d   1     -42.381-123.502 -47.827  0.00  0.00     0.030 A 
ATOM     18  C   UNL d   1     -42.872-123.771 -48.430  0.00  0.00     0.004 A 
ATOM     19  C   UNL d   1     -42.639-123.691 -49.221  0.00  0.00     0.019 A 
ENDBRANCH   2  13
TORSDOF 2
ENDMDL
