MODEL 1
REMARK VINA RESULT:      -1.2      0.000      0.000
REMARK  7 active torsions:
REMARK  status: ('A' for Active; 'I' for Inactive)
REMARK    1  A    between atoms: C_8  and  N_1 
REMARK       I    between atoms: C_3  and  N_5 
REMARK       I    between atoms: N_9  and  C_3 
REMARK    2  A    between atoms: N_5  and  C_6 
REMARK    3  A    between atoms: C_18  and  N_9 
REMARK    4  A    between atoms: C_19  and  N_9 
REMARK    5  A    between atoms: O_17  and  C_14 
REMARK    6  A    between atoms: C_21  and  C_18 
REMARK    7  A    between atoms: C_22  and  C_19 
ROOT
ATOM      1  N   UNL d   1      32.418  18.474 -23.514  0.00  0.00    -0.272 N 
ATOM      2  C   UNL d   1      32.962  18.833 -24.025  0.00  0.00     0.266 A 
ATOM      3  C   UNL d   1      33.241  19.515 -23.642  0.00  0.00     0.082 A 
ATOM      4  C   UNL d   1      32.871  19.570 -22.906  0.00  0.00     0.108 A 
ATOM      5  C   UNL d   1      32.363  18.922 -22.833  0.00  0.00     0.102 A 
ATOM      6  O   UNL d   1      33.183  18.567 -24.768  0.00  0.00    -0.267 OA
ENDROOT
BRANCH   4   7
ATOM      7  N   UNL d   1      32.992  20.168 -22.347  0.00  0.00    -0.190 NA
ATOM      8  C   UNL d   1      32.721  20.928 -22.500  0.00  0.00     0.354 C 
ATOM      9  N   UNL d   1      32.839  21.529 -21.945  0.00  0.00    -0.256 N 
ATOM     10  O   UNL d   1      32.331  21.097 -23.205  0.00  0.00    -0.244 OA
BRANCH   9  11
ATOM     11  C   UNL d   1      32.569  22.298 -22.091  0.00  0.00     0.085 C 
BRANCH  11  12
ATOM     12  C   UNL d   1      33.067  22.869 -22.403  0.00  0.00     0.019 C 
ATOM     13  C   UNL d   1      32.881  23.670 -22.357  0.00  0.00     0.002 C 
ENDBRANCH  11  12
ENDBRANCH   9  11
BRANCH   9  14
ATOM     14  C   UNL d   1      33.230  21.360 -21.237  0.00  0.00     0.085 C 
BRANCH  14  15
ATOM     15  C   UNL d   1      32.792  21.234 -20.552  0.00  0.00     0.019 C 
ATOM     16  C   UNL d   1      33.149  21.346 -19.807  0.00  0.00     0.002 C 
ENDBRANCH  14  15
ENDBRANCH   9  14
ENDBRANCH   4   7
BRANCH   1  17
ATOM     17  C   UNL d   1      32.003  17.779 -23.671  0.00  0.00     0.067 A 
ATOM     18  C   UNL d   1      31.454  17.757 -24.289  0.00  0.00     0.020 A 
ATOM     19  C   UNL d   1      31.039  17.061 -24.445  0.00  0.00     0.026 A 
ATOM     20  C   UNL d   1      31.172  16.389 -23.987  0.00  0.00     0.094 A 
ATOM     21  C   UNL d   1      31.717  16.406 -23.371  0.00  0.00     0.026 A 
ATOM     22  C   UNL d   1      32.136  17.108 -23.213  0.00  0.00     0.020 A 
BRANCH  20  23
ATOM     23  O   UNL d   1      30.752  15.698 -24.150  0.00  0.00    -0.328 OA
ATOM     24  C   UNL d   1      29.936  15.734 -24.248  0.00  0.00     0.181 C 
ENDBRANCH  20  23
ENDBRANCH   1  17
TORSDOF 7
ENDMDL
MODEL 2
REMARK VINA RESULT:      -1.0      1.267      5.193
REMARK  7 active torsions:
REMARK  status: ('A' for Active; 'I' for Inactive)
REMARK    1  A    between atoms: C_8  and  N_1 
REMARK       I    between atoms: C_3  and  N_5 
REMARK       I    between atoms: N_9  and  C_3 
REMARK    2  A    between atoms: N_5  and  C_6 
REMARK    3  A    between atoms: C_18  and  N_9 
REMARK    4  A    between atoms: C_19  and  N_9 
REMARK    5  A    between atoms: O_17  and  C_14 
REMARK    6  A    between atoms: C_21  and  C_18 
REMARK    7  A    between atoms: C_22  and  C_19 
ROOT
ATOM      1  N   UNL d   1      32.957  19.923 -22.997  0.00  0.00    -0.272 N 
ATOM      2  C   UNL d   1      33.042  20.146 -23.790  0.00  0.00     0.266 A 
ATOM      3  C   UNL d   1      32.940  19.460 -24.247  0.00  0.00     0.082 A 
ATOM      4  C   UNL d   1      32.795  18.827 -23.738  0.00  0.00     0.108 A 
ATOM      5  C   UNL d   1      32.807  19.120 -22.965  0.00  0.00     0.102 A 
ATOM      6  O   UNL d   1      33.197  20.900 -24.071  0.00  0.00    -0.267 OA
ENDROOT
BRANCH   4   7
ATOM      7  N   UNL d   1      32.662  18.043 -23.966  0.00  0.00    -0.190 NA
ATOM      8  C   UNL d   1      31.943  17.834 -24.303  0.00  0.00     0.354 C 
ATOM      9  N   UNL d   1      31.805  17.053 -24.533  0.00  0.00    -0.256 N 
ATOM     10  O   UNL d   1      31.356  18.400 -24.415  0.00  0.00    -0.244 OA
BRANCH   9  11
ATOM     11  C   UNL d   1      31.083  16.833 -24.874  0.00  0.00     0.085 C 
BRANCH  11  12
ATOM     12  C   UNL d   1      30.597  16.281 -24.514  0.00  0.00     0.019 C 
ATOM     13  C   UNL d   1      29.784  16.403 -24.450  0.00  0.00     0.002 C 
ENDBRANCH  11  12
ENDBRANCH   9  11
BRANCH   9  14
ATOM     14  C   UNL d   1      32.394  16.484 -24.421  0.00  0.00     0.085 C 
BRANCH  14  15
ATOM     15  C   UNL d   1      32.871  16.264 -25.055  0.00  0.00     0.019 C 
ATOM     16  C   UNL d   1      33.174  15.489 -25.096  0.00  0.00     0.002 C 
ENDBRANCH  14  15
ENDBRANCH   9  14
ENDBRANCH   4   7
BRANCH   1  17
ATOM     17  C   UNL d   1      33.016  20.430 -22.350  0.00  0.00     0.067 A 
ATOM     18  C   UNL d   1      33.054  20.119 -21.584  0.00  0.00     0.020 A 
ATOM     19  C   UNL d   1      33.113  20.627 -20.937  0.00  0.00     0.026 A 
ATOM     20  C   UNL d   1      33.134  21.442 -21.052  0.00  0.00     0.094 A 
ATOM     21  C   UNL d   1      33.096  21.757 -21.811  0.00  0.00     0.026 A 
ATOM     22  C   UNL d   1      33.037  21.244 -22.465  0.00  0.00     0.020 A 
BRANCH  20  23
ATOM     23  O   UNL d   1      33.192  21.943 -20.398  0.00  0.00    -0.328 OA
ATOM     24  C   UNL d   1      32.816  22.675 -20.415  0.00  0.00     0.181 C 
ENDBRANCH  20  23
ENDBRANCH   1  17
TORSDOF 7
ENDMDL
MODEL 3
REMARK VINA RESULT:      -0.3      1.958      5.770
REMARK  7 active torsions:
REMARK  status: ('A' for Active; 'I' for Inactive)
REMARK    1  A    between atoms: C_8  and  N_1 
REMARK       I    between atoms: C_3  and  N_5 
REMARK       I    between atoms: N_9  and  C_3 
REMARK    2  A    between atoms: N_5  and  C_6 
REMARK    3  A    between atoms: C_18  and  N_9 
REMARK    4  A    between atoms: C_19  and  N_9 
REMARK    5  A    between atoms: O_17  and  C_14 
REMARK    6  A    between atoms: C_21  and  C_18 
REMARK    7  A    between atoms: C_22  and  C_19 
ROOT
ATOM      1  N   UNL d   1      32.671  22.359 -20.826  0.00  0.00    -0.272 N 
ATOM      2  C   UNL d   1      32.175  22.756 -21.356  0.00  0.00     0.266 A 
ATOM      3  C   UNL d   1      32.199  22.334 -22.072  0.00  0.00     0.082 A 
ATOM      4  C   UNL d   1      32.703  21.689 -21.977  0.00  0.00     0.108 A 
ATOM      5  C   UNL d   1      32.993  21.709 -21.203  0.00  0.00     0.102 A 
ATOM      6  O   UNL d   1      31.743  23.435 -21.206  0.00  0.00    -0.267 OA
ENDROOT
BRANCH   4   7
ATOM      7  N   UNL d   1      32.883  21.126 -22.556  0.00  0.00    -0.190 NA
ATOM      8  C   UNL d   1      32.691  20.338 -22.430  0.00  0.00     0.354 C 
ATOM      9  N   UNL d   1      32.868  19.771 -23.005  0.00  0.00    -0.256 N 
ATOM     10  O   UNL d   1      32.321  20.106 -21.732  0.00  0.00    -0.244 OA
BRANCH   9  11
ATOM     11  C   UNL d   1      32.678  18.974 -22.886  0.00  0.00     0.085 C 
BRANCH  11  12
ATOM     12  C   UNL d   1      33.236  18.385 -23.000  0.00  0.00     0.019 C 
ATOM     13  C   UNL d   1      33.039  17.588 -22.925  0.00  0.00     0.002 C 
ENDBRANCH  11  12
ENDBRANCH   9  11
BRANCH   9  14
ATOM     14  C   UNL d   1      33.239  20.003 -23.706  0.00  0.00     0.085 C 
BRANCH  14  15
ATOM     15  C   UNL d   1      32.783  20.166 -24.371  0.00  0.00     0.019 C 
ATOM     16  C   UNL d   1      33.146  20.471 -25.057  0.00  0.00     0.002 C 
ENDBRANCH  14  15
ENDBRANCH   9  14
ENDBRANCH   4   7
BRANCH   1  17
ATOM     17  C   UNL d   1      32.814  22.585 -20.045  0.00  0.00     0.067 A 
ATOM     18  C   UNL d   1      32.748  23.380 -19.828  0.00  0.00     0.020 A 
ATOM     19  C   UNL d   1      32.891  23.606 -19.048  0.00  0.00     0.026 A 
ATOM     20  C   UNL d   1      33.099  23.041 -18.486  0.00  0.00     0.094 A 
ATOM     21  C   UNL d   1      33.167  22.249 -18.696  0.00  0.00     0.026 A 
ATOM     22  C   UNL d   1      33.022  22.021 -19.484  0.00  0.00     0.020 A 
BRANCH  20  23
ATOM     23  O   UNL d   1      33.241  23.276 -17.708  0.00  0.00    -0.328 OA
ATOM     24  C   UNL d   1      32.788  22.955 -17.100  0.00  0.00     0.181 C 
ENDBRANCH  20  23
ENDBRANCH   1  17
TORSDOF 7
ENDMDL
MODEL 4
REMARK VINA RESULT:       0.0      1.381      5.213
REMARK  7 active torsions:
REMARK  status: ('A' for Active; 'I' for Inactive)
REMARK    1  A    between atoms: C_8  and  N_1 
REMARK       I    between atoms: C_3  and  N_5 
REMARK       I    between atoms: N_9  and  C_3 
REMARK    2  A    between atoms: N_5  and  C_6 
REMARK    3  A    between atoms: C_18  and  N_9 
REMARK    4  A    between atoms: C_19  and  N_9 
REMARK    5  A    between atoms: O_17  and  C_14 
REMARK    6  A    between atoms: C_21  and  C_18 
REMARK    7  A    between atoms: C_22  and  C_19 
ROOT
ATOM      1  N   UNL d   1      32.982  21.321 -22.011  0.00  0.00    -0.272 N 
ATOM      2  C   UNL d   1      33.145  21.518 -22.798  0.00  0.00     0.266 A 
ATOM      3  C   UNL d   1      33.232  20.805 -23.214  0.00  0.00     0.082 A 
ATOM      4  C   UNL d   1      33.124  20.181 -22.685  0.00  0.00     0.108 A 
ATOM      5  C   UNL d   1      32.969  20.507 -21.941  0.00  0.00     0.102 A 
ATOM      6  O   UNL d   1      33.209  22.274 -23.109  0.00  0.00    -0.267 OA
ENDROOT
BRANCH   4   7
ATOM      7  N   UNL d   1      33.163  19.376 -22.872  0.00  0.00    -0.190 NA
ATOM      8  C   UNL d   1      32.536  19.018 -23.261  0.00  0.00     0.354 C 
ATOM      9  N   UNL d   1      32.571  18.214 -23.450  0.00  0.00    -0.256 N 
ATOM     10  O   UNL d   1      31.869  19.454 -23.466  0.00  0.00    -0.244 OA
BRANCH   9  11
ATOM     11  C   UNL d   1      31.942  17.844 -23.843  0.00  0.00     0.085 C 
BRANCH  11  12
ATOM     12  C   UNL d   1      31.955  17.739 -24.655  0.00  0.00     0.019 C 
ATOM     13  C   UNL d   1      31.259  17.730 -25.097  0.00  0.00     0.002 C 
ENDBRANCH  11  12
ENDBRANCH   9  11
BRANCH   9  14
ATOM     14  C   UNL d   1      33.239  17.774 -23.245  0.00  0.00     0.085 C 
BRANCH  14  15
ATOM     15  C   UNL d   1      33.207  17.265 -22.599  0.00  0.00     0.019 C 
ATOM     16  C   UNL d   1      33.187  16.441 -22.724  0.00  0.00     0.002 C 
ENDBRANCH  14  15
ENDBRANCH   9  14
ENDBRANCH   4   7
BRANCH   1  17
ATOM     17  C   UNL d   1      32.855  21.861 -21.400  0.00  0.00     0.067 A 
ATOM     18  C   UNL d   1      32.623  22.635 -21.575  0.00  0.00     0.020 A 
ATOM     19  C   UNL d   1      32.495  23.174 -20.964  0.00  0.00     0.026 A 
ATOM     20  C   UNL d   1      32.599  22.942 -20.181  0.00  0.00     0.094 A 
ATOM     21  C   UNL d   1      32.830  22.174 -20.000  0.00  0.00     0.026 A 
ATOM     22  C   UNL d   1      32.958  21.629 -20.617  0.00  0.00     0.020 A 
BRANCH  20  23
ATOM     23  O   UNL d   1      32.470  23.488 -19.576  0.00  0.00    -0.328 OA
ATOM     24  C   UNL d   1      32.599  23.264 -18.794  0.00  0.00     0.181 C 
ENDBRANCH  20  23
ENDBRANCH   1  17
TORSDOF 7
ENDMDL
