MODEL 1
REMARK VINA RESULT:      53.8      0.000      0.000
REMARK  3 active torsions:
REMARK  status: ('A' for Active; 'I' for Inactive)
REMARK    1  A    between atoms: C_11  and  N_1 
REMARK    2  A    between atoms: C_3  and  C_2 
REMARK    3  A    between atoms: C_13  and  C_16 
ROOT
ATOM      1  N   UNL d   1      14.768  14.017  -1.458  0.00  0.00    -0.260 N 
ATOM      2  C   UNL d   1      14.146  13.070  -2.151  0.00  0.00     0.093 A 
ATOM      3  C   UNL d   1      15.053  13.329  -1.183  0.00  0.00     0.153 A 
ATOM      4  C   UNL d   1      14.204  13.883  -2.059  0.00  0.00     0.272 A 
ATOM      5  S   UNL d   1      14.674  12.731  -1.606  0.00  0.00    -0.053 SA
ATOM      6  S   UNL d   1      15.621  13.243  -0.586  0.00  0.00    -0.052 SA
ATOM      7  O   UNL d   1      13.782  14.451  -2.484  0.00  0.00    -0.266 OA
ENDROOT
BRANCH   2   8
ATOM      8  C   UNL d   1      13.673  12.655  -2.666  0.00  0.00     0.068 A 
ATOM      9  C   UNL d   1      13.149  12.071  -2.441  0.00  0.00     0.258 A 
ATOM     10  N   UNL d   1      12.774  11.781  -3.093  0.00  0.00    -0.321 N 
ATOM     11  O   UNL d   1      13.025  11.819  -1.663  0.00  0.00    -0.267 OA
ATOM     12  H   UNL d   1      12.203  11.182  -3.093  0.00  0.00     0.169 HD
ATOM     13  C   UNL d   1      13.063  12.186  -3.752  0.00  0.00     0.059 A 
ATOM     14  C   UNL d   1      13.617  12.727  -3.498  0.00  0.00     0.021 A 
ATOM     15  C   UNL d   1      12.878  12.119  -4.567  0.00  0.00     0.017 A 
ATOM     16  C   UNL d   1      14.001  13.212  -4.034  0.00  0.00     0.002 A 
ATOM     17  C   UNL d   1      13.828  13.156  -4.837  0.00  0.00     0.000 A 
ATOM     18  C   UNL d   1      13.267  12.610  -5.104  0.00  0.00     0.002 A 
ENDBRANCH   2   8
BRANCH   1  19
ATOM     19  C   UNL d   1      14.966  14.767  -1.220  0.00  0.00     0.068 A 
ATOM     20  C   UNL d   1      15.151  14.932  -0.444  0.00  0.00     0.018 A 
ATOM     21  C   UNL d   1      15.354  15.715  -0.220  0.00  0.00     0.008 A 
ATOM     22  C   UNL d   1      15.362  16.303  -0.785  0.00  0.00     0.065 A 
ATOM     23  C   UNL d   1      15.174  16.134  -1.573  0.00  0.00     0.008 A 
ATOM     24  C   UNL d   1      14.979  15.380  -1.788  0.00  0.00     0.018 A 
BRANCH  22  25
ATOM     25  C   UNL d   1      15.571  17.094  -0.539  0.00  0.00     0.211 C 
ATOM     26  O   UNL d   1      16.366  17.331  -0.538  0.00  0.00    -0.644 OA
ATOM     27  O   UNL d   1      14.980  17.625  -0.300  0.00  0.00    -0.644 OA
ENDBRANCH  22  25
ENDBRANCH   1  19
TORSDOF 3
ENDMDL
