MODEL 1
REMARK VINA RESULT:      -7.4      0.000      0.000
REMARK  6 active torsions:
REMARK  status: ('A' for Active; 'I' for Inactive)
REMARK    1  A    between atoms: N_7  and  C_1 
REMARK    2  A    between atoms: C_6  and  C_4 
REMARK    3  A    between atoms: C_19  and  N_9 
REMARK    4  A    between atoms: C_21  and  C_13 
REMARK    5  A    between atoms: O_20  and  C_21 
REMARK    6  A    between atoms: C_22  and  O_20 
ROOT
ATOM      1  C   UNL d   1     -46.186  12.942  22.394  0.00  0.00     0.198 A 
ATOM      2  C   UNL d   1     -45.854  13.735  22.412  0.00  0.00     0.191 A 
ATOM      3  O   UNL d   1     -45.578  12.439  22.131  0.00  0.00    -0.268 OA
ATOM      4  C   UNL d   1     -44.924  12.891  21.998  0.00  0.00     0.208 A 
ATOM      5  N   UNL d   1     -45.079  13.655  22.161  0.00  0.00    -0.206 NA
ATOM      6  C   UNL d   1     -46.265  14.413  22.641  0.00  0.00     0.124 C 
ATOM      7  N   UNL d   1     -46.653  15.116  22.866  0.00  0.00    -0.190 NA
ENDROOT
BRANCH   1   8
ATOM      8  N   UNL d   1     -46.961  12.821  22.615  0.00  0.00    -0.280 N 
ATOM      9  C   UNL d   1     -47.165  12.648  23.390  0.00  0.00     0.101 A 
ATOM     10  C   UNL d   1     -47.939  12.528  23.610  0.00  0.00     0.100 A 
ATOM     11  N   UNL d   1     -48.530  12.582  23.034  0.00  0.00    -0.301 N 
ATOM     12  C   UNL d   1     -48.341  12.757  22.241  0.00  0.00     0.100 A 
ATOM     13  C   UNL d   1     -47.552  12.875  22.039  0.00  0.00     0.101 A 
BRANCH  11  14
ATOM     14  C   UNL d   1     -49.320  12.463  23.237  0.00  0.00     0.064 A 
ATOM     15  C   UNL d   1     -49.879  13.086  23.206  0.00  0.00     0.018 A 
ATOM     16  C   UNL d   1     -50.668  12.968  23.409  0.00  0.00     0.002 A 
ATOM     17  C   UNL d   1     -50.912  12.212  23.649  0.00  0.00     0.000 A 
ATOM     18  C   UNL d   1     -50.374  11.590  23.684  0.00  0.00     0.002 A 
ATOM     19  C   UNL d   1     -49.564  11.708  23.477  0.00  0.00     0.018 A 
ENDBRANCH  11  14
ENDBRANCH   1   8
BRANCH   4  20
ATOM     20  C   UNL d   1     -44.159  13.088  21.792  0.00  0.00     0.141 A 
ATOM     21  O   UNL d   1     -43.552  13.654  21.647  0.00  0.00    -0.301 OA
ATOM     22  C   UNL d   1     -42.863  13.249  21.436  0.00  0.00     0.125 A 
ATOM     23  C   UNL d   1     -43.006  12.459  21.441  0.00  0.00     0.029 A 
ATOM     24  C   UNL d   1     -43.819  12.375  21.665  0.00  0.00     0.030 A 
BRANCH  22  25
ATOM     25  C   UNL d   1     -42.126  13.566  21.244  0.00  0.00     0.147 C 
BRANCH  25  26
ATOM     26  O   UNL d   1     -42.050  14.274  20.819  0.00  0.00    -0.303 OA
BRANCH  26  27
ATOM     27  C   UNL d   1     -41.329  14.632  20.691  0.00  0.00     0.100 A 
ATOM     28  C   UNL d   1     -40.717  14.272  20.281  0.00  0.00     0.025 A 
ATOM     29  C   UNL d   1     -39.998  14.649  20.162  0.00  0.00     0.002 A 
ATOM     30  C   UNL d   1     -39.367  14.299  19.748  0.00  0.00     0.000 C 
ATOM     31  C   UNL d   1     -39.891  15.403  20.462  0.00  0.00     0.000 A 
ATOM     32  C   UNL d   1     -40.515  15.787  20.889  0.00  0.00     0.002 A 
ATOM     33  C   UNL d   1     -41.225  15.405  21.001  0.00  0.00     0.025 A 
ENDBRANCH  26  27
ENDBRANCH  25  26
ENDBRANCH  22  25
ENDBRANCH   4  20
TORSDOF 6
ENDMDL
MODEL 2
REMARK VINA RESULT:      -5.0      0.964      1.387
REMARK  6 active torsions:
REMARK  status: ('A' for Active; 'I' for Inactive)
REMARK    1  A    between atoms: N_7  and  C_1 
REMARK    2  A    between atoms: C_6  and  C_4 
REMARK    3  A    between atoms: C_19  and  N_9 
REMARK    4  A    between atoms: C_21  and  C_13 
REMARK    5  A    between atoms: O_20  and  C_21 
REMARK    6  A    between atoms: C_22  and  O_20 
ROOT
ATOM      1  C   UNL d   1     -46.061  12.882  22.380  0.00  0.00     0.198 A 
ATOM      2  C   UNL d   1     -45.481  12.327  22.689  0.00  0.00     0.191 A 
ATOM      3  O   UNL d   1     -45.641  13.420  21.904  0.00  0.00    -0.268 OA
ATOM      4  C   UNL d   1     -44.863  13.209  21.921  0.00  0.00     0.208 A 
ATOM      5  N   UNL d   1     -44.761  12.566  22.381  0.00  0.00    -0.206 NA
ATOM      6  C   UNL d   1     -45.653  11.695  23.191  0.00  0.00     0.124 C 
ATOM      7  N   UNL d   1     -45.796  11.049  23.697  0.00  0.00    -0.190 NA
ENDROOT
BRANCH   1   8
ATOM      8  N   UNL d   1     -46.846  12.802  22.581  0.00  0.00    -0.280 N 
ATOM      9  C   UNL d   1     -47.136  13.074  23.299  0.00  0.00     0.101 A 
ATOM     10  C   UNL d   1     -47.920  12.994  23.500  0.00  0.00     0.100 A 
ATOM     11  N   UNL d   1     -48.434  12.630  22.963  0.00  0.00    -0.301 N 
ATOM     12  C   UNL d   1     -48.157  12.348  22.229  0.00  0.00     0.100 A 
ATOM     13  C   UNL d   1     -47.360  12.438  22.044  0.00  0.00     0.101 A 
BRANCH  11  14
ATOM     14  C   UNL d   1     -49.232  12.539  23.148  0.00  0.00     0.064 A 
ATOM     15  C   UNL d   1     -49.521  11.843  23.512  0.00  0.00     0.018 A 
ATOM     16  C   UNL d   1     -50.318  11.753  23.697  0.00  0.00     0.002 A 
ATOM     17  C   UNL d   1     -50.845  12.368  23.517  0.00  0.00     0.000 A 
ATOM     18  C   UNL d   1     -50.575  13.058  23.158  0.00  0.00     0.002 A 
ATOM     19  C   UNL d   1     -49.758  13.154  22.967  0.00  0.00     0.018 A 
ENDBRANCH  11  14
ENDBRANCH   1   8
BRANCH   4  20
ATOM     20  C   UNL d   1     -44.062  13.226  21.764  0.00  0.00     0.141 A 
ATOM     21  O   UNL d   1     -43.265  13.381  21.989  0.00  0.00    -0.301 OA
ATOM     22  C   UNL d   1     -42.773  13.197  21.351  0.00  0.00     0.125 A 
ATOM     23  C   UNL d   1     -43.220  12.935  20.737  0.00  0.00     0.029 A 
ATOM     24  C   UNL d   1     -44.021  12.959  21.011  0.00  0.00     0.030 A 
BRANCH  22  25
ATOM     25  C   UNL d   1     -41.951  13.257  21.309  0.00  0.00     0.147 C 
BRANCH  25  26
ATOM     26  O   UNL d   1     -41.569  13.987  21.230  0.00  0.00    -0.303 OA
BRANCH  26  27
ATOM     27  C   UNL d   1     -40.758  14.053  21.179  0.00  0.00     0.100 A 
ATOM     28  C   UNL d   1     -40.250  13.808  21.775  0.00  0.00     0.025 A 
ATOM     29  C   UNL d   1     -39.437  13.882  21.706  0.00  0.00     0.002 A 
ATOM     30  C   UNL d   1     -38.908  13.639  22.300  0.00  0.00     0.000 C 
ATOM     31  C   UNL d   1     -39.124  14.210  21.024  0.00  0.00     0.000 A 
ATOM     32  C   UNL d   1     -39.637  14.468  20.399  0.00  0.00     0.002 A 
ATOM     33  C   UNL d   1     -40.444  14.390  20.478  0.00  0.00     0.025 A 
ENDBRANCH  26  27
ENDBRANCH  25  26
ENDBRANCH  22  25
ENDBRANCH   4  20
TORSDOF 6
ENDMDL
