MODEL 1
REMARK VINA RESULT:      -9.8      0.000      0.000
REMARK  3 active torsions:
REMARK  status: ('A' for Active; 'I' for Inactive)
REMARK       I    between atoms: N_3  and  C_8 
REMARK    1  A    between atoms: S_12  and  C_6 
REMARK    2  A    between atoms: C_8  and  C_14 
REMARK    3  A    between atoms: C_14  and  S_12 
ROOT
ATOM      1  S   UNL d   1      51.101  34.354  53.331  0.00  0.00    -0.060 SA
ENDROOT
BRANCH   1   2
ATOM      2  C   UNL d   1      50.587  34.411  52.691  0.00  0.00     0.137 A 
ATOM      3  C   UNL d   1      49.878  34.810  52.763  0.00  0.00     0.141 A 
ATOM      4  O   UNL d   1      49.529  35.205  53.394  0.00  0.00    -0.303 OA
ATOM      5  C   UNL d   1      49.373  34.860  52.116  0.00  0.00     0.110 A 
ATOM      6  C   UNL d   1      48.809  35.498  53.133  0.00  0.00     0.102 A 
ATOM      7  C   UNL d   1      48.215  35.939  53.514  0.00  0.00     0.025 A 
ATOM      8  C   UNL d   1      48.713  35.286  52.348  0.00  0.00     0.043 A 
ATOM      9  C   UNL d   1      47.540  36.159  53.105  0.00  0.00     0.002 A 
ATOM     10  C   UNL d   1      47.445  35.947  52.320  0.00  0.00     0.000 A 
ATOM     11  C   UNL d   1      48.029  35.510  51.937  0.00  0.00     0.004 A 
ATOM     12  N   UNL d   1      49.577  34.513  51.401  0.00  0.00    -0.222 NA
ATOM     13  C   UNL d   1      50.286  34.114  51.329  0.00  0.00     0.200 A 
ATOM     14  N   UNL d   1      50.800  34.057  51.969  0.00  0.00    -0.215 NA
ENDBRANCH   1   2
BRANCH   1  15
ATOM     15  C   UNL d   1      51.846  34.043  53.233  0.00  0.00     0.098 C 
BRANCH  15  16
ATOM     16  C   UNL d   1      52.483  34.315  53.691  0.00  0.00     0.271 C 
ATOM     17  N   UNL d   1      53.089  33.796  53.916  0.00  0.00    -0.273 N 
ATOM     18  C   UNL d   1      53.063  33.011  53.688  0.00  0.00     0.067 A 
ATOM     19  C   UNL d   1      53.727  34.072  54.376  0.00  0.00     0.083 A 
ATOM     20  C   UNL d   1      53.665  32.490  53.909  0.00  0.00     0.016 A 
ATOM     21  C   UNL d   1      52.430  32.738  53.232  0.00  0.00     0.018 A 
ATOM     22  C   UNL d   1      53.645  31.692  53.681  0.00  0.00     0.001 A 
ATOM     23  C   UNL d   1      54.297  32.763  54.365  0.00  0.00     0.003 A 
ATOM     24  C   UNL d   1      53.005  31.427  53.223  0.00  0.00     0.000 A 
ATOM     25  C   UNL d   1      52.403  31.943  53.000  0.00  0.00     0.002 A 
ATOM     26  C   UNL d   1      54.327  33.548  54.596  0.00  0.00     0.019 A 
ATOM     27  O   UNL d   1      52.510  35.109  53.923  0.00  0.00    -0.266 OA
ENDBRANCH  15  16
ENDBRANCH   1  15
TORSDOF 3
ENDMDL
MODEL 2
REMARK VINA RESULT:      -9.3      1.013      5.284
REMARK  3 active torsions:
REMARK  status: ('A' for Active; 'I' for Inactive)
REMARK       I    between atoms: N_3  and  C_8 
REMARK    1  A    between atoms: S_12  and  C_6 
REMARK    2  A    between atoms: C_8  and  C_14 
REMARK    3  A    between atoms: C_14  and  S_12 
ROOT
ATOM      1  S   UNL d   1      50.574  33.943  52.636  0.00  0.00    -0.060 SA
ENDROOT
BRANCH   1   2
ATOM      2  C   UNL d   1      51.319  34.091  52.951  0.00  0.00     0.137 A 
ATOM      3  C   UNL d   1      51.850  33.479  53.065  0.00  0.00     0.141 A 
ATOM      4  O   UNL d   1      51.799  32.671  52.920  0.00  0.00    -0.303 OA
ATOM      5  C   UNL d   1      52.592  33.639  53.380  0.00  0.00     0.110 A 
ATOM      6  C   UNL d   1      52.512  32.336  53.148  0.00  0.00     0.102 A 
ATOM      7  C   UNL d   1      52.789  31.551  53.136  0.00  0.00     0.025 A 
ATOM      8  C   UNL d   1      52.999  32.931  53.431  0.00  0.00     0.043 A 
ATOM      9  C   UNL d   1      53.543  31.376  53.404  0.00  0.00     0.002 A 
ATOM     10  C   UNL d   1      54.029  31.972  53.687  0.00  0.00     0.000 A 
ATOM     11  C   UNL d   1      53.761  32.751  53.702  0.00  0.00     0.004 A 
ATOM     12  N   UNL d   1      52.802  34.407  53.581  0.00  0.00    -0.222 NA
ATOM     13  C   UNL d   1      52.272  35.017  53.467  0.00  0.00     0.200 A 
ATOM     14  N   UNL d   1      51.526  34.870  53.152  0.00  0.00    -0.215 NA
ENDBRANCH   1   2
BRANCH   1  15
ATOM     15  C   UNL d   1      50.084  34.560  52.433  0.00  0.00     0.098 C 
BRANCH  15  16
ATOM     16  C   UNL d   1      49.625  34.528  51.742  0.00  0.00     0.271 C 
ATOM     17  N   UNL d   1      48.885  34.899  51.713  0.00  0.00    -0.273 N 
ATOM     18  C   UNL d   1      48.602  35.302  52.368  0.00  0.00     0.067 A 
ATOM     19  C   UNL d   1      48.426  34.866  51.019  0.00  0.00     0.083 A 
ATOM     20  C   UNL d   1      47.865  35.674  52.344  0.00  0.00     0.016 A 
ATOM     21  C   UNL d   1      49.057  35.335  53.056  0.00  0.00     0.018 A 
ATOM     22  C   UNL d   1      47.571  36.084  53.004  0.00  0.00     0.001 A 
ATOM     23  C   UNL d   1      47.410  35.641  51.655  0.00  0.00     0.003 A 
ATOM     24  C   UNL d   1      48.036  36.111  53.691  0.00  0.00     0.000 A 
ATOM     25  C   UNL d   1      48.772  35.741  53.720  0.00  0.00     0.002 A 
ATOM     26  C   UNL d   1      47.689  35.240  50.998  0.00  0.00     0.019 A 
ATOM     27  O   UNL d   1      49.911  34.121  51.080  0.00  0.00    -0.266 OA
ENDBRANCH  15  16
ENDBRANCH   1  15
TORSDOF 3
ENDMDL
MODEL 3
REMARK VINA RESULT:      -8.3      1.268      5.217
REMARK  3 active torsions:
REMARK  status: ('A' for Active; 'I' for Inactive)
REMARK       I    between atoms: N_3  and  C_8 
REMARK    1  A    between atoms: S_12  and  C_6 
REMARK    2  A    between atoms: C_8  and  C_14 
REMARK    3  A    between atoms: C_14  and  S_12 
ROOT
ATOM      1  S   UNL d   1      50.236  34.651  52.365  0.00  0.00    -0.060 SA
ENDROOT
BRANCH   1   2
ATOM      2  C   UNL d   1      50.663  34.083  52.780  0.00  0.00     0.137 A 
ATOM      3  C   UNL d   1      51.358  34.284  53.161  0.00  0.00     0.141 A 
ATOM      4  O   UNL d   1      51.765  34.996  53.228  0.00  0.00    -0.303 OA
ATOM      5  C   UNL d   1      51.776  33.708  53.572  0.00  0.00     0.110 A 
ATOM      6  C   UNL d   1      52.433  34.855  53.682  0.00  0.00     0.102 A 
ATOM      7  C   UNL d   1      53.050  35.352  53.936  0.00  0.00     0.025 A 
ATOM      8  C   UNL d   1      52.440  34.063  53.893  0.00  0.00     0.043 A 
ATOM      9  C   UNL d   1      53.659  35.051  54.395  0.00  0.00     0.002 A 
ATOM     10  C   UNL d   1      53.665  34.260  54.605  0.00  0.00     0.000 A 
ATOM     11  C   UNL d   1      53.057  33.762  54.357  0.00  0.00     0.004 A 
ATOM     12  N   UNL d   1      51.500  32.935  53.602  0.00  0.00    -0.222 NA
ATOM     13  C   UNL d   1      50.806  32.736  53.222  0.00  0.00     0.200 A 
ATOM     14  N   UNL d   1      50.378  33.303  52.806  0.00  0.00    -0.215 NA
ENDBRANCH   1   2
BRANCH   1  15
ATOM     15  C   UNL d   1      49.437  34.736  52.489  0.00  0.00     0.098 C 
BRANCH  15  16
ATOM     16  C   UNL d   1      48.918  34.846  51.850  0.00  0.00     0.271 C 
ATOM     17  N   UNL d   1      48.244  35.321  51.935  0.00  0.00    -0.273 N 
ATOM     18  C   UNL d   1      48.087  35.686  52.651  0.00  0.00     0.067 A 
ATOM     19  C   UNL d   1      47.725  35.430  51.293  0.00  0.00     0.083 A 
ATOM     20  C   UNL d   1      47.417  36.160  52.741  0.00  0.00     0.016 A 
ATOM     21  C   UNL d   1      48.602  35.578  53.288  0.00  0.00     0.018 A 
ATOM     22  C   UNL d   1      47.250  36.533  53.464  0.00  0.00     0.001 A 
ATOM     23  C   UNL d   1      46.901  36.269  52.104  0.00  0.00     0.003 A 
ATOM     24  C   UNL d   1      47.774  36.418  54.098  0.00  0.00     0.000 A 
ATOM     25  C   UNL d   1      48.444  35.946  54.013  0.00  0.00     0.002 A 
ATOM     26  C   UNL d   1      47.055  35.906  51.386  0.00  0.00     0.019 A 
ATOM     27  O   UNL d   1      49.076  34.478  51.126  0.00  0.00    -0.266 OA
ENDBRANCH  15  16
ENDBRANCH   1  15
TORSDOF 3
ENDMDL
MODEL 4
REMARK VINA RESULT:      -8.3      2.752      5.233
REMARK  3 active torsions:
REMARK  status: ('A' for Active; 'I' for Inactive)
REMARK       I    between atoms: N_3  and  C_8 
REMARK    1  A    between atoms: S_12  and  C_6 
REMARK    2  A    between atoms: C_8  and  C_14 
REMARK    3  A    between atoms: C_14  and  S_12 
ROOT
ATOM      1  S   UNL d   1      52.389  31.838  53.434  0.00  0.00    -0.060 SA
ENDROOT
BRANCH   1   2
ATOM      2  C   UNL d   1      52.715  31.132  53.167  0.00  0.00     0.137 A 
ATOM      3  C   UNL d   1      52.872  30.524  53.691  0.00  0.00     0.141 A 
ATOM      4  O   UNL d   1      52.768  30.455  54.504  0.00  0.00    -0.303 OA
ATOM      5  C   UNL d   1      53.198  29.822  53.412  0.00  0.00     0.110 A 
ATOM      6  C   UNL d   1      53.030  29.709  54.723  0.00  0.00     0.102 A 
ATOM      7  C   UNL d   1      53.064  29.325  55.459  0.00  0.00     0.025 A 
ATOM      8  C   UNL d   1      53.294  29.321  54.052  0.00  0.00     0.043 A 
ATOM      9  C   UNL d   1      53.360  28.562  55.513  0.00  0.00     0.002 A 
ATOM     10  C   UNL d   1      53.624  28.174  54.841  0.00  0.00     0.000 A 
ATOM     11  C   UNL d   1      53.592  28.550  54.108  0.00  0.00     0.004 A 
ATOM     12  N   UNL d   1      53.364  29.729  52.614  0.00  0.00    -0.222 NA
ATOM     13  C   UNL d   1      53.207  30.336  52.091  0.00  0.00     0.200 A 
ATOM     14  N   UNL d   1      52.881  31.044  52.358  0.00  0.00    -0.215 NA
ENDBRANCH   1   2
BRANCH   1  15
ATOM     15  C   UNL d   1      52.819  32.527  53.399  0.00  0.00     0.098 C 
BRANCH  15  16
ATOM     16  C   UNL d   1      52.438  33.262  53.329  0.00  0.00     0.271 C 
ATOM     17  N   UNL d   1      52.744  33.931  53.710  0.00  0.00    -0.273 N 
ATOM     18  C   UNL d   1      53.426  33.871  54.160  0.00  0.00     0.067 A 
ATOM     19  C   UNL d   1      52.360  34.667  53.638  0.00  0.00     0.083 A 
ATOM     20  C   UNL d   1      53.734  34.535  54.542  0.00  0.00     0.016 A 
ATOM     21  C   UNL d   1      53.806  33.141  54.231  0.00  0.00     0.018 A 
ATOM     22  C   UNL d   1      54.425  34.482  55.000  0.00  0.00     0.001 A 
ATOM     23  C   UNL d   1      53.354  35.265  54.471  0.00  0.00     0.003 A 
ATOM     24  C   UNL d   1      54.801  33.744  55.066  0.00  0.00     0.000 A 
ATOM     25  C   UNL d   1      54.496  33.079  54.686  0.00  0.00     0.002 A 
ATOM     26  C   UNL d   1      52.672  35.329  54.022  0.00  0.00     0.019 A 
ATOM     27  O   UNL d   1      51.749  33.323  52.874  0.00  0.00    -0.266 OA
ENDBRANCH  15  16
ENDBRANCH   1  15
TORSDOF 3
ENDMDL
MODEL 5
REMARK VINA RESULT:      -7.4      1.248      2.158
REMARK  3 active torsions:
REMARK  status: ('A' for Active; 'I' for Inactive)
REMARK       I    between atoms: N_3  and  C_8 
REMARK    1  A    between atoms: S_12  and  C_6 
REMARK    2  A    between atoms: C_8  and  C_14 
REMARK    3  A    between atoms: C_14  and  S_12 
ROOT
ATOM      1  S   UNL d   1      50.169  34.412  52.591  0.00  0.00    -0.060 SA
ENDROOT
BRANCH   1   2
ATOM      2  C   UNL d   1      49.563  34.901  52.855  0.00  0.00     0.137 A 
ATOM      3  C   UNL d   1      48.910  35.044  52.384  0.00  0.00     0.141 A 
ATOM      4  O   UNL d   1      48.705  34.781  51.632  0.00  0.00    -0.303 OA
ATOM      5  C   UNL d   1      48.311  35.535  52.659  0.00  0.00     0.110 A 
ATOM      6  C   UNL d   1      47.977  35.112  51.446  0.00  0.00     0.102 A 
ATOM      7  C   UNL d   1      47.493  35.053  50.773  0.00  0.00     0.025 A 
ATOM      8  C   UNL d   1      47.736  35.575  52.077  0.00  0.00     0.043 A 
ATOM      9  C   UNL d   1      46.780  35.454  50.741  0.00  0.00     0.002 A 
ATOM     10  C   UNL d   1      46.539  35.917  51.373  0.00  0.00     0.000 A 
ATOM     11  C   UNL d   1      47.014  35.980  52.043  0.00  0.00     0.004 A 
ATOM     12  N   UNL d   1      48.364  35.881  53.401  0.00  0.00    -0.222 NA
ATOM     13  C   UNL d   1      49.016  35.739  53.871  0.00  0.00     0.200 A 
ATOM     14  N   UNL d   1      49.623  35.249  53.607  0.00  0.00    -0.215 NA
ENDBRANCH   1   2
BRANCH   1  15
ATOM     15  C   UNL d   1      50.749  34.163  53.103  0.00  0.00     0.098 C 
BRANCH  15  16
ATOM     16  C   UNL d   1      51.041  33.387  53.070  0.00  0.00     0.271 C 
ATOM     17  N   UNL d   1      51.836  33.230  53.242  0.00  0.00    -0.273 N 
ATOM     18  C   UNL d   1      52.340  33.842  53.447  0.00  0.00     0.067 A 
ATOM     19  C   UNL d   1      52.126  32.450  53.208  0.00  0.00     0.083 A 
ATOM     20  C   UNL d   1      53.133  33.690  53.620  0.00  0.00     0.016 A 
ATOM     21  C   UNL d   1      52.052  34.615  53.481  0.00  0.00     0.018 A 
ATOM     22  C   UNL d   1      53.651  34.306  53.829  0.00  0.00     0.001 A 
ATOM     23  C   UNL d   1      53.421  32.917  53.586  0.00  0.00     0.003 A 
ATOM     24  C   UNL d   1      53.352  35.080  53.860  0.00  0.00     0.000 A 
ATOM     25  C   UNL d   1      52.561  35.236  53.689  0.00  0.00     0.002 A 
ATOM     26  C   UNL d   1      52.921  32.302  53.382  0.00  0.00     0.019 A 
ATOM     27  O   UNL d   1      50.532  32.768  52.863  0.00  0.00    -0.266 OA
ENDBRANCH  15  16
ENDBRANCH   1  15
TORSDOF 3
ENDMDL
