MODEL 1
REMARK VINA RESULT:      -5.8      0.000      0.000
REMARK  8 active torsions:
REMARK  status: ('A' for Active; 'I' for Inactive)
REMARK    1  A    between atoms: N_5  and  C_1 
REMARK    2  A    between atoms: C_2  and  N_5 
REMARK    3  A    between atoms: N_3  and  C_2 
REMARK       I    between atoms: C_6  and  N_3 
REMARK    4  A    between atoms: C_13  and  C_6 
REMARK    5  A    between atoms: C_9  and  C_7 
REMARK    6  A    between atoms: C_11  and  C_9 
REMARK    7  A    between atoms: O_18  and  C_11 
REMARK    8  A    between atoms: C_22  and  O_18 
ROOT
ATOM      1  C   UNL d   1     -48.985  11.834  23.039  0.00  0.00     0.225 C 
ATOM      2  S   UNL d   1     -49.166  11.534  22.290  0.00  0.00    -0.037 SA
ENDROOT
BRANCH   1   3
ATOM      3  N   UNL d   1     -48.514  11.425  23.575  0.00  0.00    -0.192 NA
BRANCH   3   4
ATOM      4  C   UNL d   1     -47.716  11.572  23.587  0.00  0.00     0.196 A 
ATOM      5  N   UNL d   1     -47.242  12.240  23.556  0.00  0.00    -0.220 NA
ATOM      6  C   UNL d   1     -46.478  12.037  23.590  0.00  0.00     0.095 A 
ATOM      7  C   UNL d   1     -46.406  11.234  23.644  0.00  0.00     0.058 A 
ATOM      8  S   UNL d   1     -47.161  10.918  23.645  0.00  0.00    -0.046 SA
BRANCH   6   9
ATOM      9  C   UNL d   1     -45.798  12.588  23.573  0.00  0.00     0.088 C 
BRANCH   9  10
ATOM     10  C   UNL d   1     -45.548  12.909  22.872  0.00  0.00     0.302 C 
ATOM     11  O   UNL d   1     -45.992  13.489  22.494  0.00  0.00    -0.259 OA
BRANCH  10  12
ATOM     12  O   UNL d   1     -44.829  12.649  22.528  0.00  0.00    -0.271 OA
BRANCH  12  13
ATOM     13  C   UNL d   1     -44.516  13.050  21.870  0.00  0.00     0.126 C 
ATOM     14  C   UNL d   1     -43.890  12.737  21.454  0.00  0.00     0.029 C 
ENDBRANCH  12  13
ENDBRANCH  10  12
ENDBRANCH   9  10
ENDBRANCH   6   9
ENDBRANCH   3   4
ENDBRANCH   1   3
BRANCH   1  15
ATOM     15  N   UNL d   1     -49.295  12.585  23.260  0.00  0.00    -0.179 NA
ATOM     16  C   UNL d   1     -49.801  12.948  22.765  0.00  0.00     0.281 C 
ATOM     17  O   UNL d   1     -50.024  12.600  22.042  0.00  0.00    -0.265 OA
BRANCH  16  18
ATOM     18  C   UNL d   1     -50.123  13.709  22.975  0.00  0.00     0.058 A 
ATOM     19  C   UNL d   1     -49.809  14.399  22.648  0.00  0.00     0.005 A 
ATOM     20  C   UNL d   1     -50.097  15.134  22.832  0.00  0.00     0.000 A 
ATOM     21  C   UNL d   1     -50.736  15.192  23.371  0.00  0.00     0.000 A 
ATOM     22  C   UNL d   1     -51.046  14.512  23.693  0.00  0.00     0.000 A 
ATOM     23  C   UNL d   1     -51.058  15.922  23.584  0.00  0.00     0.000 C 
ATOM     24  C   UNL d   1     -50.758  13.757  23.512  0.00  0.00     0.005 A 
ENDBRANCH  16  18
ENDBRANCH   1  15
TORSDOF 8
ENDMDL
MODEL 2
REMARK VINA RESULT:      -5.6      8.978     10.327
REMARK  8 active torsions:
REMARK  status: ('A' for Active; 'I' for Inactive)
REMARK    1  A    between atoms: N_5  and  C_1 
REMARK    2  A    between atoms: C_2  and  N_5 
REMARK    3  A    between atoms: N_3  and  C_2 
REMARK       I    between atoms: C_6  and  N_3 
REMARK    4  A    between atoms: C_13  and  C_6 
REMARK    5  A    between atoms: C_9  and  C_7 
REMARK    6  A    between atoms: C_11  and  C_9 
REMARK    7  A    between atoms: O_18  and  C_11 
REMARK    8  A    between atoms: C_22  and  O_18 
ROOT
ATOM      1  C   UNL d   1     -40.398  14.704  19.352  0.00  0.00     0.225 C 
ATOM      2  S   UNL d   1     -40.944  14.138  19.607  0.00  0.00    -0.037 SA
ENDROOT
BRANCH   1   3
ATOM      3  N   UNL d   1     -40.378  15.467  19.659  0.00  0.00    -0.192 NA
BRANCH   3   4
ATOM      4  C   UNL d   1     -40.080  15.582  20.404  0.00  0.00     0.196 A 
ATOM      5  N   UNL d   1     -39.346  15.505  20.760  0.00  0.00    -0.220 NA
ATOM      6  C   UNL d   1     -39.389  15.702  21.525  0.00  0.00     0.095 A 
ATOM      7  C   UNL d   1     -40.145  15.917  21.715  0.00  0.00     0.058 A 
ATOM      8  S   UNL d   1     -40.597  15.852  21.035  0.00  0.00    -0.046 SA
BRANCH   6   9
ATOM      9  C   UNL d   1     -38.727  15.694  22.097  0.00  0.00     0.088 C 
BRANCH   9  10
ATOM     10  C   UNL d   1     -38.737  15.189  22.731  0.00  0.00     0.302 C 
ATOM     11  O   UNL d   1     -39.088  15.412  23.440  0.00  0.00    -0.259 OA
BRANCH  10  12
ATOM     12  O   UNL d   1     -38.388  14.430  22.664  0.00  0.00    -0.271 OA
BRANCH  12  13
ATOM     13  C   UNL d   1     -37.990  14.097  23.315  0.00  0.00     0.126 C 
ATOM     14  C   UNL d   1     -38.005  13.293  23.443  0.00  0.00     0.029 C 
ENDBRANCH  12  13
ENDBRANCH  10  12
ENDBRANCH   9  10
ENDBRANCH   6   9
ENDBRANCH   3   4
ENDBRANCH   1   3
BRANCH   1  15
ATOM     15  N   UNL d   1     -39.841  14.490  18.758  0.00  0.00    -0.179 NA
ATOM     16  C   UNL d   1     -40.099  14.395  18.011  0.00  0.00     0.281 C 
ATOM     17  O   UNL d   1     -40.901  14.503  17.813  0.00  0.00    -0.265 OA
BRANCH  16  18
ATOM     18  C   UNL d   1     -39.548  14.179  17.398  0.00  0.00     0.058 A 
ATOM     19  C   UNL d   1     -39.105  13.486  17.462  0.00  0.00     0.005 A 
ATOM     20  C   UNL d   1     -38.574  13.258  16.893  0.00  0.00     0.000 A 
ATOM     21  C   UNL d   1     -38.474  13.746  16.219  0.00  0.00     0.000 A 
ATOM     22  C   UNL d   1     -38.910  14.430  16.156  0.00  0.00     0.000 A 
ATOM     23  C   UNL d   1     -37.943  13.549  15.617  0.00  0.00     0.000 C 
ATOM     24  C   UNL d   1     -39.455  14.670  16.731  0.00  0.00     0.005 A 
ENDBRANCH  16  18
ENDBRANCH   1  15
TORSDOF 8
ENDMDL
MODEL 3
REMARK VINA RESULT:      -4.9      1.511      2.279
REMARK  8 active torsions:
REMARK  status: ('A' for Active; 'I' for Inactive)
REMARK    1  A    between atoms: N_5  and  C_1 
REMARK    2  A    between atoms: C_2  and  N_5 
REMARK    3  A    between atoms: N_3  and  C_2 
REMARK       I    between atoms: C_6  and  N_3 
REMARK    4  A    between atoms: C_13  and  C_6 
REMARK    5  A    between atoms: C_9  and  C_7 
REMARK    6  A    between atoms: C_11  and  C_9 
REMARK    7  A    between atoms: O_18  and  C_11 
REMARK    8  A    between atoms: C_22  and  O_18 
ROOT
ATOM      1  C   UNL d   1     -47.129  12.682  23.055  0.00  0.00     0.225 C 
ATOM      2  S   UNL d   1     -47.212  11.895  23.293  0.00  0.00    -0.037 SA
ENDROOT
BRANCH   1   3
ATOM      3  N   UNL d   1     -46.444  13.115  23.197  0.00  0.00    -0.192 NA
BRANCH   3   4
ATOM      4  C   UNL d   1     -45.773  12.935  22.779  0.00  0.00     0.196 A 
ATOM      5  N   UNL d   1     -45.338  13.295  22.185  0.00  0.00    -0.220 NA
ATOM      6  C   UNL d   1     -44.716  12.846  21.989  0.00  0.00     0.095 A 
ATOM      7  C   UNL d   1     -44.706  12.174  22.437  0.00  0.00     0.058 A 
ATOM      8  S   UNL d   1     -45.353  12.202  22.939  0.00  0.00    -0.046 SA
BRANCH   6   9
ATOM      9  C   UNL d   1     -44.118  13.034  21.379  0.00  0.00     0.088 C 
BRANCH   9  10
ATOM     10  C   UNL d   1     -43.330  12.910  21.524  0.00  0.00     0.302 C 
ATOM     11  O   UNL d   1     -43.054  12.164  21.731  0.00  0.00    -0.259 OA
BRANCH  10  12
ATOM     12  O   UNL d   1     -42.790  13.548  21.463  0.00  0.00    -0.271 OA
BRANCH  12  13
ATOM     13  C   UNL d   1     -42.045  13.429  21.113  0.00  0.00     0.126 C 
ATOM     14  C   UNL d   1     -41.521  14.047  21.033  0.00  0.00     0.029 C 
ENDBRANCH  12  13
ENDBRANCH  10  12
ENDBRANCH   9  10
ENDBRANCH   6   9
ENDBRANCH   3   4
ENDBRANCH   1   3
BRANCH   1  15
ATOM     15  N   UNL d   1     -47.768  13.054  22.653  0.00  0.00    -0.179 NA
ATOM     16  C   UNL d   1     -48.495  13.017  22.977  0.00  0.00     0.281 C 
ATOM     17  O   UNL d   1     -48.627  12.623  23.698  0.00  0.00    -0.265 OA
BRANCH  16  18
ATOM     18  C   UNL d   1     -49.152  13.388  22.581  0.00  0.00     0.058 A 
ATOM     19  C   UNL d   1     -49.379  14.156  22.782  0.00  0.00     0.005 A 
ATOM     20  C   UNL d   1     -50.001  14.531  22.420  0.00  0.00     0.000 A 
ATOM     21  C   UNL d   1     -50.425  14.122  21.824  0.00  0.00     0.000 A 
ATOM     22  C   UNL d   1     -50.201  13.365  21.626  0.00  0.00     0.000 A 
ATOM     23  C   UNL d   1     -51.064  14.469  21.432  0.00  0.00     0.000 C 
ATOM     24  C   UNL d   1     -49.568  12.974  21.989  0.00  0.00     0.005 A 
ENDBRANCH  16  18
ENDBRANCH   1  15
TORSDOF 8
ENDMDL
MODEL 4
REMARK VINA RESULT:      -4.6      1.789      4.931
REMARK  8 active torsions:
REMARK  status: ('A' for Active; 'I' for Inactive)
REMARK    1  A    between atoms: N_5  and  C_1 
REMARK    2  A    between atoms: C_2  and  N_5 
REMARK    3  A    between atoms: N_3  and  C_2 
REMARK       I    between atoms: C_6  and  N_3 
REMARK    4  A    between atoms: C_13  and  C_6 
REMARK    5  A    between atoms: C_9  and  C_7 
REMARK    6  A    between atoms: C_11  and  C_9 
REMARK    7  A    between atoms: O_18  and  C_11 
REMARK    8  A    between atoms: C_22  and  O_18 
ROOT
ATOM      1  C   UNL d   1     -47.809  14.668  22.933  0.00  0.00     0.225 C 
ATOM      2  S   UNL d   1     -47.532  15.004  22.231  0.00  0.00    -0.037 SA
ENDROOT
BRANCH   1   3
ATOM      3  N   UNL d   1     -48.350  15.049  23.422  0.00  0.00    -0.192 NA
BRANCH   3   4
ATOM      4  C   UNL d   1     -49.138  15.015  23.235  0.00  0.00     0.196 A 
ATOM      5  N   UNL d   1     -49.612  14.529  22.775  0.00  0.00    -0.220 NA
ATOM      6  C   UNL d   1     -50.365  14.772  22.804  0.00  0.00     0.095 A 
ATOM      7  C   UNL d   1     -50.429  15.423  23.278  0.00  0.00     0.058 A 
ATOM      8  S   UNL d   1     -49.681  15.598  23.560  0.00  0.00    -0.046 SA
BRANCH   6   9
ATOM      9  C   UNL d   1     -51.041  14.401  22.389  0.00  0.00     0.088 C 
BRANCH   9  10
ATOM     10  C   UNL d   1     -50.914  13.877  21.785  0.00  0.00     0.302 C 
ATOM     11  O   UNL d   1     -50.916  14.129  21.002  0.00  0.00    -0.259 OA
BRANCH  10  12
ATOM     12  O   UNL d   1     -50.779  13.068  21.957  0.00  0.00    -0.271 OA
BRANCH  12  13
ATOM     13  C   UNL d   1     -50.573  12.542  21.346  0.00  0.00     0.126 C 
ATOM     14  C   UNL d   1     -50.200  11.838  21.514  0.00  0.00     0.029 C 
ENDBRANCH  12  13
ENDBRANCH  10  12
ENDBRANCH   9  10
ENDBRANCH   6   9
ENDBRANCH   3   4
ENDBRANCH   1   3
BRANCH   1  15
ATOM     15  N   UNL d   1     -47.527  13.907  23.156  0.00  0.00    -0.179 NA
ATOM     16  C   UNL d   1     -46.837  13.652  22.852  0.00  0.00     0.281 C 
ATOM     17  O   UNL d   1     -46.398  14.123  22.324  0.00  0.00    -0.265 OA
BRANCH  16  18
ATOM     18  C   UNL d   1     -46.538  12.884  23.069  0.00  0.00     0.058 A 
ATOM     19  C   UNL d   1     -45.774  12.659  22.856  0.00  0.00     0.005 A 
ATOM     20  C   UNL d   1     -45.466  11.934  23.049  0.00  0.00     0.000 A 
ATOM     21  C   UNL d   1     -45.945  11.397  23.481  0.00  0.00     0.000 A 
ATOM     22  C   UNL d   1     -46.699  11.619  23.691  0.00  0.00     0.000 A 
ATOM     23  C   UNL d   1     -45.669  10.650  23.697  0.00  0.00     0.000 C 
ATOM     24  C   UNL d   1     -47.021  12.356  23.498  0.00  0.00     0.005 A 
ENDBRANCH  16  18
ENDBRANCH   1  15
TORSDOF 8
ENDMDL
MODEL 5
REMARK VINA RESULT:      -4.3      1.971      5.464
REMARK  8 active torsions:
REMARK  status: ('A' for Active; 'I' for Inactive)
REMARK    1  A    between atoms: N_5  and  C_1 
REMARK    2  A    between atoms: C_2  and  N_5 
REMARK    3  A    between atoms: N_3  and  C_2 
REMARK       I    between atoms: C_6  and  N_3 
REMARK    4  A    between atoms: C_13  and  C_6 
REMARK    5  A    between atoms: C_9  and  C_7 
REMARK    6  A    between atoms: C_11  and  C_9 
REMARK    7  A    between atoms: O_18  and  C_11 
REMARK    8  A    between atoms: C_22  and  O_18 
ROOT
ATOM      1  C   UNL d   1     -45.945  13.318  22.414  0.00  0.00     0.225 C 
ATOM      2  S   UNL d   1     -46.078  13.333  21.599  0.00  0.00    -0.037 SA
ENDROOT
BRANCH   1   3
ATOM      3  N   UNL d   1     -46.147  13.946  22.905  0.00  0.00    -0.192 NA
BRANCH   3   4
ATOM      4  C   UNL d   1     -46.927  14.162  22.965  0.00  0.00     0.196 A 
ATOM      5  N   UNL d   1     -47.618  13.800  23.214  0.00  0.00    -0.220 NA
ATOM      6  C   UNL d   1     -48.230  14.297  23.145  0.00  0.00     0.095 A 
ATOM      7  C   UNL d   1     -47.980  15.006  22.849  0.00  0.00     0.058 A 
ATOM      8  S   UNL d   1     -47.172  14.951  22.727  0.00  0.00    -0.046 SA
BRANCH   6   9
ATOM      9  C   UNL d   1     -49.062  14.121  23.352  0.00  0.00     0.088 C 
BRANCH   9  10
ATOM     10  C   UNL d   1     -49.451  13.503  23.002  0.00  0.00     0.302 C 
ATOM     11  O   UNL d   1     -49.812  13.595  22.269  0.00  0.00    -0.259 OA
BRANCH  10  12
ATOM     12  O   UNL d   1     -49.486  12.761  23.390  0.00  0.00    -0.271 OA
BRANCH  12  13
ATOM     13  C   UNL d   1     -49.926  12.139  23.057  0.00  0.00     0.126 C 
ATOM     14  C   UNL d   1     -50.171  11.512  23.515  0.00  0.00     0.029 C 
ENDBRANCH  12  13
ENDBRANCH  10  12
ENDBRANCH   9  10
ENDBRANCH   6   9
ENDBRANCH   3   4
ENDBRANCH   1   3
BRANCH   1  15
ATOM     15  N   UNL d   1     -45.590  12.635  22.754  0.00  0.00    -0.179 NA
ATOM     16  C   UNL d   1     -44.947  12.324  22.401  0.00  0.00     0.281 C 
ATOM     17  O   UNL d   1     -44.628  12.662  21.710  0.00  0.00    -0.265 OA
BRANCH  16  18
ATOM     18  C   UNL d   1     -44.577  11.632  22.732  0.00  0.00     0.058 A 
ATOM     19  C   UNL d   1     -45.028  11.070  23.133  0.00  0.00     0.005 A 
ATOM     20  C   UNL d   1     -44.699  10.403  23.458  0.00  0.00     0.000 A 
ATOM     21  C   UNL d   1     -43.873  10.285  23.382  0.00  0.00     0.000 A 
ATOM     22  C   UNL d   1     -43.428  10.839  22.986  0.00  0.00     0.000 A 
ATOM     23  C   UNL d   1     -43.500   9.619  23.698  0.00  0.00     0.000 C 
ATOM     24  C   UNL d   1     -43.754  11.523  22.652  0.00  0.00     0.005 A 
ENDBRANCH  16  18
ENDBRANCH   1  15
TORSDOF 8
ENDMDL
MODEL 6
REMARK VINA RESULT:      -4.3      1.520      5.417
REMARK  8 active torsions:
REMARK  status: ('A' for Active; 'I' for Inactive)
REMARK    1  A    between atoms: N_5  and  C_1 
REMARK    2  A    between atoms: C_2  and  N_5 
REMARK    3  A    between atoms: N_3  and  C_2 
REMARK       I    between atoms: C_6  and  N_3 
REMARK    4  A    between atoms: C_13  and  C_6 
REMARK    5  A    between atoms: C_9  and  C_7 
REMARK    6  A    between atoms: C_11  and  C_9 
REMARK    7  A    between atoms: O_18  and  C_11 
REMARK    8  A    between atoms: C_22  and  O_18 
ROOT
ATOM      1  C   UNL d   1     -46.798  13.575  23.032  0.00  0.00     0.225 C 
ATOM      2  S   UNL d   1     -47.188  12.886  23.270  0.00  0.00    -0.037 SA
ENDROOT
BRANCH   1   3
ATOM      3  N   UNL d   1     -47.100  14.325  23.180  0.00  0.00    -0.192 NA
BRANCH   3   4
ATOM      4  C   UNL d   1     -47.881  14.472  23.018  0.00  0.00     0.196 A 
ATOM      5  N   UNL d   1     -48.600  14.214  23.315  0.00  0.00    -0.220 NA
ATOM      6  C   UNL d   1     -49.198  14.560  22.927  0.00  0.00     0.095 A 
ATOM      7  C   UNL d   1     -48.910  15.059  22.360  0.00  0.00     0.058 A 
ATOM      8  S   UNL d   1     -48.092  15.025  22.394  0.00  0.00    -0.046 SA
BRANCH   6   9
ATOM      9  C   UNL d   1     -50.050  14.432  23.077  0.00  0.00     0.088 C 
BRANCH   9  10
ATOM     10  C   UNL d   1     -50.392  13.715  22.917  0.00  0.00     0.302 C 
ATOM     11  O   UNL d   1     -50.585  13.504  22.146  0.00  0.00    -0.259 OA
BRANCH  10  12
ATOM     12  O   UNL d   1     -50.552  13.181  23.544  0.00  0.00    -0.271 OA
BRANCH  12  13
ATOM     13  C   UNL d   1     -51.064  12.538  23.420  0.00  0.00     0.126 C 
ATOM     14  C   UNL d   1     -50.873  11.796  23.698  0.00  0.00     0.029 C 
ENDBRANCH  12  13
ENDBRANCH  10  12
ENDBRANCH   9  10
ENDBRANCH   6   9
ENDBRANCH   3   4
ENDBRANCH   1   3
BRANCH   1  15
ATOM     15  N   UNL d   1     -46.065  13.504  22.624  0.00  0.00    -0.179 NA
ATOM     16  C   UNL d   1     -45.610  12.867  22.765  0.00  0.00     0.281 C 
ATOM     17  O   UNL d   1     -45.847  12.278  23.304  0.00  0.00    -0.265 OA
BRANCH  16  18
ATOM     18  C   UNL d   1     -44.866  12.782  22.359  0.00  0.00     0.058 A 
ATOM     19  C   UNL d   1     -44.638  13.331  21.787  0.00  0.00     0.005 A 
ATOM     20  C   UNL d   1     -43.935  13.272  21.387  0.00  0.00     0.000 A 
ATOM     21  C   UNL d   1     -43.425  12.630  21.564  0.00  0.00     0.000 A 
ATOM     22  C   UNL d   1     -43.649  12.089  22.127  0.00  0.00     0.000 A 
ATOM     23  C   UNL d   1     -42.700  12.535  21.178  0.00  0.00     0.000 C 
ATOM     24  C   UNL d   1     -44.364  12.140  22.541  0.00  0.00     0.005 A 
ENDBRANCH  16  18
ENDBRANCH   1  15
TORSDOF 8
ENDMDL
MODEL 7
REMARK VINA RESULT:      -4.3      2.270      6.146
REMARK  8 active torsions:
REMARK  status: ('A' for Active; 'I' for Inactive)
REMARK    1  A    between atoms: N_5  and  C_1 
REMARK    2  A    between atoms: C_2  and  N_5 
REMARK    3  A    between atoms: N_3  and  C_2 
REMARK       I    between atoms: C_6  and  N_3 
REMARK    4  A    between atoms: C_13  and  C_6 
REMARK    5  A    between atoms: C_9  and  C_7 
REMARK    6  A    between atoms: C_11  and  C_9 
REMARK    7  A    between atoms: O_18  and  C_11 
REMARK    8  A    between atoms: C_22  and  O_18 
ROOT
ATOM      1  C   UNL d   1     -44.783  13.032  21.890  0.00  0.00     0.225 C 
ATOM      2  S   UNL d   1     -45.155  12.622  21.276  0.00  0.00    -0.037 SA
ENDROOT
BRANCH   1   3
ATOM      3  N   UNL d   1     -45.086  13.049  22.654  0.00  0.00    -0.192 NA
BRANCH   3   4
ATOM      4  C   UNL d   1     -45.810  13.392  22.781  0.00  0.00     0.196 A 
ATOM      5  N   UNL d   1     -46.180  14.085  22.548  0.00  0.00    -0.220 NA
ATOM      6  C   UNL d   1     -46.909  14.124  22.852  0.00  0.00     0.095 A 
ATOM      7  C   UNL d   1     -47.059  13.466  23.299  0.00  0.00     0.058 A 
ATOM      8  S   UNL d   1     -46.392  12.993  23.273  0.00  0.00    -0.046 SA
BRANCH   6   9
ATOM      9  C   UNL d   1     -47.483  14.774  22.734  0.00  0.00     0.088 C 
BRANCH   9  10
ATOM     10  C   UNL d   1     -48.266  14.612  22.602  0.00  0.00     0.302 C 
ATOM     11  O   UNL d   1     -48.500  14.190  21.936  0.00  0.00    -0.259 OA
BRANCH  10  12
ATOM     12  O   UNL d   1     -48.843  14.878  23.148  0.00  0.00    -0.271 OA
BRANCH  12  13
ATOM     13  C   UNL d   1     -49.499  15.313  22.879  0.00  0.00     0.126 C 
ATOM     14  C   UNL d   1     -50.011  15.662  23.408  0.00  0.00     0.029 C 
ENDBRANCH  12  13
ENDBRANCH  10  12
ENDBRANCH   9  10
ENDBRANCH   6   9
ENDBRANCH   3   4
ENDBRANCH   1   3
BRANCH   1  15
ATOM     15  N   UNL d   1     -44.069  13.446  21.726  0.00  0.00    -0.179 NA
ATOM     16  C   UNL d   1     -43.430  13.028  21.500  0.00  0.00     0.281 C 
ATOM     17  O   UNL d   1     -43.459  12.199  21.426  0.00  0.00    -0.265 OA
BRANCH  16  18
ATOM     18  C   UNL d   1     -42.699  13.433  21.331  0.00  0.00     0.058 A 
ATOM     19  C   UNL d   1     -42.704  14.234  21.132  0.00  0.00     0.005 A 
ATOM     20  C   UNL d   1     -42.022  14.642  20.967  0.00  0.00     0.000 A 
ATOM     21  C   UNL d   1     -41.292  14.233  20.999  0.00  0.00     0.000 A 
ATOM     22  C   UNL d   1     -41.287  13.443  21.194  0.00  0.00     0.000 A 
ATOM     23  C   UNL d   1     -40.576  14.612  20.837  0.00  0.00     0.000 C 
ATOM     24  C   UNL d   1     -41.977  13.018  21.365  0.00  0.00     0.005 A 
ENDBRANCH  16  18
ENDBRANCH   1  15
TORSDOF 8
ENDMDL
MODEL 8
REMARK VINA RESULT:      -3.7      4.052      6.091
REMARK  8 active torsions:
REMARK  status: ('A' for Active; 'I' for Inactive)
REMARK    1  A    between atoms: N_5  and  C_1 
REMARK    2  A    between atoms: C_2  and  N_5 
REMARK    3  A    between atoms: N_3  and  C_2 
REMARK       I    between atoms: C_6  and  N_3 
REMARK    4  A    between atoms: C_13  and  C_6 
REMARK    5  A    between atoms: C_9  and  C_7 
REMARK    6  A    between atoms: C_11  and  C_9 
REMARK    7  A    between atoms: O_18  and  C_11 
REMARK    8  A    between atoms: C_22  and  O_18 
ROOT
ATOM      1  C   UNL d   1     -42.978  13.169  21.361  0.00  0.00     0.225 C 
ATOM      2  S   UNL d   1     -42.921  12.679  20.698  0.00  0.00    -0.037 SA
ENDROOT
BRANCH   1   3
ATOM      3  N   UNL d   1     -42.317  13.455  21.757  0.00  0.00    -0.192 NA
BRANCH   3   4
ATOM      4  C   UNL d   1     -41.754  13.860  21.337  0.00  0.00     0.196 A 
ATOM      5  N   UNL d   1     -41.745  14.321  20.659  0.00  0.00    -0.220 NA
ATOM      6  C   UNL d   1     -41.012  14.578  20.510  0.00  0.00     0.095 A 
ATOM      7  C   UNL d   1     -40.501  14.304  21.073  0.00  0.00     0.058 A 
ATOM      8  S   UNL d   1     -40.935  13.854  21.601  0.00  0.00    -0.046 SA
BRANCH   6   9
ATOM      9  C   UNL d   1     -40.772  15.085  19.838  0.00  0.00     0.088 C 
BRANCH   9  10
ATOM     10  C   UNL d   1     -40.463  14.755  19.165  0.00  0.00     0.302 C 
ATOM     11  O   UNL d   1     -39.732  14.379  19.179  0.00  0.00    -0.259 OA
BRANCH  10  12
ATOM     12  O   UNL d   1     -40.893  14.798  18.447  0.00  0.00    -0.271 OA
BRANCH  12  13
ATOM     13  C   UNL d   1     -40.498  14.981  17.738  0.00  0.00     0.126 C 
ATOM     14  C   UNL d   1     -40.917  15.197  17.074  0.00  0.00     0.029 C 
ENDBRANCH  12  13
ENDBRANCH  10  12
ENDBRANCH   9  10
ENDBRANCH   6   9
ENDBRANCH   3   4
ENDBRANCH   1   3
BRANCH   1  15
ATOM     15  N   UNL d   1     -43.743  13.383  21.641  0.00  0.00    -0.179 NA
ATOM     16  C   UNL d   1     -44.192  12.824  21.987  0.00  0.00     0.281 C 
ATOM     17  O   UNL d   1     -43.919  12.043  22.074  0.00  0.00    -0.265 OA
BRANCH  16  18
ATOM     18  C   UNL d   1     -44.969  13.026  22.276  0.00  0.00     0.058 A 
ATOM     19  C   UNL d   1     -45.420  12.467  22.683  0.00  0.00     0.005 A 
ATOM     20  C   UNL d   1     -46.161  12.634  22.967  0.00  0.00     0.000 A 
ATOM     21  C   UNL d   1     -46.476  13.401  22.841  0.00  0.00     0.000 A 
ATOM     22  C   UNL d   1     -46.031  13.952  22.440  0.00  0.00     0.000 A 
ATOM     23  C   UNL d   1     -47.226  13.610  23.115  0.00  0.00     0.000 C 
ATOM     24  C   UNL d   1     -45.274  13.791  22.146  0.00  0.00     0.005 A 
ENDBRANCH  16  18
ENDBRANCH   1  15
TORSDOF 8
ENDMDL
MODEL 9
REMARK VINA RESULT:      -3.4      6.452     10.206
REMARK  8 active torsions:
REMARK  status: ('A' for Active; 'I' for Inactive)
REMARK    1  A    between atoms: N_5  and  C_1 
REMARK    2  A    between atoms: C_2  and  N_5 
REMARK    3  A    between atoms: N_3  and  C_2 
REMARK       I    between atoms: C_6  and  N_3 
REMARK    4  A    between atoms: C_13  and  C_6 
REMARK    5  A    between atoms: C_9  and  C_7 
REMARK    6  A    between atoms: C_11  and  C_9 
REMARK    7  A    between atoms: O_18  and  C_11 
REMARK    8  A    between atoms: C_22  and  O_18 
ROOT
ATOM      1  C   UNL d   1     -39.249  14.742  19.573  0.00  0.00     0.225 C 
ATOM      2  S   UNL d   1     -38.726  14.430  20.131  0.00  0.00    -0.037 SA
ENDROOT
BRANCH   1   3
ATOM      3  N   UNL d   1     -39.830  15.290  19.770  0.00  0.00    -0.192 NA
BRANCH   3   4
ATOM      4  C   UNL d   1     -40.505  15.030  20.136  0.00  0.00     0.196 A 
ATOM      5  N   UNL d   1     -41.045  14.426  20.012  0.00  0.00    -0.220 NA
ATOM      6  C   UNL d   1     -41.610  14.444  20.566  0.00  0.00     0.095 A 
ATOM      7  C   UNL d   1     -41.477  15.053  21.080  0.00  0.00     0.058 A 
ATOM      8  S   UNL d   1     -40.795  15.436  20.837  0.00  0.00    -0.046 SA
BRANCH   6   9
ATOM      9  C   UNL d   1     -42.287  13.893  20.628  0.00  0.00     0.088 C 
BRANCH   9  10
ATOM     10  C   UNL d   1     -42.303  13.325  21.206  0.00  0.00     0.302 C 
ATOM     11  O   UNL d   1     -41.605  13.024  21.518  0.00  0.00    -0.259 OA
BRANCH  10  12
ATOM     12  O   UNL d   1     -43.039  13.042  21.490  0.00  0.00    -0.271 OA
BRANCH  12  13
ATOM     13  C   UNL d   1     -43.082  12.298  21.860  0.00  0.00     0.126 C 
ATOM     14  C   UNL d   1     -43.774  12.048  22.210  0.00  0.00     0.029 C 
ENDBRANCH  12  13
ENDBRANCH  10  12
ENDBRANCH   9  10
ENDBRANCH   6   9
ENDBRANCH   3   4
ENDBRANCH   1   3
BRANCH   1  15
ATOM     15  N   UNL d   1     -39.185  14.488  18.773  0.00  0.00    -0.179 NA
ATOM     16  C   UNL d   1     -38.541  14.702  18.356  0.00  0.00     0.281 C 
ATOM     17  O   UNL d   1     -37.940  15.167  18.697  0.00  0.00    -0.265 OA
BRANCH  16  18
ATOM     18  C   UNL d   1     -38.462  14.453  17.545  0.00  0.00     0.058 A 
ATOM     19  C   UNL d   1     -38.235  13.680  17.367  0.00  0.00     0.005 A 
ATOM     20  C   UNL d   1     -38.153  13.419  16.603  0.00  0.00     0.000 A 
ATOM     21  C   UNL d   1     -38.303  13.955  15.977  0.00  0.00     0.000 A 
ATOM     22  C   UNL d   1     -38.527  14.717  16.152  0.00  0.00     0.000 A 
ATOM     23  C   UNL d   1     -38.231  13.728  15.186  0.00  0.00     0.000 C 
ATOM     24  C   UNL d   1     -38.614  14.993  16.928  0.00  0.00     0.005 A 
ENDBRANCH  16  18
ENDBRANCH   1  15
TORSDOF 8
ENDMDL
