MODEL 1
REMARK VINA RESULT:      -2.9      0.000      0.000
REMARK  5 active torsions:
REMARK  status: ('A' for Active; 'I' for Inactive)
REMARK    1  A    between atoms: C_5  and  C_18 
REMARK       I    between atoms: N_9  and  C_5 
REMARK    2  A    between atoms: S_12  and  C_6 
REMARK    3  A    between atoms: C_15  and  C_7 
REMARK    4  A    between atoms: C_10  and  N_9 
REMARK    5  A    between atoms: C_18  and  S_12 
ROOT
ATOM      1  C   UNL d   1     -41.439-122.494 -51.268  0.00  0.00     0.099 C 
ENDROOT
BRANCH   1   2
ATOM      2  C   UNL d   1     -41.618-122.845 -50.532  0.00  0.00     0.286 C 
ATOM      3  N   UNL d   1     -41.546-122.410 -49.845  0.00  0.00    -0.207 NA
ATOM      4  O   UNL d   1     -41.866-123.622 -50.505  0.00  0.00    -0.265 OA
BRANCH   3   5
ATOM      5  C   UNL d   1     -41.721-122.753 -49.131  0.00  0.00     0.087 A 
ATOM      6  C   UNL d   1     -42.500-122.763 -48.860  0.00  0.00     0.046 A 
ATOM      7  C   UNL d   1     -42.681-123.110 -48.136  0.00  0.00     0.124 A 
ATOM      8  O   UNL d   1     -43.452-123.126 -47.856  0.00  0.00    -0.301 OA
ATOM      9  C   UNL d   1     -42.069-123.452 -47.680  0.00  0.00     0.123 A 
ATOM     10  C   UNL d   1     -43.621-123.479 -47.125  0.00  0.00     0.149 A 
ATOM     11  C   UNL d   1     -43.011-123.817 -46.676  0.00  0.00     0.149 A 
ATOM     12  O   UNL d   1     -42.236-123.801 -46.957  0.00  0.00    -0.301 OA
ATOM     13  C   UNL d   1     -41.296-123.432 -47.968  0.00  0.00     0.028 A 
ATOM     14  C   UNL d   1     -41.128-123.089 -48.680  0.00  0.00     0.021 A 
ENDBRANCH   3   5
ENDBRANCH   1   2
BRANCH   1  15
ATOM     15  S   UNL d   1     -41.176-122.958 -51.895  0.00  0.00    -0.061 SA
BRANCH  15  16
ATOM     16  C   UNL d   1     -41.384-122.767 -52.660  0.00  0.00     0.133 A 
ATOM     17  N   UNL d   1     -41.743-122.045 -52.823  0.00  0.00    -0.141 NA
ATOM     18  N   UNL d   1     -41.955-121.849 -53.595  0.00  0.00    -0.148 NA
ATOM     19  C   UNL d   1     -41.805-122.382 -54.209  0.00  0.00     0.103 A 
ATOM     20  C   UNL d   1     -41.448-123.104 -54.055  0.00  0.00     0.023 A 
ATOM     21  C   UNL d   1     -41.235-123.302 -53.287  0.00  0.00     0.029 A 
BRANCH  19  22
ATOM     22  C   UNL d   1     -42.017-122.186 -54.981  0.00  0.00     0.019 A 
ATOM     23  C   UNL d   1     -41.472-121.802 -55.478  0.00  0.00     0.002 A 
ATOM     24  C   UNL d   1     -41.686-121.606 -56.255  0.00  0.00     0.000 A 
ATOM     25  C   UNL d   1     -42.444-121.791 -56.538  0.00  0.00     0.000 A 
ATOM     26  C   UNL d   1     -42.978-122.169 -56.050  0.00  0.00     0.000 A 
ATOM     27  C   UNL d   1     -42.776-122.370 -55.272  0.00  0.00     0.002 A 
ENDBRANCH  19  22
ENDBRANCH  15  16
ENDBRANCH   1  15
TORSDOF 5
ENDMDL
MODEL 2
REMARK VINA RESULT:      -2.2      1.914      6.463
REMARK  5 active torsions:
REMARK  status: ('A' for Active; 'I' for Inactive)
REMARK    1  A    between atoms: C_5  and  C_18 
REMARK       I    between atoms: N_9  and  C_5 
REMARK    2  A    between atoms: S_12  and  C_6 
REMARK    3  A    between atoms: C_15  and  C_7 
REMARK    4  A    between atoms: C_10  and  N_9 
REMARK    5  A    between atoms: C_18  and  S_12 
ROOT
ATOM      1  C   UNL d   1     -41.208-123.145 -51.976  0.00  0.00     0.099 C 
ENDROOT
BRANCH   1   2
ATOM      2  C   UNL d   1     -41.353-123.033 -52.790  0.00  0.00     0.286 C 
ATOM      3  N   UNL d   1     -41.605-122.307 -53.063  0.00  0.00    -0.207 NA
ATOM      4  O   UNL d   1     -41.242-123.653 -53.309  0.00  0.00    -0.265 OA
BRANCH   3   5
ATOM      5  C   UNL d   1     -41.746-122.201 -53.856  0.00  0.00     0.087 A 
ATOM      6  C   UNL d   1     -42.518-122.242 -54.145  0.00  0.00     0.046 A 
ATOM      7  C   UNL d   1     -42.664-122.135 -54.948  0.00  0.00     0.124 A 
ATOM      8  O   UNL d   1     -43.427-122.174 -55.247  0.00  0.00    -0.301 OA
ATOM      9  C   UNL d   1     -42.024-121.984 -55.465  0.00  0.00     0.123 A 
ATOM     10  C   UNL d   1     -43.560-122.064 -56.059  0.00  0.00     0.149 A 
ATOM     11  C   UNL d   1     -42.923-121.915 -56.568  0.00  0.00     0.149 A 
ATOM     12  O   UNL d   1     -42.156-121.876 -56.267  0.00  0.00    -0.301 OA
ATOM     13  C   UNL d   1     -41.259-121.947 -55.157  0.00  0.00     0.028 A 
ATOM     14  C   UNL d   1     -41.126-122.053 -54.367  0.00  0.00     0.021 A 
ENDBRANCH   3   5
ENDBRANCH   1   2
BRANCH   1  15
ATOM     15  S   UNL d   1     -41.635-123.707 -51.553  0.00  0.00    -0.061 SA
BRANCH  15  16
ATOM     16  C   UNL d   1     -41.744-123.618 -50.749  0.00  0.00     0.133 A 
ATOM     17  N   UNL d   1     -42.465-123.817 -50.406  0.00  0.00    -0.141 NA
ATOM     18  N   UNL d   1     -42.579-123.728 -49.594  0.00  0.00    -0.148 NA
ATOM     19  C   UNL d   1     -41.965-123.437 -49.124  0.00  0.00     0.103 A 
ATOM     20  C   UNL d   1     -41.245-123.235 -49.458  0.00  0.00     0.023 A 
ATOM     21  C   UNL d   1     -41.127-123.323 -50.266  0.00  0.00     0.029 A 
BRANCH  19  22
ATOM     22  C   UNL d   1     -42.080-123.348 -48.312  0.00  0.00     0.019 A 
ATOM     23  C   UNL d   1     -42.654-122.819 -48.028  0.00  0.00     0.002 A 
ATOM     24  C   UNL d   1     -42.769-122.730 -47.211  0.00  0.00     0.000 A 
ATOM     25  C   UNL d   1     -42.310-123.168 -46.676  0.00  0.00     0.000 A 
ATOM     26  C   UNL d   1     -41.746-123.687 -46.955  0.00  0.00     0.000 A 
ATOM     27  C   UNL d   1     -41.622-123.785 -47.769  0.00  0.00     0.002 A 
ENDBRANCH  19  22
ENDBRANCH  15  16
ENDBRANCH   1  15
TORSDOF 5
ENDMDL
