MODEL 1
REMARK VINA RESULT:       1.7      0.000      0.000
REMARK  0 active torsions:
REMARK  status: ('A' for Active; 'I' for Inactive)
ROOT
ATOM      1  N   UNL d   1     -52.654  24.392  33.376  0.00  0.00    -0.219 NA
ATOM      2  C   UNL d   1     -51.832  24.506  33.338  0.00  0.00     0.215 A 
ATOM      3  S   UNL d   1     -51.472  23.758  33.310  0.00  0.00    -0.045 SA
ATOM      4  C   UNL d   1     -52.801  23.579  33.371  0.00  0.00     0.090 A 
ATOM      5  C   UNL d   1     -52.075  23.188  33.330  0.00  0.00     0.058 A 
ATOM      6  N   UNL d   1     -51.435  25.228  33.330  0.00  0.00    -0.120 N 
ATOM      7  C   UNL d   1     -53.542  23.229  33.402  0.00  0.00     0.021 C 
ENDROOT
TORSDOF 0
ENDMDL
MODEL 2
REMARK VINA RESULT:       1.9      0.916      1.882
REMARK  0 active torsions:
REMARK  status: ('A' for Active; 'I' for Inactive)
ROOT
ATOM      1  N   UNL d   1     -51.971  24.515  33.306  0.00  0.00    -0.219 NA
ATOM      2  C   UNL d   1     -52.193  23.715  33.307  0.00  0.00     0.215 A 
ATOM      3  S   UNL d   1     -51.500  23.258  33.309  0.00  0.00    -0.045 SA
ATOM      4  C   UNL d   1     -51.144  24.552  33.308  0.00  0.00     0.090 A 
ATOM      5  C   UNL d   1     -50.854  23.779  33.310  0.00  0.00     0.058 A 
ATOM      6  N   UNL d   1     -52.961  23.417  33.306  0.00  0.00    -0.120 N 
ATOM      7  C   UNL d   1     -50.699  25.241  33.307  0.00  0.00     0.021 C 
ENDROOT
TORSDOF 0
ENDMDL
MODEL 3
REMARK VINA RESULT:       4.6      1.712      2.717
REMARK  0 active torsions:
REMARK  status: ('A' for Active; 'I' for Inactive)
ROOT
ATOM      1  N   UNL d   1     -50.759  25.451  33.317  0.00  0.00    -0.219 NA
ATOM      2  C   UNL d   1     -51.429  24.961  33.323  0.00  0.00     0.215 A 
ATOM      3  S   UNL d   1     -52.101  25.449  33.322  0.00  0.00    -0.045 SA
ATOM      4  C   UNL d   1     -51.015  26.237  33.312  0.00  0.00     0.090 A 
ATOM      5  C   UNL d   1     -51.841  26.236  33.316  0.00  0.00     0.058 A 
ATOM      6  N   UNL d   1     -51.437  24.137  33.328  0.00  0.00    -0.120 N 
ATOM      7  C   UNL d   1     -50.528  26.897  33.306  0.00  0.00     0.021 C 
ENDROOT
TORSDOF 0
ENDMDL
