MODEL 1
REMARK VINA RESULT:      30.8      0.000      0.000
REMARK  3 active torsions:
REMARK  status: ('A' for Active; 'I' for Inactive)
REMARK       I    between atoms: N_5  and  C_1 
REMARK       I    between atoms: N_6  and  C_1 
REMARK    1  A    between atoms: C_2  and  N_7 
REMARK    2  A    between atoms: C_9  and  N_5 
REMARK    3  A    between atoms: N_7  and  N_6 
ROOT
ATOM      1  C   UNL d   1     -59.370 -98.991 -43.079  0.00  0.00     0.070 A 
ATOM      2  C   UNL d   1     -59.604 -98.949 -43.871  0.00  0.00     0.032 A 
ATOM      3  C   UNL d   1     -59.065 -98.837 -44.462  0.00  0.00     0.087 A 
ATOM      4  C   UNL d   1     -58.563 -98.914 -42.915  0.00  0.00     0.068 A 
ATOM      5  C   UNL d   1     -58.013 -98.799 -43.518  0.00  0.00     0.014 A 
ATOM      6 CL   UNL d   1     -59.911 -99.106 -42.461  0.00  0.00    -0.081 Cl
ATOM      7  C   UNL d   1     -58.263 -98.761 -44.292  0.00  0.00     0.020 A 
ATOM      8 CL   UNL d   1     -58.301 -98.955 -42.097  0.00  0.00    -0.082 Cl
ENDROOT
BRANCH   3   9
ATOM      9  N   UNL d   1     -59.338 -98.797 -45.280  0.00  0.00    -0.190 NA
ATOM     10  C   UNL d   1     -58.769 -98.794 -45.906  0.00  0.00     0.387 C 
ATOM     11  N   UNL d   1     -57.975 -98.828 -45.729  0.00  0.00    -0.086 NA
ATOM     12  O   UNL d   1     -59.032 -98.756 -46.691  0.00  0.00    -0.241 OA
BRANCH  11  13
ATOM     13  N   UNL d   1     -57.724 -98.866 -44.956  0.00  0.00    -0.111 NA
BRANCH  13  14
ATOM     14  C   UNL d   1     -57.074 -99.337 -44.735  0.00  0.00     0.260 C 
ATOM     15  S   UNL d   1     -57.161-100.152 -44.658  0.00  0.00    -0.034 SA
ATOM     16  N   UNL d   1     -56.343 -98.974 -44.594  0.00  0.00    -0.113 N 
ENDBRANCH  13  14
ENDBRANCH  11  13
ENDBRANCH   3   9
TORSDOF 3
ENDMDL
MODEL 2
REMARK VINA RESULT:      32.6      1.879      2.538
REMARK  3 active torsions:
REMARK  status: ('A' for Active; 'I' for Inactive)
REMARK       I    between atoms: N_5  and  C_1 
REMARK       I    between atoms: N_6  and  C_1 
REMARK    1  A    between atoms: C_2  and  N_7 
REMARK    2  A    between atoms: C_9  and  N_5 
REMARK    3  A    between atoms: N_7  and  N_6 
ROOT
ATOM      1  C   UNL d   1     -56.339 -99.073 -45.401  0.00  0.00     0.070 A 
ATOM      2  C   UNL d   1     -57.074 -99.051 -45.780  0.00  0.00     0.032 A 
ATOM      3  C   UNL d   1     -57.753 -98.899 -45.368  0.00  0.00     0.087 A 
ATOM      4  C   UNL d   1     -56.325 -98.934 -44.586  0.00  0.00     0.068 A 
ATOM      5  C   UNL d   1     -57.017 -98.779 -44.166  0.00  0.00     0.014 A 
ATOM      6 CL   UNL d   1     -55.634 -99.227 -45.809  0.00  0.00    -0.081 Cl
ATOM      7  C   UNL d   1     -57.731 -98.761 -44.557  0.00  0.00     0.020 A 
ATOM      8 CL   UNL d   1     -55.569 -98.953 -44.176  0.00  0.00    -0.082 Cl
ENDROOT
BRANCH   3   9
ATOM      9  N   UNL d   1     -58.506 -98.882 -45.789  0.00  0.00    -0.190 NA
ATOM     10  C   UNL d   1     -59.225 -98.971 -45.353  0.00  0.00     0.387 C 
ATOM     11  N   UNL d   1     -59.197 -99.072 -44.545  0.00  0.00    -0.086 NA
ATOM     12  O   UNL d   1     -59.948 -98.955 -45.758  0.00  0.00    -0.241 OA
BRANCH  11  13
ATOM     13  N   UNL d   1     -58.483 -99.087 -44.154  0.00  0.00    -0.111 NA
BRANCH  13  14
ATOM     14  C   UNL d   1     -58.445 -99.050 -43.323  0.00  0.00     0.260 C 
ATOM     15  S   UNL d   1     -59.082 -98.758 -42.892  0.00  0.00    -0.034 SA
ATOM     16  N   UNL d   1     -57.758 -99.311 -42.940  0.00  0.00    -0.113 N 
ENDBRANCH  13  14
ENDBRANCH  11  13
ENDBRANCH   3   9
TORSDOF 3
ENDMDL
MODEL 3
REMARK VINA RESULT:      33.0      3.462      4.234
REMARK  3 active torsions:
REMARK  status: ('A' for Active; 'I' for Inactive)
REMARK       I    between atoms: N_5  and  C_1 
REMARK       I    between atoms: N_6  and  C_1 
REMARK    1  A    between atoms: C_2  and  N_7 
REMARK    2  A    between atoms: C_9  and  N_5 
REMARK    3  A    between atoms: N_7  and  N_6 
ROOT
ATOM      1  C   UNL d   1     -56.205 -99.455 -44.208  0.00  0.00     0.070 A 
ATOM      2  C   UNL d   1     -56.016 -99.937 -43.564  0.00  0.00     0.032 A 
ATOM      3  C   UNL d   1     -55.291-100.289 -43.503  0.00  0.00     0.087 A 
ATOM      4  C   UNL d   1     -55.625 -99.345 -44.787  0.00  0.00     0.068 A 
ATOM      5  C   UNL d   1     -54.885 -99.704 -44.724  0.00  0.00     0.014 A 
ATOM      6 CL   UNL d   1     -56.944 -99.087 -44.286  0.00  0.00    -0.081 Cl
ATOM      7  C   UNL d   1     -54.718-100.176 -44.082  0.00  0.00     0.020 A 
ATOM      8 CL   UNL d   1     -55.804 -98.847 -45.464  0.00  0.00    -0.082 Cl
ENDROOT
BRANCH   3   9
ATOM      9  N   UNL d   1     -55.121-100.787 -42.819  0.00  0.00    -0.190 NA
ATOM     10  C   UNL d   1     -54.877-101.588 -42.942  0.00  0.00     0.387 C 
ATOM     11  N   UNL d   1     -54.806-101.876 -43.701  0.00  0.00    -0.086 NA
ATOM     12  O   UNL d   1     -54.714-102.066 -42.285  0.00  0.00    -0.241 OA
BRANCH  11  13
ATOM     13  N   UNL d   1     -54.968-101.400 -44.341  0.00  0.00    -0.111 NA
BRANCH  13  14
ATOM     14  C   UNL d   1     -55.039-101.717 -45.108  0.00  0.00     0.260 C 
ATOM     15  S   UNL d   1     -54.714-102.452 -45.283  0.00  0.00    -0.034 SA
ATOM     16  N   UNL d   1     -55.440-101.281 -45.688  0.00  0.00    -0.113 N 
ENDBRANCH  13  14
ENDBRANCH  11  13
ENDBRANCH   3   9
TORSDOF 3
ENDMDL
MODEL 4
REMARK VINA RESULT:      33.5      2.172      2.992
REMARK  3 active torsions:
REMARK  status: ('A' for Active; 'I' for Inactive)
REMARK       I    between atoms: N_5  and  C_1 
REMARK       I    between atoms: N_6  and  C_1 
REMARK    1  A    between atoms: C_2  and  N_7 
REMARK    2  A    between atoms: C_9  and  N_5 
REMARK    3  A    between atoms: N_7  and  N_6 
ROOT
ATOM      1  C   UNL d   1     -55.694-100.072 -44.202  0.00  0.00     0.070 A 
ATOM      2  C   UNL d   1     -56.344 -99.940 -43.708  0.00  0.00     0.032 A 
ATOM      3  C   UNL d   1     -56.825 -99.299 -43.810  0.00  0.00     0.087 A 
ATOM      4  C   UNL d   1     -55.555 -99.522 -44.804  0.00  0.00     0.068 A 
ATOM      5  C   UNL d   1     -56.046 -98.867 -44.908  0.00  0.00     0.014 A 
ATOM      6 CL   UNL d   1     -55.191-100.724 -44.110  0.00  0.00    -0.081 Cl
ATOM      7  C   UNL d   1     -56.681 -98.756 -44.411  0.00  0.00     0.020 A 
ATOM      8 CL   UNL d   1     -54.883 -99.642 -45.327  0.00  0.00    -0.082 Cl
ENDROOT
BRANCH   3   9
ATOM      9  N   UNL d   1     -57.497 -99.188 -43.279  0.00  0.00    -0.190 NA
ATOM     10  C   UNL d   1     -58.234 -98.922 -43.597  0.00  0.00     0.387 C 
ATOM     11  N   UNL d   1     -58.301 -98.776 -44.395  0.00  0.00    -0.086 NA
ATOM     12  O   UNL d   1     -58.879 -98.816 -43.086  0.00  0.00    -0.241 OA
BRANCH  11  13
ATOM     13  N   UNL d   1     -57.663 -98.883 -44.890  0.00  0.00    -0.111 NA
BRANCH  13  14
ATOM     14  C   UNL d   1     -57.748 -98.845 -45.717  0.00  0.00     0.260 C 
ATOM     15  S   UNL d   1     -58.494 -98.755 -46.053  0.00  0.00    -0.034 SA
ATOM     16  N   UNL d   1     -57.072 -98.899 -46.194  0.00  0.00    -0.113 N 
ENDBRANCH  13  14
ENDBRANCH  11  13
ENDBRANCH   3   9
TORSDOF 3
ENDMDL
