MODEL 1
REMARK VINA RESULT:      -4.8      0.000      0.000
REMARK  3 active torsions:
REMARK  status: ('A' for Active; 'I' for Inactive)
REMARK    1  A    between atoms: S_9  and  C_2 
REMARK    2  A    between atoms: C_8  and  C_3 
REMARK    3  A    between atoms: C_10  and  S_9 
ROOT
ATOM      1  N   UNL d   1     -42.334-121.572 -55.836  0.00  0.00    -0.195 NA
ATOM      2  C   UNL d   1     -42.138-122.103 -55.239  0.00  0.00     0.086 C 
ATOM      3  C   UNL d   1     -41.946-122.639 -54.644  0.00  0.00     0.169 C 
ENDROOT
BRANCH   3   4
ATOM      4  S   UNL d   1     -41.394-122.432 -54.081  0.00  0.00    -0.072 SA
BRANCH   4   5
ATOM      5  C   UNL d   1     -41.344-122.843 -53.372  0.00  0.00     0.137 A 
ATOM      6  N   UNL d   1     -41.502-122.547 -52.614  0.00  0.00    -0.232 NA
ATOM      7  C   UNL d   1     -41.382-123.148 -52.075  0.00  0.00     0.089 A 
ATOM      8  C   UNL d   1     -41.151-123.817 -52.486  0.00  0.00     0.057 A 
ATOM      9  S   UNL d   1     -41.126-123.635 -53.284  0.00  0.00    -0.060 SA
BRANCH   7  10
ATOM     10  C   UNL d   1     -41.477-123.092 -51.257  0.00  0.00     0.018 A 
ATOM     11  C   UNL d   1     -41.309-123.750 -50.793  0.00  0.00     0.002 A 
ATOM     12  C   UNL d   1     -41.404-123.695 -49.975  0.00  0.00     0.000 A 
ATOM     13  C   UNL d   1     -41.662-122.990 -49.627  0.00  0.00     0.000 A 
ATOM     14  C   UNL d   1     -41.826-122.335 -50.112  0.00  0.00     0.000 A 
ATOM     15  C   UNL d   1     -41.731-122.395 -50.929  0.00  0.00     0.002 A 
ENDBRANCH   7  10
ENDBRANCH   4   5
ENDBRANCH   3   4
TORSDOF 3
ENDMDL
MODEL 2
REMARK VINA RESULT:      -4.7      1.022      1.457
REMARK  3 active torsions:
REMARK  status: ('A' for Active; 'I' for Inactive)
REMARK    1  A    between atoms: S_9  and  C_2 
REMARK    2  A    between atoms: C_8  and  C_3 
REMARK    3  A    between atoms: C_10  and  S_9 
ROOT
ATOM      1  N   UNL d   1     -41.939-121.929 -54.688  0.00  0.00    -0.195 NA
ATOM      2  C   UNL d   1     -41.679-122.348 -54.028  0.00  0.00     0.086 C 
ATOM      3  C   UNL d   1     -41.418-122.772 -53.373  0.00  0.00     0.169 C 
ENDROOT
BRANCH   3   4
ATOM      4  S   UNL d   1     -41.348-122.395 -52.653  0.00  0.00    -0.072 SA
BRANCH   4   5
ATOM      5  C   UNL d   1     -41.391-122.819 -51.952  0.00  0.00     0.137 A 
ATOM      6  N   UNL d   1     -41.708-122.558 -51.232  0.00  0.00    -0.232 NA
ATOM      7  C   UNL d   1     -41.634-123.161 -50.687  0.00  0.00     0.089 A 
ATOM      8  C   UNL d   1     -41.274-123.797 -51.056  0.00  0.00     0.057 A 
ATOM      9  S   UNL d   1     -41.123-123.591 -51.835  0.00  0.00    -0.060 SA
BRANCH   7  10
ATOM     10  C   UNL d   1     -41.879-123.136 -49.899  0.00  0.00     0.018 A 
ATOM     11  C   UNL d   1     -41.332-123.298 -49.308  0.00  0.00     0.002 A 
ATOM     12  C   UNL d   1     -41.576-123.273 -48.520  0.00  0.00     0.000 A 
ATOM     13  C   UNL d   1     -42.359-123.087 -48.328  0.00  0.00     0.000 A 
ATOM     14  C   UNL d   1     -42.899-122.925 -48.938  0.00  0.00     0.000 A 
ATOM     15  C   UNL d   1     -42.650-122.952 -49.724  0.00  0.00     0.002 A 
ENDBRANCH   7  10
ENDBRANCH   4   5
ENDBRANCH   3   4
TORSDOF 3
ENDMDL
