MODEL 1
REMARK VINA RESULT:      11.1      0.000      0.000
REMARK  8 active torsions:
REMARK  status: ('A' for Active; 'I' for Inactive)
REMARK    1  A    between atoms: N_4  and  C_1 
REMARK    2  A    between atoms: C_2  and  O_12 
REMARK    3  A    between atoms: C_8  and  C_2 
REMARK       I    between atoms: C_10  and  N_4 
REMARK    4  A    between atoms: O_12  and  C_5 
REMARK    5  A    between atoms: S_20  and  C_6 
REMARK    6  A    between atoms: C_14  and  C_10 
REMARK    7  A    between atoms: C_16  and  C_26 
REMARK    8  A    between atoms: C_26  and  S_20 
ROOT
ATOM      1  C   UNL d   1     -42.078-122.762 -50.259  0.00  0.00     0.167 A 
ATOM      2  C   UNL d   1     -41.454-123.131 -50.644  0.00  0.00     0.222 A 
ATOM      3  C   UNL d   1     -41.166-122.786 -51.342  0.00  0.00     0.069 A 
ATOM      4  C   UNL d   1     -42.412-122.070 -50.555  0.00  0.00     0.151 A 
ATOM      5  C   UNL d   1     -41.500-122.094 -51.638  0.00  0.00     0.110 A 
ATOM      6  O   UNL d   1     -42.125-121.739 -51.240  0.00  0.00    -0.302 OA
ATOM      7  O   UNL d   1     -41.123-123.817 -50.350  0.00  0.00    -0.284 OA
ENDROOT
BRANCH   5   8
ATOM      8  C   UNL d   1     -41.209-121.759 -52.330  0.00  0.00     0.062 C 
BRANCH   8   9
ATOM      9  S   UNL d   1     -41.561-121.945 -53.052  0.00  0.00    -0.057 SA
BRANCH   9  10
ATOM     10  C   UNL d   1     -41.669-121.753 -53.971  0.00  0.00     0.166 A 
ATOM     11  S   UNL d   1     -41.331-121.394 -54.630  0.00  0.00    -0.006 SA
ATOM     12  C   UNL d   1     -41.843-121.492 -55.271  0.00  0.00     0.269 A 
ATOM     13  N   UNL d   1     -42.502-121.915 -55.002  0.00  0.00    -0.107 NA
ATOM     14  N   UNL d   1     -42.395-122.076 -54.200  0.00  0.00    -0.132 NA
BRANCH  12  15
ATOM     15  N   UNL d   1     -41.950-121.331 -56.072  0.00  0.00    -0.337 NA
ATOM     16  C   UNL d   1     -42.057-121.170 -56.874  0.00  0.00     0.330 C 
ATOM     17  O   UNL d   1     -42.589-121.799 -56.920  0.00  0.00    -0.251 OA
BRANCH  16  18
ATOM     18  C   UNL d   1     -41.758-120.613 -57.406  0.00  0.00     0.070 A 
ATOM     19  C   UNL d   1     -41.872-119.944 -57.874  0.00  0.00     0.006 A 
ATOM     20  C   UNL d   1     -41.123-120.322 -57.857  0.00  0.00     0.006 A 
ENDBRANCH  16  18
ENDBRANCH  12  15
ENDBRANCH   9  10
ENDBRANCH   8   9
ENDBRANCH   5   8
BRANCH   1  21
ATOM     21  O   UNL d   1     -42.375-123.097 -49.560  0.00  0.00    -0.268 OA
BRANCH  21  22
ATOM     22  C   UNL d   1     -42.525-122.616 -48.903  0.00  0.00     0.305 C 
ATOM     23  O   UNL d   1     -42.547-121.795 -48.986  0.00  0.00    -0.259 OA
BRANCH  22  24
ATOM     24  C   UNL d   1     -42.653-122.962 -48.154  0.00  0.00     0.118 A 
ATOM     25  C   UNL d   1     -43.299-123.470 -48.025  0.00  0.00     0.147 A 
ATOM     26  F   UNL d   1     -43.823-123.634 -48.655  0.00  0.00    -0.204 F 
ATOM     27  C   UNL d   1     -43.433-123.813 -47.299  0.00  0.00     0.030 A 
ATOM     28  C   UNL d   1     -42.916-123.651 -46.678  0.00  0.00     0.005 A 
ATOM     29  C   UNL d   1     -42.261-123.145 -46.780  0.00  0.00     0.030 A 
ATOM     30  C   UNL d   1     -42.136-122.800 -47.532  0.00  0.00     0.147 A 
ATOM     31  F   UNL d   1     -41.487-122.291 -47.658  0.00  0.00    -0.204 F 
ENDBRANCH  22  24
ENDBRANCH  21  22
ENDBRANCH   1  21
TORSDOF 8
ENDMDL
