MODEL 1
REMARK VINA RESULT:      16.7      0.000      0.000
REMARK  3 active torsions:
REMARK  status: ('A' for Active; 'I' for Inactive)
REMARK    1  A    between atoms: S_11  and  C_4 
REMARK    2  A    between atoms: C_14  and  S_11 
REMARK    3  A    between atoms: O_15  and  C_12 
ROOT
ATOM      1  N   UNL d   1      45.674 -17.793  44.653  0.00  0.00    -0.195 NA
ATOM      2  C   UNL d   1      45.803 -16.989  44.494  0.00  0.00     0.086 C 
ATOM      3  C   UNL d   1      45.936 -16.184  44.323  0.00  0.00     0.168 C 
ENDROOT
BRANCH   3   4
ATOM      4  S   UNL d   1      45.764 -15.591  44.900  0.00  0.00    -0.078 SA
BRANCH   4   5
ATOM      5  C   UNL d   1      45.668 -14.781  44.655  0.00  0.00     0.108 A 
ATOM      6  N   UNL d   1      45.043 -14.575  44.156  0.00  0.00    -0.239 NA
ATOM      7  C   UNL d   1      44.967 -13.793  43.931  0.00  0.00     0.084 A 
ATOM      8  C   UNL d   1      45.492 -13.229  44.191  0.00  0.00     0.018 A 
ATOM      9  C   UNL d   1      44.342 -13.588  43.433  0.00  0.00     0.043 A 
ATOM     10  C   UNL d   1      46.119 -13.422  44.688  0.00  0.00     0.004 A 
ATOM     11  C   UNL d   1      45.418 -12.435  43.965  0.00  0.00     0.004 A 
ATOM     12  C   UNL d   1      46.193 -14.217  44.914  0.00  0.00     0.025 A 
ATOM     13  C   UNL d   1      46.645 -12.859  44.948  0.00  0.00     0.000 C 
ATOM     14  C   UNL d   1      44.783 -12.229  43.459  0.00  0.00     0.024 A 
ATOM     15  C   UNL d   1      44.257 -12.792  43.199  0.00  0.00     0.096 A 
BRANCH  15  16
ATOM     16  O   UNL d   1      43.630 -12.584  42.699  0.00  0.00    -0.328 OA
ATOM     17  C   UNL d   1      43.766 -12.534  41.878  0.00  0.00     0.181 C 
ENDBRANCH  15  16
ENDBRANCH   4   5
ENDBRANCH   3   4
TORSDOF 3
ENDMDL
