MODEL 1
REMARK VINA RESULT:      -4.5      0.000      0.000
REMARK  3 active torsions:
REMARK  status: ('A' for Active; 'I' for Inactive)
REMARK    1  A    between atoms: N_2  and  S_1 
REMARK    2  A    between atoms: N_3  and  S_1 
REMARK    3  A    between atoms: C_6  and  N_2 
ROOT
ATOM      1  C   UNL d   1      56.935  -0.053  32.266  0.00  0.00     0.095 A 
ATOM      2  C   UNL d   1      55.512  -0.027  33.144  0.00  0.00     0.000 A 
ATOM      3  C   UNL d   1      56.564   0.669  32.431  0.00  0.00     0.020 A 
ATOM      4  C   UNL d   1      56.602  -0.753  32.535  0.00  0.00     0.020 A 
ATOM      5  C   UNL d   1      55.840   0.682  32.877  0.00  0.00     0.002 A 
ATOM      6  C   UNL d   1      55.879  -0.740  32.982  0.00  0.00     0.002 A 
ATOM      7  C   UNL d   1      54.810  -0.014  33.577  0.00  0.00     0.000 C 
ENDROOT
BRANCH   1   8
ATOM      8  N   UNL d   1      57.637  -0.065  31.834  0.00  0.00    -0.144 NA
BRANCH   8   9
ATOM      9  S   UNL d   1      57.611  -0.177  31.016  0.00  0.00     0.351 S 
ATOM     10  O   UNL d   1      57.206  -0.884  31.121  0.00  0.00    -0.180 OA
ATOM     11  O   UNL d   1      57.387  -0.625  30.361  0.00  0.00    -0.180 OA
BRANCH   9  12
ATOM     12  N   UNL d   1      57.952   0.384  30.516  0.00  0.00    -0.212 N 
ATOM     13  C   UNL d   1      57.518   0.682  29.880  0.00  0.00     0.113 C 
ATOM     14  C   UNL d   1      58.721   0.642  30.655  0.00  0.00     0.113 C 
ENDBRANCH   9  12
ENDBRANCH   8   9
ENDBRANCH   1   8
TORSDOF 3
ENDMDL
MODEL 2
REMARK VINA RESULT:      -4.5      1.005      1.096
REMARK  3 active torsions:
REMARK  status: ('A' for Active; 'I' for Inactive)
REMARK    1  A    between atoms: N_2  and  S_1 
REMARK    2  A    between atoms: N_3  and  S_1 
REMARK    3  A    between atoms: C_6  and  N_2 
ROOT
ATOM      1  C   UNL d   1      57.274   0.106  31.651  0.00  0.00     0.095 A 
ATOM      2  C   UNL d   1      56.091  -0.655  32.556  0.00  0.00     0.000 A 
ATOM      3  C   UNL d   1      56.765   0.553  32.127  0.00  0.00     0.020 A 
ATOM      4  C   UNL d   1      57.195  -0.711  31.626  0.00  0.00     0.020 A 
ATOM      5  C   UNL d   1      56.164   0.166  32.587  0.00  0.00     0.002 A 
ATOM      6  C   UNL d   1      56.594  -1.098  32.086  0.00  0.00     0.002 A 
ATOM      7  C   UNL d   1      55.507  -1.031  33.003  0.00  0.00     0.000 C 
ENDROOT
BRANCH   1   8
ATOM      8  N   UNL d   1      57.856   0.481  31.205  0.00  0.00    -0.144 NA
BRANCH   8   9
ATOM      9  S   UNL d   1      57.838   0.429  30.381  0.00  0.00     0.351 S 
ATOM     10  O   UNL d   1      57.056   0.682  30.379  0.00  0.00    -0.180 OA
ATOM     11  O   UNL d   1      57.433   0.510  29.667  0.00  0.00    -0.180 OA
BRANCH   9  12
ATOM     12  N   UNL d   1      58.510   0.182  29.972  0.00  0.00    -0.212 N 
ATOM     13  C   UNL d   1      58.490  -0.519  29.536  0.00  0.00     0.113 C 
ATOM     14  C   UNL d   1      59.196   0.636  30.001  0.00  0.00     0.113 C 
ENDBRANCH   9  12
ENDBRANCH   8   9
ENDBRANCH   1   8
TORSDOF 3
ENDMDL
MODEL 3
REMARK VINA RESULT:      -3.9      1.773      3.099
REMARK  3 active torsions:
REMARK  status: ('A' for Active; 'I' for Inactive)
REMARK    1  A    between atoms: N_2  and  S_1 
REMARK    2  A    between atoms: N_3  and  S_1 
REMARK    3  A    between atoms: C_6  and  N_2 
ROOT
ATOM      1  C   UNL d   1      56.405  -0.115  31.973  0.00  0.00     0.095 A 
ATOM      2  C   UNL d   1      57.675  -0.007  30.891  0.00  0.00     0.000 A 
ATOM      3  C   UNL d   1      56.679   0.627  31.729  0.00  0.00     0.020 A 
ATOM      4  C   UNL d   1      56.760  -0.796  31.682  0.00  0.00     0.020 A 
ATOM      5  C   UNL d   1      57.324   0.682  31.178  0.00  0.00     0.002 A 
ATOM      6  C   UNL d   1      57.405  -0.741  31.132  0.00  0.00     0.002 A 
ATOM      7  C   UNL d   1      58.302   0.046  30.356  0.00  0.00     0.000 C 
ENDROOT
BRANCH   1   8
ATOM      8  N   UNL d   1      55.780  -0.169  32.507  0.00  0.00    -0.144 NA
BRANCH   8   9
ATOM      9  S   UNL d   1      55.935  -0.263  33.312  0.00  0.00     0.351 S 
ATOM     10  O   UNL d   1      56.288  -0.989  33.163  0.00  0.00    -0.180 OA
ATOM     11  O   UNL d   1      56.246  -0.706  33.934  0.00  0.00    -0.180 OA
BRANCH   9  12
ATOM     12  N   UNL d   1      55.705   0.324  33.844  0.00  0.00    -0.212 N 
ATOM     13  C   UNL d   1      54.912   0.548  33.889  0.00  0.00     0.113 C 
ATOM     14  C   UNL d   1      56.268   0.681  34.327  0.00  0.00     0.113 C 
ENDBRANCH   9  12
ENDBRANCH   8   9
ENDBRANCH   1   8
TORSDOF 3
ENDMDL
MODEL 4
REMARK VINA RESULT:      -3.4      8.871      9.597
REMARK  3 active torsions:
REMARK  status: ('A' for Active; 'I' for Inactive)
REMARK    1  A    between atoms: N_2  and  S_1 
REMARK    2  A    between atoms: N_3  and  S_1 
REMARK    3  A    between atoms: C_6  and  N_2 
ROOT
ATOM      1  C   UNL d   1      60.247  -7.868  35.913  0.00  0.00     0.095 A 
ATOM      2  C   UNL d   1      60.488  -6.236  36.183  0.00  0.00     0.000 A 
ATOM      3  C   UNL d   1      61.011  -7.579  36.050  0.00  0.00     0.020 A 
ATOM      4  C   UNL d   1      59.610  -7.349  35.911  0.00  0.00     0.020 A 
ATOM      5  C   UNL d   1      61.133  -6.749  36.187  0.00  0.00     0.002 A 
ATOM      6  C   UNL d   1      59.733  -6.520  36.048  0.00  0.00     0.002 A 
ATOM      7  C   UNL d   1      60.607  -5.429  36.317  0.00  0.00     0.000 C 
ENDROOT
BRANCH   1   8
ATOM      8  N   UNL d   1      60.128  -8.672  35.780  0.00  0.00    -0.144 NA
BRANCH   8   9
ATOM      9  S   UNL d   1      60.182  -8.972  35.013  0.00  0.00     0.351 S 
ATOM     10  O   UNL d   1      60.972  -8.750  34.977  0.00  0.00    -0.180 OA
ATOM     11  O   UNL d   1      60.622  -9.121  34.331  0.00  0.00    -0.180 OA
BRANCH   9  12
ATOM     12  N   UNL d   1      59.520  -9.317  34.661  0.00  0.00    -0.212 N 
ATOM     13  C   UNL d   1      59.362  -9.178  33.863  0.00  0.00     0.113 C 
ATOM     14  C   UNL d   1      59.023  -9.797  35.108  0.00  0.00     0.113 C 
ENDBRANCH   9  12
ENDBRANCH   8   9
ENDBRANCH   1   8
TORSDOF 3
ENDMDL
MODEL 5
REMARK VINA RESULT:      -2.9      9.699     10.251
REMARK  3 active torsions:
REMARK  status: ('A' for Active; 'I' for Inactive)
REMARK    1  A    between atoms: N_2  and  S_1 
REMARK    2  A    between atoms: N_3  and  S_1 
REMARK    3  A    between atoms: C_6  and  N_2 
ROOT
ATOM      1  C   UNL d   1      59.686  -9.741  33.626  0.00  0.00     0.095 A 
ATOM      2  C   UNL d   1      58.586  -9.790  32.368  0.00  0.00     0.000 A 
ATOM      3  C   UNL d   1      59.954  -9.788  32.843  0.00  0.00     0.020 A 
ATOM      4  C   UNL d   1      58.880  -9.719  33.780  0.00  0.00     0.020 A 
ATOM      5  C   UNL d   1      59.394  -9.813  32.204  0.00  0.00     0.002 A 
ATOM      6  C   UNL d   1      58.321  -9.744  33.141  0.00  0.00     0.002 A 
ATOM      7  C   UNL d   1      58.042  -9.815  31.747  0.00  0.00     0.000 C 
ENDROOT
BRANCH   1   8
ATOM      8  N   UNL d   1      60.229  -9.717  34.246  0.00  0.00    -0.144 NA
BRANCH   8   9
ATOM      9  S   UNL d   1      60.446  -8.990  34.570  0.00  0.00     0.351 S 
ATOM     10  O   UNL d   1      60.739  -8.747  33.842  0.00  0.00    -0.180 OA
ATOM     11  O   UNL d   1      60.780  -8.240  34.489  0.00  0.00    -0.180 OA
BRANCH   9  12
ATOM     12  N   UNL d   1      60.300  -8.838  35.368  0.00  0.00    -0.212 N 
ATOM     13  C   UNL d   1      59.895  -8.153  35.586  0.00  0.00     0.113 C 
ATOM     14  C   UNL d   1      60.559  -9.370  35.940  0.00  0.00     0.113 C 
ENDBRANCH   9  12
ENDBRANCH   8   9
ENDBRANCH   1   8
TORSDOF 3
ENDMDL
