MODEL 1
REMARK VINA RESULT:      29.2      0.000      0.000
REMARK  4 active torsions:
REMARK  status: ('A' for Active; 'I' for Inactive)
REMARK    1  A    between atoms: C_2  and  S_1 
REMARK    2  A    between atoms: N_3  and  S_1 
REMARK    3  A    between atoms: C_12  and  N_3 
REMARK    4  A    between atoms: N_4  and  C_8 
ROOT
ATOM      1  C   UNL d   1      46.069 -17.783  43.640  0.00  0.00     0.064 A 
ATOM      2  C   UNL d   1      45.684 -16.441  44.517  0.00  0.00     0.094 A 
ATOM      3  C   UNL d   1      46.272 -17.745  44.439  0.00  0.00     0.019 A 
ATOM      4  C   UNL d   1      45.675 -17.153  43.280  0.00  0.00     0.019 A 
ATOM      5  C   UNL d   1      46.076 -17.066  44.878  0.00  0.00     0.021 A 
ATOM      6  C   UNL d   1      45.485 -16.488  43.718  0.00  0.00     0.021 A 
ENDROOT
BRANCH   2   7
ATOM      7  N   UNL d   1      45.497 -15.782  44.955  0.00  0.00    -0.158 NA
BRANCH   7   8
ATOM      8  S   UNL d   1      45.495 -15.037  44.600  0.00  0.00     0.291 S 
ATOM      9  O   UNL d   1      46.317 -15.042  44.585  0.00  0.00    -0.198 OA
ATOM     10  O   UNL d   1      44.676 -15.031  44.616  0.00  0.00    -0.198 OA
BRANCH   8  11
ATOM     11  C   UNL d   1      45.494 -14.300  44.250  0.00  0.00     0.135 A 
ATOM     12  S   UNL d   1      46.113 -13.771  44.262  0.00  0.00    -0.073 SA
ATOM     13  C   UNL d   1      45.875 -13.090  43.837  0.00  0.00     0.036 A 
ATOM     14  C   UNL d   1      45.131 -13.222  43.584  0.00  0.00     0.008 A 
ATOM     15  C   UNL d   1      44.870 -13.946  43.817  0.00  0.00     0.020 A 
ENDBRANCH   8  11
ENDBRANCH   7   8
ENDBRANCH   2   7
BRANCH   1  16
ATOM     16  N   UNL d   1      46.261 -18.454  43.202  0.00  0.00    -0.304 N 
ATOM     17  C   UNL d   1      46.431 -19.161  43.591  0.00  0.00     0.080 A 
ATOM     18  C   UNL d   1      46.625 -19.836  43.144  0.00  0.00     0.019 A 
ATOM     19  C   UNL d   1      46.646 -19.797  42.315  0.00  0.00     0.003 A 
ATOM     20  C   UNL d   1      46.475 -19.086  41.940  0.00  0.00     0.019 A 
ATOM     21  C   UNL d   1      46.280 -18.408  42.386  0.00  0.00     0.080 A 
ENDBRANCH   1  16
TORSDOF 4
ENDMDL
MODEL 2
REMARK VINA RESULT:      31.1      1.554      4.603
REMARK  4 active torsions:
REMARK  status: ('A' for Active; 'I' for Inactive)
REMARK    1  A    between atoms: C_2  and  S_1 
REMARK    2  A    between atoms: N_3  and  S_1 
REMARK    3  A    between atoms: C_12  and  N_3 
REMARK    4  A    between atoms: N_4  and  C_8 
ROOT
ATOM      1  C   UNL d   1      45.638 -14.534  44.523  0.00  0.00     0.064 A 
ATOM      2  C   UNL d   1      45.729 -16.154  44.812  0.00  0.00     0.094 A 
ATOM      3  C   UNL d   1      44.945 -14.974  44.603  0.00  0.00     0.019 A 
ATOM      4  C   UNL d   1      46.375 -14.901  44.587  0.00  0.00     0.019 A 
ATOM      5  C   UNL d   1      44.996 -15.792  44.749  0.00  0.00     0.021 A 
ATOM      6  C   UNL d   1      46.418 -15.706  44.731  0.00  0.00     0.021 A 
ENDROOT
BRANCH   2   7
ATOM      7  N   UNL d   1      45.768 -16.954  44.955  0.00  0.00    -0.158 NA
BRANCH   7   8
ATOM      8  S   UNL d   1      45.998 -17.471  44.354  0.00  0.00     0.291 S 
ATOM      9  O   UNL d   1      45.950 -18.102  44.879  0.00  0.00    -0.198 OA
ATOM     10  O   UNL d   1      46.045 -16.842  43.831  0.00  0.00    -0.198 OA
BRANCH   8  11
ATOM     11  C   UNL d   1      46.224 -17.982  43.760  0.00  0.00     0.135 A 
ATOM     12  S   UNL d   1      46.392 -18.773  43.858  0.00  0.00    -0.073 SA
ATOM     13  C   UNL d   1      46.600 -19.084  43.108  0.00  0.00     0.036 A 
ATOM     14  C   UNL d   1      46.554 -18.483  42.586  0.00  0.00     0.008 A 
ATOM     15  C   UNL d   1      46.329 -17.802  42.948  0.00  0.00     0.020 A 
ENDBRANCH   8  11
ENDBRANCH   7   8
ENDBRANCH   2   7
BRANCH   1  16
ATOM     16  N   UNL d   1      45.593 -13.724  44.379  0.00  0.00    -0.304 N 
ATOM     17  C   UNL d   1      45.198 -13.450  43.708  0.00  0.00     0.080 A 
ATOM     18  C   UNL d   1      45.154 -12.631  43.566  0.00  0.00     0.019 A 
ATOM     19  C   UNL d   1      45.506 -12.095  44.094  0.00  0.00     0.003 A 
ATOM     20  C   UNL d   1      45.896 -12.382  44.759  0.00  0.00     0.019 A 
ATOM     21  C   UNL d   1      45.941 -13.203  44.903  0.00  0.00     0.080 A 
ENDBRANCH   1  16
TORSDOF 4
ENDMDL
MODEL 3
REMARK VINA RESULT:      32.0      1.499      4.619
REMARK  4 active torsions:
REMARK  status: ('A' for Active; 'I' for Inactive)
REMARK    1  A    between atoms: C_2  and  S_1 
REMARK    2  A    between atoms: N_3  and  S_1 
REMARK    3  A    between atoms: C_12  and  N_3 
REMARK    4  A    between atoms: N_4  and  C_8 
ROOT
ATOM      1  C   UNL d   1      45.102 -14.033  43.634  0.00  0.00     0.064 A 
ATOM      2  C   UNL d   1      45.731 -15.330  44.432  0.00  0.00     0.094 A 
ATOM      3  C   UNL d   1      44.619 -14.678  43.809  0.00  0.00     0.019 A 
ATOM      4  C   UNL d   1      45.898 -14.035  43.856  0.00  0.00     0.019 A 
ATOM      5  C   UNL d   1      44.940 -15.331  44.213  0.00  0.00     0.021 A 
ATOM      6  C   UNL d   1      46.207 -14.681  44.253  0.00  0.00     0.021 A 
ENDROOT
BRANCH   2   7
ATOM      7  N   UNL d   1      46.036 -15.973  44.826  0.00  0.00    -0.158 NA
BRANCH   7   8
ATOM      8  S   UNL d   1      45.921 -16.734  44.528  0.00  0.00     0.291 S 
ATOM      9  O   UNL d   1      45.208 -16.785  44.935  0.00  0.00    -0.198 OA
ATOM     10  O   UNL d   1      46.631 -16.683  44.123  0.00  0.00    -0.198 OA
BRANCH   8  11
ATOM     11  C   UNL d   1      45.807 -17.486  44.234  0.00  0.00     0.135 A 
ATOM     12  S   UNL d   1      46.162 -17.789  43.566  0.00  0.00    -0.073 SA
ATOM     13  C   UNL d   1      45.890 -18.575  43.468  0.00  0.00     0.036 A 
ATOM     14  C   UNL d   1      45.386 -18.724  44.068  0.00  0.00     0.008 A 
ATOM     15  C   UNL d   1      45.314 -18.085  44.550  0.00  0.00     0.020 A 
ENDBRANCH   8  11
ENDBRANCH   7   8
ENDBRANCH   2   7
BRANCH   1  16
ATOM     16  N   UNL d   1      44.788 -13.384  43.234  0.00  0.00    -0.304 N 
ATOM     17  C   UNL d   1      45.215 -13.036  42.620  0.00  0.00     0.080 A 
ATOM     18  C   UNL d   1      44.893 -12.381  42.219  0.00  0.00     0.019 A 
ATOM     19  C   UNL d   1      44.150 -12.081  42.436  0.00  0.00     0.003 A 
ATOM     20  C   UNL d   1      43.736 -12.438  43.050  0.00  0.00     0.019 A 
ATOM     21  C   UNL d   1      44.056 -13.094  43.453  0.00  0.00     0.080 A 
ENDBRANCH   1  16
TORSDOF 4
ENDMDL
