MODEL 1
REMARK VINA RESULT:      -4.0      0.000      0.000
REMARK  3 active torsions:
REMARK  status: ('A' for Active; 'I' for Inactive)
REMARK    1  A    between atoms: N_2  and  S_1 
REMARK    2  A    between atoms: C_5  and  S_1 
REMARK    3  A    between atoms: S_9  and  C_3 
ROOT
ATOM      1  S   UNL d   1     -41.460-121.946 -51.448  0.00  0.00     0.273 S 
ATOM      2  O   UNL d   1     -41.439-121.180 -51.140  0.00  0.00    -0.200 OA
ATOM      3  O   UNL d   1     -41.125-121.489 -52.036  0.00  0.00    -0.200 OA
ENDROOT
BRANCH   1   4
ATOM      4  N   UNL d   1     -41.376-122.595 -51.954  0.00  0.00    -0.208 N 
ATOM      5  C   UNL d   1     -41.531-122.597 -52.769  0.00  0.00     0.185 A 
ATOM      6  N   UNL d   1     -41.374-123.354 -53.057  0.00  0.00    -0.219 NA
ATOM      7  C   UNL d   1     -41.123-123.818 -52.421  0.00  0.00     0.121 A 
ATOM      8  C   UNL d   1     -41.123-123.355 -51.740  0.00  0.00     0.114 A 
BRANCH   5   9
ATOM      9  S   UNL d   1     -41.796-121.950 -53.214  0.00  0.00    -0.075 SA
ATOM     10  C   UNL d   1     -41.893-122.027 -54.028  0.00  0.00     0.077 C 
ENDBRANCH   5   9
ENDBRANCH   1   4
BRANCH   1  11
ATOM     11  C   UNL d   1     -41.800-122.390 -50.844  0.00  0.00     0.104 A 
ATOM     12  C   UNL d   1     -41.314-122.803 -50.328  0.00  0.00     0.013 A 
ATOM     13  C   UNL d   1     -41.658-123.247 -49.724  0.00  0.00     0.001 A 
ATOM     14  C   UNL d   1     -42.479-123.274 -49.640  0.00  0.00     0.000 A 
ATOM     15  C   UNL d   1     -42.959-122.855 -50.165  0.00  0.00     0.001 A 
ATOM     16  C   UNL d   1     -42.819-123.718 -49.036  0.00  0.00     0.000 C 
ATOM     17  C   UNL d   1     -42.615-122.411 -50.769  0.00  0.00     0.013 A 
ENDBRANCH   1  11
TORSDOF 3
ENDMDL
MODEL 2
REMARK VINA RESULT:      -3.5      0.899      3.337
REMARK  3 active torsions:
REMARK  status: ('A' for Active; 'I' for Inactive)
REMARK    1  A    between atoms: N_2  and  S_1 
REMARK    2  A    between atoms: C_5  and  S_1 
REMARK    3  A    between atoms: S_9  and  C_3 
ROOT
ATOM      1  S   UNL d   1     -41.411-121.699 -52.886  0.00  0.00     0.273 S 
ATOM      2  O   UNL d   1     -41.359-120.875 -52.865  0.00  0.00    -0.200 OA
ATOM      3  O   UNL d   1     -41.123-121.523 -52.143  0.00  0.00    -0.200 OA
ENDROOT
BRANCH   1   4
ATOM      4  N   UNL d   1     -41.373-122.497 -52.672  0.00  0.00    -0.208 N 
ATOM      5  C   UNL d   1     -41.549-122.806 -51.923  0.00  0.00     0.185 A 
ATOM      6  N   UNL d   1     -41.440-123.623 -51.950  0.00  0.00    -0.219 NA
ATOM      7  C   UNL d   1     -41.195-123.817 -52.716  0.00  0.00     0.121 A 
ATOM      8  C   UNL d   1     -41.153-123.129 -53.163  0.00  0.00     0.114 A 
BRANCH   5   9
ATOM      9  S   UNL d   1     -41.794-122.368 -51.262  0.00  0.00    -0.075 SA
ATOM     10  C   UNL d   1     -41.907-122.748 -50.541  0.00  0.00     0.077 C 
ENDBRANCH   5   9
ENDBRANCH   1   4
BRANCH   1  11
ATOM     11  C   UNL d   1     -41.701-121.858 -53.640  0.00  0.00     0.104 A 
ATOM     12  C   UNL d   1     -41.180-122.082 -54.232  0.00  0.00     0.013 A 
ATOM     13  C   UNL d   1     -41.476-122.240 -54.986  0.00  0.00     0.001 A 
ATOM     14  C   UNL d   1     -42.285-122.172 -55.141  0.00  0.00     0.000 A 
ATOM     15  C   UNL d   1     -42.800-121.946 -54.537  0.00  0.00     0.001 A 
ATOM     16  C   UNL d   1     -42.577-122.330 -55.894  0.00  0.00     0.000 C 
ATOM     17  C   UNL d   1     -42.504-121.788 -53.784  0.00  0.00     0.013 A 
ENDBRANCH   1  11
TORSDOF 3
ENDMDL
MODEL 3
REMARK VINA RESULT:      -3.4      1.794      2.443
REMARK  3 active torsions:
REMARK  status: ('A' for Active; 'I' for Inactive)
REMARK    1  A    between atoms: N_2  and  S_1 
REMARK    2  A    between atoms: C_5  and  S_1 
REMARK    3  A    between atoms: S_9  and  C_3 
ROOT
ATOM      1  S   UNL d   1     -42.634-123.307 -49.867  0.00  0.00     0.273 S 
ATOM      2  O   UNL d   1     -43.273-123.817 -49.751  0.00  0.00    -0.200 OA
ATOM      3  O   UNL d   1     -42.995-123.366 -50.597  0.00  0.00    -0.200 OA
ENDROOT
BRANCH   1   4
ATOM      4  N   UNL d   1     -42.087-122.796 -50.219  0.00  0.00    -0.208 N 
ATOM      5  C   UNL d   1     -41.570-122.992 -50.837  0.00  0.00     0.185 A 
ATOM      6  N   UNL d   1     -41.123-122.323 -51.019  0.00  0.00    -0.219 NA
ATOM      7  C   UNL d   1     -41.364-121.715 -50.513  0.00  0.00     0.121 A 
ATOM      8  C   UNL d   1     -41.957-122.001 -50.020  0.00  0.00     0.114 A 
BRANCH   5   9
ATOM      9  S   UNL d   1     -41.513-123.732 -51.207  0.00  0.00    -0.075 SA
ATOM     10  C   UNL d   1     -41.133-123.797 -51.933  0.00  0.00     0.077 C 
ENDBRANCH   5   9
ENDBRANCH   1   4
BRANCH   1  11
ATOM     11  C   UNL d   1     -42.284-123.259 -49.123  0.00  0.00     0.104 A 
ATOM     12  C   UNL d   1     -41.659-123.759 -48.942  0.00  0.00     0.013 A 
ATOM     13  C   UNL d   1     -41.312-123.708 -48.195  0.00  0.00     0.001 A 
ATOM     14  C   UNL d   1     -41.589-123.163 -47.640  0.00  0.00     0.000 A 
ATOM     15  C   UNL d   1     -42.219-122.666 -47.834  0.00  0.00     0.001 A 
ATOM     16  C   UNL d   1     -41.240-123.115 -46.896  0.00  0.00     0.000 C 
ATOM     17  C   UNL d   1     -42.566-122.716 -48.580  0.00  0.00     0.013 A 
ENDBRANCH   1  11
TORSDOF 3
ENDMDL
MODEL 4
REMARK VINA RESULT:      -3.1      0.846      1.162
REMARK  3 active torsions:
REMARK  status: ('A' for Active; 'I' for Inactive)
REMARK    1  A    between atoms: N_2  and  S_1 
REMARK    2  A    between atoms: C_5  and  S_1 
REMARK    3  A    between atoms: S_9  and  C_3 
ROOT
ATOM      1  S   UNL d   1     -41.337-121.853 -52.643  0.00  0.00     0.273 S 
ATOM      2  O   UNL d   1     -41.123-121.082 -52.439  0.00  0.00    -0.200 OA
ATOM      3  O   UNL d   1     -41.131-121.496 -53.348  0.00  0.00    -0.200 OA
ENDROOT
BRANCH   1   4
ATOM      4  N   UNL d   1     -41.494-122.539 -53.077  0.00  0.00    -0.208 N 
ATOM      5  C   UNL d   1     -41.828-122.566 -53.835  0.00  0.00     0.185 A 
ATOM      6  N   UNL d   1     -41.887-123.357 -54.061  0.00  0.00    -0.219 NA
ATOM      7  C   UNL d   1     -41.589-123.817 -53.442  0.00  0.00     0.121 A 
ATOM      8  C   UNL d   1     -41.346-123.319 -52.835  0.00  0.00     0.114 A 
BRANCH   5   9
ATOM      9  S   UNL d   1     -42.062-121.911 -54.287  0.00  0.00    -0.075 SA
ATOM     10  C   UNL d   1     -42.472-122.026 -54.991  0.00  0.00     0.077 C 
ENDBRANCH   5   9
ENDBRANCH   1   4
BRANCH   1  11
ATOM     11  C   UNL d   1     -41.540-122.195 -51.922  0.00  0.00     0.104 A 
ATOM     12  C   UNL d   1     -41.133-122.859 -51.664  0.00  0.00     0.013 A 
ATOM     13  C   UNL d   1     -41.340-123.199 -50.941  0.00  0.00     0.001 A 
ATOM     14  C   UNL d   1     -41.947-122.875 -50.485  0.00  0.00     0.000 A 
ATOM     15  C   UNL d   1     -42.350-122.206 -50.754  0.00  0.00     0.001 A 
ATOM     16  C   UNL d   1     -42.151-123.216 -49.764  0.00  0.00     0.000 C 
ATOM     17  C   UNL d   1     -42.143-121.867 -51.476  0.00  0.00     0.013 A 
ENDBRANCH   1  11
TORSDOF 3
ENDMDL
MODEL 5
REMARK VINA RESULT:      -2.2      2.172      3.561
REMARK  3 active torsions:
REMARK  status: ('A' for Active; 'I' for Inactive)
REMARK    1  A    between atoms: N_2  and  S_1 
REMARK    2  A    between atoms: C_5  and  S_1 
REMARK    3  A    between atoms: S_9  and  C_3 
ROOT
ATOM      1  S   UNL d   1     -42.949-123.057 -49.643  0.00  0.00     0.273 S 
ATOM      2  O   UNL d   1     -43.719-122.873 -49.879  0.00  0.00    -0.200 OA
ATOM      3  O   UNL d   1     -43.418-123.236 -48.999  0.00  0.00    -0.200 OA
ENDROOT
BRANCH   1   4
ATOM      4  N   UNL d   1     -42.301-123.305 -49.193  0.00  0.00    -0.208 N 
ATOM      5  C   UNL d   1     -42.225-123.230 -48.371  0.00  0.00     0.185 A 
ATOM      6  N   UNL d   1     -41.496-123.547 -48.151  0.00  0.00    -0.219 NA
ATOM      7  C   UNL d   1     -41.122-123.817 -48.838  0.00  0.00     0.121 A 
ATOM      8  C   UNL d   1     -41.613-123.670 -49.481  0.00  0.00     0.114 A 
BRANCH   5   9
ATOM      9  S   UNL d   1     -42.786-122.895 -47.859  0.00  0.00    -0.075 SA
ATOM     10  C   UNL d   1     -42.701-122.985 -47.046  0.00  0.00     0.077 C 
ENDBRANCH   5   9
ENDBRANCH   1   4
BRANCH   1  11
ATOM     11  C   UNL d   1     -42.492-122.870 -50.302  0.00  0.00     0.104 A 
ATOM     12  C   UNL d   1     -42.186-123.476 -50.762  0.00  0.00     0.013 A 
ATOM     13  C   UNL d   1     -41.729-123.284 -51.422  0.00  0.00     0.001 A 
ATOM     14  C   UNL d   1     -41.583-122.494 -51.614  0.00  0.00     0.000 A 
ATOM     15  C   UNL d   1     -41.896-121.893 -51.144  0.00  0.00     0.001 A 
ATOM     16  C   UNL d   1     -41.126-122.307 -52.274  0.00  0.00     0.000 C 
ATOM     17  C   UNL d   1     -42.352-122.085 -50.485  0.00  0.00     0.013 A 
ENDBRANCH   1  11
TORSDOF 3
ENDMDL
