MODEL 1
REMARK VINA RESULT:       6.1      0.000      0.000
REMARK  5 active torsions:
REMARK  status: ('A' for Active; 'I' for Inactive)
REMARK    1  A    between atoms: N_10  and  C_3 
REMARK    2  A    between atoms: C_11  and  C_5 
REMARK    3  A    between atoms: C_15  and  C_9 
REMARK    4  A    between atoms: C_16  and  N_10 
REMARK       I    between atoms: C_12  and  N_13 
REMARK    5  A    between atoms: N_13  and  C_17 
ROOT
ATOM      1  C   UNL d   1      58.954  -0.510  30.481  0.00  0.00     0.168 A 
ATOM      2  N   UNL d   1      58.471  -0.209  31.067  0.00  0.00    -0.184 N 
ATOM      3  C   UNL d   1      57.731  -0.510  31.157  0.00  0.00     0.218 A 
ATOM      4  N   UNL d   1      59.486   0.678  31.448  0.00  0.00    -0.162 NA
ATOM      5  C   UNL d   1      59.688  -0.219  30.384  0.00  0.00     0.055 A 
ATOM      6  N   UNL d   1      58.680  -1.101  30.006  0.00  0.00    -0.227 NA
ATOM      7  C   UNL d   1      57.457  -1.119  30.662  0.00  0.00     0.071 A 
ATOM      8  C   UNL d   1      59.969   0.377  30.862  0.00  0.00     0.104 A 
ATOM      9  C   UNL d   1      57.943  -1.395  30.101  0.00  0.00     0.087 A 
ATOM     10  C   UNL d   1      60.700   0.665  30.764  0.00  0.00     0.023 C 
ENDROOT
BRANCH   3  11
ATOM     11  N   UNL d   1      57.232  -0.203  31.757  0.00  0.00    -0.383 NA
BRANCH  11  12
ATOM     12  C   UNL d   1      56.768   0.014  32.408  0.00  0.00     0.134 A 
ATOM     13  C   UNL d   1      57.080   0.014  33.169  0.00  0.00     0.034 A 
ATOM     14  C   UNL d   1      56.597   0.238  33.828  0.00  0.00     0.022 A 
ATOM     15  C   UNL d   1      55.805   0.459  33.707  0.00  0.00     0.085 A 
ATOM     16  C   UNL d   1      55.483   0.462  32.936  0.00  0.00     0.022 A 
ATOM     17  C   UNL d   1      55.958   0.239  32.275  0.00  0.00     0.034 A 
BRANCH  15  18
ATOM     18  N   UNL d   1      55.326   0.681  34.354  0.00  0.00    -0.208 NA
ATOM     19  C   UNL d   1      54.533   0.453  34.383  0.00  0.00     0.279 C 
ATOM     20  O   UNL d   1      54.057   0.673  35.026  0.00  0.00    -0.265 OA
ATOM     21  C   UNL d   1      54.205  -0.002  33.764  0.00  0.00     0.068 C 
ENDBRANCH  15  18
ENDBRANCH  11  12
ENDBRANCH   3  11
BRANCH   9  22
ATOM     22  C   UNL d   1      57.659  -2.016  29.598  0.00  0.00     0.018 C 
ATOM     23  C   UNL d   1      57.077  -1.838  29.004  0.00  0.00     0.002 C 
ATOM     24  C   UNL d   1      57.953  -2.803  29.688  0.00  0.00     0.002 C 
ENDBRANCH   9  22
BRANCH   5  25
ATOM     25  C   UNL d   1      60.177  -0.523  29.792  0.00  0.00     0.004 A 
ATOM     26  C   UNL d   1      60.551  -1.227  29.904  0.00  0.00     0.000 A 
ATOM     27  C   UNL d   1      61.032  -1.526  29.321  0.00  0.00     0.000 A 
ATOM     28  C   UNL d   1      61.128  -1.116  28.638  0.00  0.00     0.000 A 
ATOM     29  C   UNL d   1      60.749  -0.407  28.529  0.00  0.00     0.000 A 
ATOM     30  C   UNL d   1      60.277  -0.118  29.108  0.00  0.00     0.000 A 
ENDBRANCH   5  25
TORSDOF 5
ENDMDL
