MODEL 1
REMARK VINA RESULT:      15.6      0.000      0.000
REMARK  1 active torsions:
REMARK  status: ('A' for Active; 'I' for Inactive)
REMARK    1  A    between atoms: C_8  and  CA_5 
ROOT
ATOM      1  N   UNL d   1     -57.437 -98.772 -43.608  0.00  0.00    -0.224 NA
ATOM      2  C   UNL d   1     -56.718 -98.769 -43.997  0.00  0.00     0.162 A 
ATOM      3  N   UNL d   1     -56.021 -98.774 -43.568  0.00  0.00    -0.225 NA
ATOM      4  C   UNL d   1     -56.700 -98.762 -44.822  0.00  0.00     0.036 A 
ATOM      5  CA  UNL d   1     -58.143 -98.767 -44.029  0.00  0.00     0.125 A 
ATOM      6  C   UNL d   1     -57.401 -98.757 -45.253  0.00  0.00     0.005 A 
ATOM      7  C   UNL d   1     -58.125 -98.760 -44.853  0.00  0.00     0.023 A 
ATOM      8  C   UNL d   1     -55.297 -98.771 -43.966  0.00  0.00     0.101 A 
ATOM      9  C   UNL d   1     -55.985 -98.759 -45.222  0.00  0.00     0.005 A 
ATOM     10  C   UNL d   1     -55.279 -98.764 -44.791  0.00  0.00     0.021 A 
ENDROOT
BRANCH   5  11
ATOM     11  C   UNL d   1     -58.858 -98.770 -43.639  0.00  0.00     0.253 C 
ATOM     12  O   UNL d   1     -59.561 -98.792 -44.071  0.00  0.00    -0.281 OA
ENDBRANCH   5  11
TORSDOF 1
ENDMDL
MODEL 2
REMARK VINA RESULT:      16.8      7.271      7.889
REMARK  1 active torsions:
REMARK  status: ('A' for Active; 'I' for Inactive)
REMARK    1  A    between atoms: C_8  and  CA_5 
ROOT
ATOM      1  N   UNL d   1     -55.314-101.349 -37.378  0.00  0.00    -0.224 NA
ATOM      2  C   UNL d   1     -55.165-101.724 -38.090  0.00  0.00     0.162 A 
ATOM      3  N   UNL d   1     -55.317-101.337 -38.795  0.00  0.00    -0.225 NA
ATOM      4  C   UNL d   1     -54.863-102.492 -38.092  0.00  0.00     0.036 A 
ATOM      5  CA  UNL d   1     -55.166-101.727 -36.664  0.00  0.00     0.125 A 
ATOM      6  C   UNL d   1     -54.711-102.880 -37.381  0.00  0.00     0.005 A 
ATOM      7  C   UNL d   1     -54.864-102.495 -36.666  0.00  0.00     0.023 A 
ATOM      8  C   UNL d   1     -55.165-101.721 -39.511  0.00  0.00     0.101 A 
ATOM      9  C   UNL d   1     -54.711-102.876 -38.798  0.00  0.00     0.005 A 
ATOM     10  C   UNL d   1     -54.863-102.488 -39.513  0.00  0.00     0.021 A 
ENDROOT
BRANCH   5  11
ATOM     11  C   UNL d   1     -55.314-101.352 -35.957  0.00  0.00     0.253 C 
ATOM     12  O   UNL d   1     -54.711-100.933 -35.580  0.00  0.00    -0.281 OA
ENDBRANCH   5  11
TORSDOF 1
ENDMDL
MODEL 3
REMARK VINA RESULT:      18.3      2.944      3.489
REMARK  1 active torsions:
REMARK  status: ('A' for Active; 'I' for Inactive)
REMARK    1  A    between atoms: C_8  and  CA_5 
ROOT
ATOM      1  N   UNL d   1     -54.734-100.735 -43.453  0.00  0.00    -0.224 NA
ATOM      2  C   UNL d   1     -54.736-100.139 -44.014  0.00  0.00     0.162 A 
ATOM      3  N   UNL d   1     -54.743 -99.356 -43.778  0.00  0.00    -0.225 NA
ATOM      4  C   UNL d   1     -54.730-100.334 -44.816  0.00  0.00     0.036 A 
ATOM      5  CA  UNL d   1     -54.727-101.525 -43.678  0.00  0.00     0.125 A 
ATOM      6  C   UNL d   1     -54.723-101.123 -45.052  0.00  0.00     0.005 A 
ATOM      7  C   UNL d   1     -54.722-101.720 -44.480  0.00  0.00     0.023 A 
ATOM      8  C   UNL d   1     -54.744 -98.758 -44.349  0.00  0.00     0.101 A 
ATOM      9  C   UNL d   1     -54.732 -99.745 -45.386  0.00  0.00     0.005 A 
ATOM     10  C   UNL d   1     -54.739 -98.953 -45.151  0.00  0.00     0.021 A 
ENDROOT
BRANCH   5  11
ATOM     11  C   UNL d   1     -54.726-102.116 -43.119  0.00  0.00     0.253 C 
ATOM     12  O   UNL d   1     -54.749-101.922 -42.317  0.00  0.00    -0.281 OA
ENDBRANCH   5  11
TORSDOF 1
ENDMDL
MODEL 4
REMARK VINA RESULT:      18.6      1.691      2.031
REMARK  1 active torsions:
REMARK  status: ('A' for Active; 'I' for Inactive)
REMARK    1  A    between atoms: C_8  and  CA_5 
ROOT
ATOM      1  N   UNL d   1     -56.844 -99.978 -44.358  0.00  0.00    -0.224 NA
ATOM      2  C   UNL d   1     -56.137-100.390 -44.343  0.00  0.00     0.162 A 
ATOM      3  N   UNL d   1     -56.140-101.200 -44.229  0.00  0.00    -0.225 NA
ATOM      4  C   UNL d   1     -55.426 -99.984 -44.442  0.00  0.00     0.036 A 
ATOM      5  CA  UNL d   1     -56.854 -99.164 -44.472  0.00  0.00     0.125 A 
ATOM      6  C   UNL d   1     -55.425 -99.169 -44.556  0.00  0.00     0.005 A 
ATOM      7  C   UNL d   1     -56.142 -98.758 -44.571  0.00  0.00     0.023 A 
ATOM      8  C   UNL d   1     -55.423-101.612 -44.214  0.00  0.00     0.101 A 
ATOM      9  C   UNL d   1     -54.713-100.388 -44.428  0.00  0.00     0.005 A 
ATOM     10  C   UNL d   1     -54.712-101.206 -44.313  0.00  0.00     0.021 A 
ENDROOT
BRANCH   5  11
ATOM     11  C   UNL d   1     -57.558 -98.756 -44.487  0.00  0.00     0.253 C 
ATOM     12  O   UNL d   1     -58.269 -99.160 -44.380  0.00  0.00    -0.281 OA
ENDBRANCH   5  11
TORSDOF 1
ENDMDL
