MODEL 1
REMARK VINA RESULT:      -3.1      0.000      0.000
REMARK  3 active torsions:
REMARK  status: ('A' for Active; 'I' for Inactive)
REMARK    1  A    between atoms: N_9  and  C_5 
REMARK    2  A    between atoms: C_12  and  N_9 
REMARK    3  A    between atoms: C_13  and  C_12 
ROOT
ATOM      1  C   UNL d   1      30.684  16.774 -23.931  0.00  0.00     0.153 A 
ATOM      2  O   UNL d   1      30.038  17.249 -24.111  0.00  0.00    -0.302 OA
ATOM      3  C   UNL d   1      30.400  16.047 -23.661  0.00  0.00     0.111 A 
ATOM      4  C   UNL d   1      29.572  16.079 -23.676  0.00  0.00     0.043 A 
ATOM      5  C   UNL d   1      31.501  16.909 -23.979  0.00  0.00     0.189 A 
ATOM      6  C   UNL d   1      29.352  16.817 -23.952  0.00  0.00     0.102 A 
ATOM      7  N   UNL d   1      32.030  16.317 -23.757  0.00  0.00    -0.203 NA
ATOM      8  N   UNL d   1      30.936  15.461 -23.441  0.00  0.00    -0.222 NA
ATOM      9  C   UNL d   1      31.746  15.590 -23.487  0.00  0.00     0.201 A 
ATOM     10  C   UNL d   1      29.008  15.522 -23.470  0.00  0.00     0.004 A 
ATOM     11  C   UNL d   1      28.553  17.003 -24.023  0.00  0.00     0.025 A 
ATOM     12  C   UNL d   1      28.209  15.708 -23.542  0.00  0.00     0.000 A 
ATOM     13  C   UNL d   1      27.980  16.448 -23.818  0.00  0.00     0.002 A 
ENDROOT
BRANCH   5  14
ATOM     14  N   UNL d   1      31.785  17.640 -24.251  0.00  0.00    -0.222 NA
BRANCH  14  15
ATOM     15  C   UNL d   1      32.554  17.872 -24.065  0.00  0.00     0.120 C 
BRANCH  15  16
ATOM     16  C   UNL d   1      32.782  18.654 -24.190  0.00  0.00     0.101 A 
ATOM     17  N   UNL d   1      32.800  18.962 -24.955  0.00  0.00    -0.242 NA
ATOM     18  C   UNL d   1      33.029  19.748 -25.090  0.00  0.00     0.099 A 
ATOM     19  C   UNL d   1      33.241  20.226 -24.447  0.00  0.00     0.021 A 
ATOM     20  C   UNL d   1      33.223  19.918 -23.682  0.00  0.00     0.003 A 
ATOM     21  C   UNL d   1      32.993  19.131 -23.554  0.00  0.00     0.021 A 
ENDBRANCH  15  16
ENDBRANCH  14  15
ENDBRANCH   5  14
TORSDOF 3
ENDMDL
MODEL 2
REMARK VINA RESULT:      -2.9      3.019      5.473
REMARK  3 active torsions:
REMARK  status: ('A' for Active; 'I' for Inactive)
REMARK    1  A    between atoms: N_9  and  C_5 
REMARK    2  A    between atoms: C_12  and  N_9 
REMARK    3  A    between atoms: C_13  and  C_12 
ROOT
ATOM      1  C   UNL d   1      32.968  20.999 -21.890  0.00  0.00     0.153 A 
ATOM      2  O   UNL d   1      32.821  21.597 -22.435  0.00  0.00    -0.302 OA
ATOM      3  C   UNL d   1      32.975  21.336 -21.136  0.00  0.00     0.111 A 
ATOM      4  C   UNL d   1      32.830  22.148 -21.222  0.00  0.00     0.043 A 
ATOM      5  C   UNL d   1      33.099  20.185 -21.982  0.00  0.00     0.189 A 
ATOM      6  C   UNL d   1      32.736  22.305 -22.020  0.00  0.00     0.102 A 
ATOM      7  N   UNL d   1      33.235  19.713 -21.320  0.00  0.00    -0.203 NA
ATOM      8  N   UNL d   1      33.111  20.857 -20.480  0.00  0.00    -0.222 NA
ATOM      9  C   UNL d   1      33.241  20.050 -20.566  0.00  0.00     0.201 A 
ATOM     10  C   UNL d   1      32.775  22.747 -20.666  0.00  0.00     0.004 A 
ATOM     11  C   UNL d   1      32.584  23.076 -22.267  0.00  0.00     0.025 A 
ATOM     12  C   UNL d   1      32.623  23.518 -20.914  0.00  0.00     0.000 A 
ATOM     13  C   UNL d   1      32.527  23.684 -21.714  0.00  0.00     0.002 A 
ENDROOT
BRANCH   5  14
ATOM     14  N   UNL d   1      33.092  19.848 -22.740  0.00  0.00    -0.222 NA
BRANCH  14  15
ATOM     15  C   UNL d   1      33.033  19.030 -22.820  0.00  0.00     0.120 C 
BRANCH  15  16
ATOM     16  C   UNL d   1      32.826  18.708 -23.550  0.00  0.00     0.101 A 
ATOM     17  N   UNL d   1      33.192  18.977 -24.239  0.00  0.00    -0.242 NA
ATOM     18  C   UNL d   1      32.990  18.659 -24.977  0.00  0.00     0.099 A 
ATOM     19  C   UNL d   1      32.413  18.065 -25.021  0.00  0.00     0.021 A 
ATOM     20  C   UNL d   1      32.047  17.796 -24.333  0.00  0.00     0.003 A 
ATOM     21  C   UNL d   1      32.255  18.119 -23.597  0.00  0.00     0.021 A 
ENDBRANCH  15  16
ENDBRANCH  14  15
ENDBRANCH   5  14
TORSDOF 3
ENDMDL
MODEL 3
REMARK VINA RESULT:      -2.7      2.135      5.037
REMARK  3 active torsions:
REMARK  status: ('A' for Active; 'I' for Inactive)
REMARK    1  A    between atoms: N_9  and  C_5 
REMARK    2  A    between atoms: C_12  and  N_9 
REMARK    3  A    between atoms: C_13  and  C_12 
ROOT
ATOM      1  C   UNL d   1      33.080  19.862 -22.788  0.00  0.00     0.153 A 
ATOM      2  O   UNL d   1      33.011  19.742 -21.977  0.00  0.00    -0.302 OA
ATOM      3  C   UNL d   1      33.161  20.673 -22.921  0.00  0.00     0.111 A 
ATOM      4  C   UNL d   1      33.141  21.052 -22.184  0.00  0.00     0.043 A 
ATOM      5  C   UNL d   1      33.080  19.334 -23.427  0.00  0.00     0.189 A 
ATOM      6  C   UNL d   1      33.050  20.479 -21.607  0.00  0.00     0.102 A 
ATOM      7  N   UNL d   1      33.160  19.620 -24.197  0.00  0.00    -0.203 NA
ATOM      8  N   UNL d   1      33.241  20.949 -23.693  0.00  0.00    -0.222 NA
ATOM      9  C   UNL d   1      33.241  20.431 -24.330  0.00  0.00     0.201 A 
ATOM     10  C   UNL d   1      33.197  21.844 -21.985  0.00  0.00     0.004 A 
ATOM     11  C   UNL d   1      33.012  20.702 -20.815  0.00  0.00     0.025 A 
ATOM     12  C   UNL d   1      33.159  22.067 -21.193  0.00  0.00     0.000 A 
ATOM     13  C   UNL d   1      33.067  21.497 -20.607  0.00  0.00     0.002 A 
ENDROOT
BRANCH   5  14
ATOM     14  N   UNL d   1      32.998  18.519 -23.292  0.00  0.00    -0.222 NA
BRANCH  14  15
ATOM     15  C   UNL d   1      32.942  18.005 -23.934  0.00  0.00     0.120 C 
BRANCH  15  16
ATOM     16  C   UNL d   1      32.715  17.222 -23.807  0.00  0.00     0.101 A 
ATOM     17  N   UNL d   1      33.233  16.697 -23.437  0.00  0.00    -0.242 NA
ATOM     18  C   UNL d   1      33.013  15.908 -23.305  0.00  0.00     0.099 A 
ATOM     19  C   UNL d   1      32.264  15.648 -23.548  0.00  0.00     0.021 A 
ATOM     20  C   UNL d   1      31.747  16.173 -23.918  0.00  0.00     0.003 A 
ATOM     21  C   UNL d   1      31.974  16.961 -24.047  0.00  0.00     0.021 A 
ENDBRANCH  15  16
ENDBRANCH  14  15
ENDBRANCH   5  14
TORSDOF 3
ENDMDL
MODEL 4
REMARK VINA RESULT:      -2.5      2.429      3.705
REMARK  3 active torsions:
REMARK  status: ('A' for Active; 'I' for Inactive)
REMARK    1  A    between atoms: N_9  and  C_5 
REMARK    2  A    between atoms: C_12  and  N_9 
REMARK    3  A    between atoms: C_13  and  C_12 
ROOT
ATOM      1  C   UNL d   1      32.834  18.715 -23.571  0.00  0.00     0.153 A 
ATOM      2  O   UNL d   1      32.633  18.124 -23.036  0.00  0.00    -0.302 OA
ATOM      3  C   UNL d   1      32.837  18.385 -24.328  0.00  0.00     0.111 A 
ATOM      4  C   UNL d   1      32.635  17.585 -24.255  0.00  0.00     0.043 A 
ATOM      5  C   UNL d   1      33.017  19.517 -23.467  0.00  0.00     0.189 A 
ATOM      6  C   UNL d   1      32.511  17.427 -23.461  0.00  0.00     0.102 A 
ATOM      7  N   UNL d   1      33.202  19.985 -24.121  0.00  0.00    -0.203 NA
ATOM      8  N   UNL d   1      33.022  18.860 -24.975  0.00  0.00    -0.222 NA
ATOM      9  C   UNL d   1      33.204  19.655 -24.878  0.00  0.00     0.201 A 
ATOM     10  C   UNL d   1      32.553  16.996 -24.817  0.00  0.00     0.004 A 
ATOM     11  C   UNL d   1      32.301  16.666 -23.226  0.00  0.00     0.025 A 
ATOM     12  C   UNL d   1      32.343  16.235 -24.582  0.00  0.00     0.000 A 
ATOM     13  C   UNL d   1      32.217  16.069 -23.786  0.00  0.00     0.002 A 
ENDROOT
BRANCH   5  14
ATOM     14  N   UNL d   1      33.015  19.847 -22.706  0.00  0.00    -0.222 NA
BRANCH  14  15
ATOM     15  C   UNL d   1      33.230  20.637 -22.605  0.00  0.00     0.120 C 
BRANCH  15  16
ATOM     16  C   UNL d   1      32.984  21.040 -21.929  0.00  0.00     0.101 A 
ATOM     17  N   UNL d   1      32.812  21.847 -21.969  0.00  0.00    -0.242 NA
ATOM     18  C   UNL d   1      32.565  22.260 -21.295  0.00  0.00     0.099 A 
ATOM     19  C   UNL d   1      32.489  21.857 -20.574  0.00  0.00     0.021 A 
ATOM     20  C   UNL d   1      32.660  21.051 -20.534  0.00  0.00     0.003 A 
ATOM     21  C   UNL d   1      32.908  20.643 -21.213  0.00  0.00     0.021 A 
ENDBRANCH  15  16
ENDBRANCH  14  15
ENDBRANCH   5  14
TORSDOF 3
ENDMDL
MODEL 5
REMARK VINA RESULT:      -2.4      3.802      6.414
REMARK  3 active torsions:
REMARK  status: ('A' for Active; 'I' for Inactive)
REMARK    1  A    between atoms: N_9  and  C_5 
REMARK    2  A    between atoms: C_12  and  N_9 
REMARK    3  A    between atoms: C_13  and  C_12 
ROOT
ATOM      1  C   UNL d   1      33.089  21.946 -21.343  0.00  0.00     0.153 A 
ATOM      2  O   UNL d   1      33.080  21.632 -20.583  0.00  0.00    -0.302 OA
ATOM      3  C   UNL d   1      33.020  22.766 -21.282  0.00  0.00     0.111 A 
ATOM      4  C   UNL d   1      32.968  22.955 -20.477  0.00  0.00     0.043 A 
ATOM      5  C   UNL d   1      33.152  21.588 -22.089  0.00  0.00     0.189 A 
ATOM      6  C   UNL d   1      33.005  22.257 -20.050  0.00  0.00     0.102 A 
ATOM      7  N   UNL d   1      33.146  22.054 -22.770  0.00  0.00    -0.203 NA
ATOM      8  N   UNL d   1      33.014  23.223 -21.968  0.00  0.00    -0.222 NA
ATOM      9  C   UNL d   1      33.076  22.874 -22.709  0.00  0.00     0.201 A 
ATOM     10  C   UNL d   1      32.892  23.676 -20.097  0.00  0.00     0.004 A 
ATOM     11  C   UNL d   1      32.966  22.281 -19.227  0.00  0.00     0.025 A 
ATOM     12  C   UNL d   1      32.852  23.700 -19.274  0.00  0.00     0.000 A 
ATOM     13  C   UNL d   1      32.889  23.003 -18.838  0.00  0.00     0.002 A 
ENDROOT
BRANCH   5  14
ATOM     14  N   UNL d   1      33.222  20.763 -22.149  0.00  0.00    -0.222 NA
BRANCH  14  15
ATOM     15  C   UNL d   1      33.060  20.393 -22.867  0.00  0.00     0.120 C 
BRANCH  15  16
ATOM     16  C   UNL d   1      33.060  19.570 -22.907  0.00  0.00     0.101 A 
ATOM     17  N   UNL d   1      33.239  19.123 -22.237  0.00  0.00    -0.242 NA
ATOM     18  C   UNL d   1      33.241  18.295 -22.268  0.00  0.00     0.099 A 
ATOM     19  C   UNL d   1      33.060  17.913 -22.982  0.00  0.00     0.021 A 
ATOM     20  C   UNL d   1      32.881  18.360 -23.653  0.00  0.00     0.003 A 
ATOM     21  C   UNL d   1      32.881  19.189 -23.614  0.00  0.00     0.021 A 
ENDBRANCH  15  16
ENDBRANCH  14  15
ENDBRANCH   5  14
TORSDOF 3
ENDMDL
MODEL 6
REMARK VINA RESULT:      -2.1      3.569      5.022
REMARK  3 active torsions:
REMARK  status: ('A' for Active; 'I' for Inactive)
REMARK    1  A    between atoms: N_9  and  C_5 
REMARK    2  A    between atoms: C_12  and  N_9 
REMARK    3  A    between atoms: C_13  and  C_12 
ROOT
ATOM      1  C   UNL d   1      33.235  20.055 -22.411  0.00  0.00     0.153 A 
ATOM      2  O   UNL d   1      33.235  20.534 -23.080  0.00  0.00    -0.302 OA
ATOM      3  C   UNL d   1      33.235  19.268 -22.659  0.00  0.00     0.111 A 
ATOM      4  C   UNL d   1      33.235  19.265 -23.488  0.00  0.00     0.043 A 
ATOM      5  C   UNL d   1      33.235  20.236 -21.601  0.00  0.00     0.189 A 
ATOM      6  C   UNL d   1      33.235  20.043 -23.744  0.00  0.00     0.102 A 
ATOM      7  N   UNL d   1      33.235  19.627 -21.045  0.00  0.00    -0.203 NA
ATOM      8  N   UNL d   1      33.235  18.667 -22.096  0.00  0.00    -0.222 NA
ATOM      9  C   UNL d   1      33.235  18.840 -21.293  0.00  0.00     0.201 A 
ATOM     10  C   UNL d   1      33.235  18.647 -24.025  0.00  0.00     0.004 A 
ATOM     11  C   UNL d   1      33.235  20.206 -24.551  0.00  0.00     0.025 A 
ATOM     12  C   UNL d   1      33.235  18.810 -24.832  0.00  0.00     0.000 A 
ATOM     13  C   UNL d   1      33.235  19.589 -25.097  0.00  0.00     0.002 A 
ENDROOT
BRANCH   5  14
ATOM     14  N   UNL d   1      33.235  21.028 -21.353  0.00  0.00    -0.222 NA
BRANCH  14  15
ATOM     15  C   UNL d   1      32.701  21.272 -20.775  0.00  0.00     0.120 C 
BRANCH  15  16
ATOM     16  C   UNL d   1      32.614  22.077 -20.617  0.00  0.00     0.101 A 
ATOM     17  N   UNL d   1      31.916  22.465 -20.823  0.00  0.00    -0.242 NA
ATOM     18  C   UNL d   1      31.820  23.274 -20.669  0.00  0.00     0.099 A 
ATOM     19  C   UNL d   1      32.435  23.695 -20.304  0.00  0.00     0.021 A 
ATOM     20  C   UNL d   1      33.133  23.306 -20.098  0.00  0.00     0.003 A 
ATOM     21  C   UNL d   1      33.221  22.497 -20.255  0.00  0.00     0.021 A 
ENDBRANCH  15  16
ENDBRANCH  14  15
ENDBRANCH   5  14
TORSDOF 3
ENDMDL
MODEL 7
REMARK VINA RESULT:      -1.8      1.254      1.907
REMARK  3 active torsions:
REMARK  status: ('A' for Active; 'I' for Inactive)
REMARK    1  A    between atoms: N_9  and  C_5 
REMARK    2  A    between atoms: C_12  and  N_9 
REMARK    3  A    between atoms: C_13  and  C_12 
ROOT
ATOM      1  C   UNL d   1      31.942  17.643 -23.757  0.00  0.00     0.153 A 
ATOM      2  O   UNL d   1      31.337  17.825 -24.284  0.00  0.00    -0.302 OA
ATOM      3  C   UNL d   1      31.864  16.849 -23.543  0.00  0.00     0.111 A 
ATOM      4  C   UNL d   1      31.205  16.544 -23.943  0.00  0.00     0.043 A 
ATOM      5  C   UNL d   1      32.558  18.100 -23.442  0.00  0.00     0.189 A 
ATOM      6  C   UNL d   1      30.884  17.145 -24.397  0.00  0.00     0.102 A 
ATOM      7  N   UNL d   1      33.094  17.759 -22.915  0.00  0.00    -0.203 NA
ATOM      8  N   UNL d   1      32.403  16.518 -23.016  0.00  0.00    -0.222 NA
ATOM      9  C   UNL d   1      33.016  16.966 -22.701  0.00  0.00     0.201 A 
ATOM     10  C   UNL d   1      30.872  15.796 -23.940  0.00  0.00     0.004 A 
ATOM     11  C   UNL d   1      30.216  16.995 -24.856  0.00  0.00     0.025 A 
ATOM     12  C   UNL d   1      30.205  15.646 -24.400  0.00  0.00     0.000 A 
ATOM     13  C   UNL d   1      29.876  16.246 -24.859  0.00  0.00     0.002 A 
ENDROOT
BRANCH   5  14
ATOM     14  N   UNL d   1      32.636  18.897 -23.658  0.00  0.00    -0.222 NA
BRANCH  14  15
ATOM     15  C   UNL d   1      33.163  19.379 -23.248  0.00  0.00     0.120 C 
BRANCH  15  16
ATOM     16  C   UNL d   1      33.180  20.188 -23.407  0.00  0.00     0.101 A 
ATOM     17  N   UNL d   1      33.224  20.731 -22.787  0.00  0.00    -0.242 NA
ATOM     18  C   UNL d   1      33.241  21.545 -22.938  0.00  0.00     0.099 A 
ATOM     19  C   UNL d   1      33.214  21.816 -23.721  0.00  0.00     0.021 A 
ATOM     20  C   UNL d   1      33.170  21.273 -24.342  0.00  0.00     0.003 A 
ATOM     21  C   UNL d   1      33.153  20.459 -24.183  0.00  0.00     0.021 A 
ENDBRANCH  15  16
ENDBRANCH  14  15
ENDBRANCH   5  14
TORSDOF 3
ENDMDL
MODEL 8
REMARK VINA RESULT:      -1.3      4.992      6.790
REMARK  3 active torsions:
REMARK  status: ('A' for Active; 'I' for Inactive)
REMARK    1  A    between atoms: N_9  and  C_5 
REMARK    2  A    between atoms: C_12  and  N_9 
REMARK    3  A    between atoms: C_13  and  C_12 
ROOT
ATOM      1  C   UNL d   1      33.188  21.764 -21.388  0.00  0.00     0.153 A 
ATOM      2  O   UNL d   1      33.210  22.480 -21.791  0.00  0.00    -0.302 OA
ATOM      3  C   UNL d   1      33.181  21.156 -21.946  0.00  0.00     0.111 A 
ATOM      4  C   UNL d   1      33.199  21.504 -22.698  0.00  0.00     0.043 A 
ATOM      5  C   UNL d   1      33.173  21.586 -20.578  0.00  0.00     0.189 A 
ATOM      6  C   UNL d   1      33.217  22.317 -22.600  0.00  0.00     0.102 A 
ATOM      7  N   UNL d   1      33.151  20.799 -20.331  0.00  0.00    -0.203 NA
ATOM      8  N   UNL d   1      33.158  20.373 -21.690  0.00  0.00    -0.222 NA
ATOM      9  C   UNL d   1      33.143  20.190 -20.889  0.00  0.00     0.201 A 
ATOM     10  C   UNL d   1      33.201  21.171 -23.446  0.00  0.00     0.004 A 
ATOM     11  C   UNL d   1      33.238  22.806 -23.263  0.00  0.00     0.025 A 
ATOM     12  C   UNL d   1      33.221  21.660 -24.109  0.00  0.00     0.000 A 
ATOM     13  C   UNL d   1      33.240  22.478 -24.018  0.00  0.00     0.002 A 
ENDROOT
BRANCH   5  14
ATOM     14  N   UNL d   1      33.180  22.198 -20.018  0.00  0.00    -0.222 NA
BRANCH  14  15
ATOM     15  C   UNL d   1      33.241  22.015 -19.217  0.00  0.00     0.120 C 
BRANCH  15  16
ATOM     16  C   UNL d   1      32.959  22.550 -18.656  0.00  0.00     0.101 A 
ATOM     17  N   UNL d   1      32.453  23.160 -18.886  0.00  0.00    -0.242 NA
ATOM     18  C   UNL d   1      32.164  23.702 -18.330  0.00  0.00     0.099 A 
ATOM     19  C   UNL d   1      32.389  23.629 -17.534  0.00  0.00     0.021 A 
ATOM     20  C   UNL d   1      32.896  23.020 -17.305  0.00  0.00     0.003 A 
ATOM     21  C   UNL d   1      33.180  22.480 -17.868  0.00  0.00     0.021 A 
ENDBRANCH  15  16
ENDBRANCH  14  15
ENDBRANCH   5  14
TORSDOF 3
ENDMDL
