MODEL 1
REMARK VINA RESULT:      46.8      0.000      0.000
REMARK  9 active torsions:
REMARK  status: ('A' for Active; 'I' for Inactive)
REMARK    1  A    between atoms: C_21  and  N_1 
REMARK    2  A    between atoms: S_7  and  C_2 
REMARK       I    between atoms: C_6  and  N_18 
REMARK    3  A    between atoms: C_15  and  C_6 
REMARK    4  A    between atoms: C_19  and  S_7 
REMARK    5  A    between atoms: C_8  and  C_19 
REMARK       I    between atoms: N_11  and  C_8 
REMARK    6  A    between atoms: C_9  and  C_20 
REMARK    7  A    between atoms: C_20  and  N_11 
REMARK    8  A    between atoms: N_18  and  C_23 
REMARK    9  A    between atoms: C_23  and  C_21 
ROOT
ATOM      1  N   UNL d   1      13.036  12.674  -3.726  0.00  0.00    -0.302 N 
ATOM      2  C   UNL d   1      13.419  13.804  -4.334  0.00  0.00     0.049 A 
ATOM      3  C   UNL d   1      13.171  13.493  -3.615  0.00  0.00     0.087 A 
ATOM      4  C   UNL d   1      13.441  13.191  -4.894  0.00  0.00     0.024 A 
ATOM      5  C   UNL d   1      13.204  12.495  -4.515  0.00  0.00     0.065 A 
ATOM      6  C   UNL d   1      13.645  13.185  -5.690  0.00  0.00     0.002 A 
ATOM      7  C   UNL d   1      13.174  11.794  -4.941  0.00  0.00     0.018 A 
ATOM      8  C   UNL d   1      13.613  12.477  -6.114  0.00  0.00     0.000 A 
ATOM      9  C   UNL d   1      13.378  11.780  -5.744  0.00  0.00     0.002 A 
ENDROOT
BRANCH   1  10
ATOM     10  C   UNL d   1      12.781  12.137  -3.154  0.00  0.00     0.101 C 
BRANCH  10  11
ATOM     11  C   UNL d   1      13.328  11.785  -2.645  0.00  0.00     0.121 C 
BRANCH  11  12
ATOM     12  N   UNL d   1      13.867  12.260  -2.227  0.00  0.00    -0.205 NA
ATOM     13  C   UNL d   1      13.856  12.265  -1.398  0.00  0.00     0.279 C 
ATOM     14  O   UNL d   1      13.304  11.795  -0.988  0.00  0.00    -0.265 OA
BRANCH  13  15
ATOM     15  C   UNL d   1      14.390  12.735  -0.984  0.00  0.00     0.058 A 
ATOM     16  C   UNL d   1      14.126  13.275  -0.441  0.00  0.00     0.005 A 
ATOM     17  C   UNL d   1      14.647  13.755  -0.017  0.00  0.00     0.000 A 
ATOM     18  C   UNL d   1      15.462  13.685  -0.148  0.00  0.00     0.000 A 
ATOM     19  C   UNL d   1      15.742  13.133  -0.705  0.00  0.00     0.000 A 
ATOM     20  C   UNL d   1      15.205  12.659  -1.121  0.00  0.00     0.005 A 
ENDBRANCH  13  15
ENDBRANCH  11  12
ENDBRANCH  10  11
ENDBRANCH   1  10
BRANCH   2  21
ATOM     21  S   UNL d   1      13.615  14.596  -4.480  0.00  0.00    -0.080 SA
BRANCH  21  22
ATOM     22  C   UNL d   1      13.885  15.069  -3.859  0.00  0.00     0.098 C 
BRANCH  22  23
ATOM     23  C   UNL d   1      13.883  15.887  -3.927  0.00  0.00     0.286 C 
ATOM     24  N   UNL d   1      14.261  16.358  -3.370  0.00  0.00    -0.204 NA
ATOM     25  O   UNL d   1      13.493  16.240  -4.565  0.00  0.00    -0.265 OA
BRANCH  24  26
ATOM     26  C   UNL d   1      14.646  16.005  -2.740  0.00  0.00     0.127 C 
BRANCH  26  27
ATOM     27  C   UNL d   1      14.983  16.475  -2.150  0.00  0.00     0.119 A 
ATOM     28  O   UNL d   1      15.734  16.802  -2.172  0.00  0.00    -0.304 OA
ATOM     29  C   UNL d   1      15.845  17.226  -1.477  0.00  0.00     0.123 A 
ATOM     30  C   UNL d   1      15.167  17.161  -1.028  0.00  0.00     0.029 A 
ATOM     31  C   UNL d   1      14.633  16.697  -1.443  0.00  0.00     0.028 A 
ENDBRANCH  26  27
ENDBRANCH  24  26
ENDBRANCH  22  23
ENDBRANCH  21  22
ENDBRANCH   2  21
TORSDOF 9
ENDMDL
