MODEL 1
REMARK VINA RESULT:      -6.7      0.000      0.000
REMARK  3 active torsions:
REMARK  status: ('A' for Active; 'I' for Inactive)
REMARK    1  A    between atoms: C_13  and  C_3 
REMARK    2  A    between atoms: C_4  and  S_11 
REMARK    3  A    between atoms: S_11  and  C_13 
ROOT
ATOM      1  C   UNL d   1     -48.333  13.962  22.893  0.00  0.00     0.141 A 
ATOM      2  N   UNL d   1     -49.015  13.580  22.710  0.00  0.00    -0.232 NA
ATOM      3  S   UNL d   1     -48.492  14.758  23.012  0.00  0.00    -0.060 SA
ATOM      4  C   UNL d   1     -49.622  14.135  22.710  0.00  0.00     0.088 A 
ATOM      5  C   UNL d   1     -49.298  14.863  22.897  0.00  0.00     0.049 A 
ATOM      6  C   UNL d   1     -50.430  14.058  22.561  0.00  0.00     0.020 A 
ATOM      7  C   UNL d   1     -49.774  15.533  22.940  0.00  0.00     0.008 A 
ATOM      8  C   UNL d   1     -50.584  15.461  22.792  0.00  0.00     0.001 A 
ATOM      9  C   UNL d   1     -50.908  14.733  22.605  0.00  0.00     0.002 A 
ENDROOT
BRANCH   1  10
ATOM     10  S   UNL d   1     -47.571  13.608  22.955  0.00  0.00    -0.058 SA
BRANCH  10  11
ATOM     11  C   UNL d   1     -47.514  12.814  23.139  0.00  0.00     0.077 C 
BRANCH  11  12
ATOM     12  C   UNL d   1     -46.756  12.468  23.227  0.00  0.00     0.178 A 
ATOM     13  N   UNL d   1     -46.695  11.685  23.449  0.00  0.00    -0.262 N 
ATOM     14  C   UNL d   1     -45.877  11.504  23.489  0.00  0.00     0.227 A 
ATOM     15  C   UNL d   1     -47.319  11.160  23.608  0.00  0.00     0.103 C 
ATOM     16  N   UNL d   1     -45.473  12.171  23.293  0.00  0.00    -0.117 NA
ATOM     17  S   UNL d   1     -45.538  10.756  23.697  0.00  0.00    -0.036 SA
ATOM     18  N   UNL d   1     -45.984  12.776  23.128  0.00  0.00    -0.127 NA
ENDBRANCH  11  12
ENDBRANCH  10  11
ENDBRANCH   1  10
TORSDOF 3
ENDMDL
MODEL 2
REMARK VINA RESULT:      -6.1      1.689      2.213
REMARK  3 active torsions:
REMARK  status: ('A' for Active; 'I' for Inactive)
REMARK    1  A    between atoms: C_13  and  C_3 
REMARK    2  A    between atoms: C_4  and  S_11 
REMARK    3  A    between atoms: S_11  and  C_13 
ROOT
ATOM      1  C   UNL d   1     -48.363  12.295  23.528  0.00  0.00     0.141 A 
ATOM      2  N   UNL d   1     -48.762  12.988  23.451  0.00  0.00    -0.232 NA
ATOM      3  S   UNL d   1     -48.899  11.683  23.625  0.00  0.00    -0.060 SA
ATOM      4  C   UNL d   1     -49.566  12.821  23.497  0.00  0.00     0.088 A 
ATOM      5  C   UNL d   1     -49.651  12.014  23.605  0.00  0.00     0.049 A 
ATOM      6  C   UNL d   1     -50.228  13.312  23.454  0.00  0.00     0.020 A 
ATOM      7  C   UNL d   1     -50.399  11.677  23.672  0.00  0.00     0.008 A 
ATOM      8  C   UNL d   1     -51.064  12.165  23.629  0.00  0.00     0.001 A 
ATOM      9  C   UNL d   1     -50.980  12.972  23.521  0.00  0.00     0.002 A 
ENDROOT
BRANCH   1  10
ATOM     10  S   UNL d   1     -47.525  12.206  23.514  0.00  0.00    -0.058 SA
BRANCH  10  11
ATOM     11  C   UNL d   1     -47.073  12.747  23.101  0.00  0.00     0.077 C 
BRANCH  11  12
ATOM     12  C   UNL d   1     -46.260  12.588  22.974  0.00  0.00     0.178 A 
ATOM     13  N   UNL d   1     -45.862  12.983  22.382  0.00  0.00    -0.262 N 
ATOM     14  C   UNL d   1     -45.070  12.707  22.393  0.00  0.00     0.227 A 
ATOM     15  C   UNL d   1     -46.172  13.552  21.862  0.00  0.00     0.103 C 
ATOM     16  N   UNL d   1     -45.013  12.162  22.981  0.00  0.00    -0.117 NA
ATOM     17  S   UNL d   1     -44.444  12.957  21.878  0.00  0.00    -0.036 SA
ATOM     18  N   UNL d   1     -45.724  12.068  23.353  0.00  0.00    -0.127 NA
ENDBRANCH  11  12
ENDBRANCH  10  11
ENDBRANCH   1  10
TORSDOF 3
ENDMDL
MODEL 3
REMARK VINA RESULT:      -5.7      1.382      4.499
REMARK  3 active torsions:
REMARK  status: ('A' for Active; 'I' for Inactive)
REMARK    1  A    between atoms: C_13  and  C_3 
REMARK    2  A    between atoms: C_4  and  S_11 
REMARK    3  A    between atoms: S_11  and  C_13 
ROOT
ATOM      1  C   UNL d   1     -47.504  13.116  23.047  0.00  0.00     0.141 A 
ATOM      2  N   UNL d   1     -47.025  13.609  22.631  0.00  0.00    -0.232 NA
ATOM      3  S   UNL d   1     -47.089  12.436  23.241  0.00  0.00    -0.060 SA
ATOM      4  C   UNL d   1     -46.293  13.243  22.555  0.00  0.00     0.088 A 
ATOM      5  C   UNL d   1     -46.332  12.517  22.933  0.00  0.00     0.049 A 
ATOM      6  C   UNL d   1     -45.597  13.488  22.187  0.00  0.00     0.020 A 
ATOM      7  C   UNL d   1     -45.677  12.019  22.951  0.00  0.00     0.008 A 
ATOM      8  C   UNL d   1     -44.978  12.261  22.583  0.00  0.00     0.001 A 
ATOM      9  C   UNL d   1     -44.938  12.987  22.205  0.00  0.00     0.002 A 
ENDROOT
BRANCH   1  10
ATOM     10  S   UNL d   1     -48.306  13.267  23.254  0.00  0.00    -0.058 SA
BRANCH  10  11
ATOM     11  C   UNL d   1     -48.629  14.000  23.090  0.00  0.00     0.077 C 
BRANCH  11  12
ATOM     12  C   UNL d   1     -49.425  14.153  23.302  0.00  0.00     0.178 A 
ATOM     13  N   UNL d   1     -49.724  14.908  23.224  0.00  0.00    -0.262 N 
ATOM     14  C   UNL d   1     -50.524  14.883  23.477  0.00  0.00     0.227 A 
ATOM     15  C   UNL d   1     -49.321  15.579  22.947  0.00  0.00     0.103 C 
ATOM     16  N   UNL d   1     -50.683  14.126  23.697  0.00  0.00    -0.117 NA
ATOM     17  S   UNL d   1     -51.064  15.535  23.497  0.00  0.00    -0.036 SA
ATOM     18  N   UNL d   1     -50.031  13.658  23.602  0.00  0.00    -0.127 NA
ENDBRANCH  11  12
ENDBRANCH  10  11
ENDBRANCH   1  10
TORSDOF 3
ENDMDL
MODEL 4
REMARK VINA RESULT:      -5.0      8.903      9.316
REMARK  3 active torsions:
REMARK  status: ('A' for Active; 'I' for Inactive)
REMARK    1  A    between atoms: C_13  and  C_3 
REMARK    2  A    between atoms: C_4  and  S_11 
REMARK    3  A    between atoms: S_11  and  C_13 
ROOT
ATOM      1  C   UNL d   1     -40.193  14.663  19.406  0.00  0.00     0.141 A 
ATOM      2  N   UNL d   1     -40.626  15.312  19.213  0.00  0.00    -0.232 NA
ATOM      3  S   UNL d   1     -39.933  14.299  18.718  0.00  0.00    -0.060 SA
ATOM      4  C   UNL d   1     -40.646  15.367  18.393  0.00  0.00     0.088 A 
ATOM      5  C   UNL d   1     -40.217  14.740  18.087  0.00  0.00     0.049 A 
ATOM      6  C   UNL d   1     -41.005  15.916  17.893  0.00  0.00     0.020 A 
ATOM      7  C   UNL d   1     -40.136  14.647  17.273  0.00  0.00     0.008 A 
ATOM      8  C   UNL d   1     -40.495  15.194  16.769  0.00  0.00     0.001 A 
ATOM      9  C   UNL d   1     -40.924  15.821  17.075  0.00  0.00     0.002 A 
ENDROOT
BRANCH   1  10
ATOM     10  S   UNL d   1     -40.028  14.394  20.186  0.00  0.00    -0.058 SA
BRANCH  10  11
ATOM     11  C   UNL d   1     -39.551  14.846  20.672  0.00  0.00     0.077 C 
BRANCH  11  12
ATOM     12  C   UNL d   1     -39.362  14.564  21.438  0.00  0.00     0.178 A 
ATOM     13  N   UNL d   1     -38.930  15.035  21.944  0.00  0.00    -0.262 N 
ATOM     14  C   UNL d   1     -38.833  14.603  22.657  0.00  0.00     0.227 A 
ATOM     15  C   UNL d   1     -38.638  15.797  21.792  0.00  0.00     0.103 C 
ATOM     16  N   UNL d   1     -39.202  13.896  22.563  0.00  0.00    -0.117 NA
ATOM     17  S   UNL d   1     -38.420  14.865  23.350  0.00  0.00    -0.036 SA
ATOM     18  N   UNL d   1     -39.535  13.843  21.828  0.00  0.00    -0.127 NA
ENDBRANCH  11  12
ENDBRANCH  10  11
ENDBRANCH   1  10
TORSDOF 3
ENDMDL
MODEL 5
REMARK VINA RESULT:      -4.9      9.009     10.298
REMARK  3 active torsions:
REMARK  status: ('A' for Active; 'I' for Inactive)
REMARK    1  A    between atoms: C_13  and  C_3 
REMARK    2  A    between atoms: C_4  and  S_11 
REMARK    3  A    between atoms: S_11  and  C_13 
ROOT
ATOM      1  C   UNL d   1     -39.630  14.565  19.108  0.00  0.00     0.141 A 
ATOM      2  N   UNL d   1     -40.360  14.894  19.174  0.00  0.00    -0.232 NA
ATOM      3  S   UNL d   1     -39.215  14.686  19.804  0.00  0.00    -0.060 SA
ATOM      4  C   UNL d   1     -40.416  15.233  19.921  0.00  0.00     0.088 A 
ATOM      5  C   UNL d   1     -39.708  15.104  20.311  0.00  0.00     0.049 A 
ATOM      6  C   UNL d   1     -41.031  15.642  20.288  0.00  0.00     0.020 A 
ATOM      7  C   UNL d   1     -39.597  15.381  21.078  0.00  0.00     0.008 A 
ATOM      8  C   UNL d   1     -40.210  15.792  21.450  0.00  0.00     0.001 A 
ATOM      9  C   UNL d   1     -40.919  15.920  21.060  0.00  0.00     0.002 A 
ENDROOT
BRANCH   1  10
ATOM     10  S   UNL d   1     -39.333  14.157  18.433  0.00  0.00    -0.058 SA
BRANCH  10  11
ATOM     11  C   UNL d   1     -39.172  14.578  17.752  0.00  0.00     0.077 C 
BRANCH  11  12
ATOM     12  C   UNL d   1     -38.803  14.189  17.108  0.00  0.00     0.178 A 
ATOM     13  N   UNL d   1     -38.600  14.616  16.443  0.00  0.00    -0.262 N 
ATOM     14  C   UNL d   1     -38.247  14.079  15.905  0.00  0.00     0.227 A 
ATOM     15  C   UNL d   1     -38.717  15.428  16.314  0.00  0.00     0.103 C 
ATOM     16  N   UNL d   1     -38.246  13.354  16.253  0.00  0.00    -0.117 NA
ATOM     17  S   UNL d   1     -37.945  14.265  15.134  0.00  0.00    -0.036 SA
ATOM     18  N   UNL d   1     -38.580  13.391  16.988  0.00  0.00    -0.127 NA
ENDBRANCH  11  12
ENDBRANCH  10  11
ENDBRANCH   1  10
TORSDOF 3
ENDMDL
MODEL 6
REMARK VINA RESULT:      -4.7      9.000     10.622
REMARK  3 active torsions:
REMARK  status: ('A' for Active; 'I' for Inactive)
REMARK    1  A    between atoms: C_13  and  C_3 
REMARK    2  A    between atoms: C_4  and  S_11 
REMARK    3  A    between atoms: S_11  and  C_13 
ROOT
ATOM      1  C   UNL d   1     -39.441  14.295  17.910  0.00  0.00     0.141 A 
ATOM      2  N   UNL d   1     -39.019  13.614  17.844  0.00  0.00    -0.232 NA
ATOM      3  S   UNL d   1     -39.377  14.720  17.211  0.00  0.00    -0.060 SA
ATOM      4  C   UNL d   1     -38.681  13.599  17.095  0.00  0.00     0.088 A 
ATOM      5  C   UNL d   1     -38.902  14.284  16.703  0.00  0.00     0.049 A 
ATOM      6  C   UNL d   1     -38.197  13.041  16.727  0.00  0.00     0.020 A 
ATOM      7  C   UNL d   1     -38.646  14.427  15.935  0.00  0.00     0.008 A 
ATOM      8  C   UNL d   1     -38.161  13.871  15.562  0.00  0.00     0.001 A 
ATOM      9  C   UNL d   1     -37.940  13.186  15.954  0.00  0.00     0.002 A 
ENDROOT
BRANCH   1  10
ATOM     10  S   UNL d   1     -39.880  14.540  18.585  0.00  0.00    -0.058 SA
BRANCH  10  11
ATOM     11  C   UNL d   1     -39.507  14.978  19.166  0.00  0.00     0.077 C 
BRANCH  11  12
ATOM     12  C   UNL d   1     -39.888  15.086  19.904  0.00  0.00     0.178 A 
ATOM     13  N   UNL d   1     -39.522  15.528  20.484  0.00  0.00    -0.262 N 
ATOM     14  C   UNL d   1     -40.034  15.533  21.149  0.00  0.00     0.227 A 
ATOM     15  C   UNL d   1     -38.783  15.904  20.436  0.00  0.00     0.103 C 
ATOM     16  N   UNL d   1     -40.685  15.102  20.955  0.00  0.00    -0.117 NA
ATOM     17  S   UNL d   1     -39.893  15.922  21.888  0.00  0.00    -0.036 SA
ATOM     18  N   UNL d   1     -40.623  14.816  20.201  0.00  0.00    -0.127 NA
ENDBRANCH  11  12
ENDBRANCH  10  11
ENDBRANCH   1  10
TORSDOF 3
ENDMDL
