MODEL 1
REMARK VINA RESULT:      -7.8      0.000      0.000
REMARK  6 active torsions:
REMARK  status: ('A' for Active; 'I' for Inactive)
REMARK    1  A    between atoms: C_10  and  N_1 
REMARK    2  A    between atoms: S_8  and  C_2 
REMARK       I    between atoms: N_7  and  C_9 
REMARK    3  A    between atoms: C_13  and  S_8 
REMARK    4  A    between atoms: C_9  and  C_13 
REMARK    5  A    between atoms: C_21  and  N_11 
REMARK    6  A    between atoms: C_25  and  C_21 
ROOT
ATOM      1  N   UNL d   1      53.680  32.268  54.002  0.00  0.00    -0.254 N 
ATOM      2  C   UNL d   1      52.973  32.490  53.651  0.00  0.00     0.182 A 
ATOM      3  C   UNL d   1      53.916  31.477  53.986  0.00  0.00     0.268 A 
ATOM      4  N   UNL d   1      52.503  31.919  53.283  0.00  0.00    -0.222 NA
ATOM      5  C   UNL d   1      53.444  30.907  53.618  0.00  0.00     0.074 A 
ATOM      6  C   UNL d   1      52.738  31.128  53.267  0.00  0.00     0.088 A 
ATOM      7  O   UNL d   1      54.622  31.255  54.337  0.00  0.00    -0.267 OA
ATOM      8  C   UNL d   1      53.683  30.131  53.607  0.00  0.00     0.006 A 
ATOM      9  C   UNL d   1      52.270  30.574  52.904  0.00  0.00     0.019 A 
ATOM     10  C   UNL d   1      53.212  29.561  53.239  0.00  0.00     0.000 A 
ATOM     11  C   UNL d   1      52.505  29.783  52.887  0.00  0.00     0.002 A 
ENDROOT
BRANCH   2  12
ATOM     12  S   UNL d   1      52.723  33.286  53.660  0.00  0.00    -0.044 SA
BRANCH  12  13
ATOM     13  C   UNL d   1      52.083  33.507  53.172  0.00  0.00     0.099 C 
BRANCH  13  14
ATOM     14  C   UNL d   1      51.550  34.085  53.452  0.00  0.00     0.272 C 
ATOM     15  N   UNL d   1      50.885  34.273  52.985  0.00  0.00    -0.269 N 
ATOM     16  C   UNL d   1      50.370  34.840  53.268  0.00  0.00     0.102 A 
ATOM     17  C   UNL d   1      50.757  33.897  52.267  0.00  0.00     0.102 A 
ATOM     18  C   UNL d   1      49.705  35.027  52.801  0.00  0.00     0.100 A 
ATOM     19  N   UNL d   1      49.577  34.652  52.083  0.00  0.00    -0.297 N 
ATOM     20  C   UNL d   1      50.112  34.082  51.817  0.00  0.00     0.100 A 
ATOM     21  O   UNL d   1      51.678  34.459  54.169  0.00  0.00    -0.266 OA
BRANCH  19  22
ATOM     22  C   UNL d   1      48.896  34.860  51.628  0.00  0.00     0.126 C 
BRANCH  22  23
ATOM     23  C   UNL d   1      48.724  34.464  50.946  0.00  0.00     0.253 C 
ATOM     24  O   UNL d   1      47.943  34.430  50.678  0.00  0.00    -0.281 OA
ENDBRANCH  22  23
ENDBRANCH  19  22
ENDBRANCH  13  14
ENDBRANCH  12  13
ENDBRANCH   2  12
BRANCH   1  25
ATOM     25  C   UNL d   1      54.138  32.829  54.361  0.00  0.00     0.069 A 
ATOM     26  C   UNL d   1      54.682  33.265  53.906  0.00  0.00     0.018 A 
ATOM     27  C   UNL d   1      55.152  33.839  54.269  0.00  0.00     0.002 A 
ATOM     28  C   UNL d   1      55.075  33.974  55.080  0.00  0.00     0.000 A 
ATOM     29  C   UNL d   1      54.539  33.545  55.527  0.00  0.00     0.002 A 
ATOM     30  C   UNL d   1      54.067  32.969  55.167  0.00  0.00     0.018 A 
ENDBRANCH   1  25
TORSDOF 6
ENDMDL
MODEL 2
REMARK VINA RESULT:      -7.7      1.126      2.805
REMARK  6 active torsions:
REMARK  status: ('A' for Active; 'I' for Inactive)
REMARK    1  A    between atoms: C_10  and  N_1 
REMARK    2  A    between atoms: S_8  and  C_2 
REMARK       I    between atoms: N_7  and  C_9 
REMARK    3  A    between atoms: C_13  and  S_8 
REMARK    4  A    between atoms: C_9  and  C_13 
REMARK    5  A    between atoms: C_21  and  N_11 
REMARK    6  A    between atoms: C_25  and  C_21 
ROOT
ATOM      1  N   UNL d   1      53.234  32.381  53.786  0.00  0.00    -0.254 N 
ATOM      2  C   UNL d   1      52.834  33.069  53.588  0.00  0.00     0.182 A 
ATOM      3  C   UNL d   1      53.868  32.414  54.314  0.00  0.00     0.268 A 
ATOM      4  N   UNL d   1      53.068  33.788  53.918  0.00  0.00    -0.222 NA
ATOM      5  C   UNL d   1      54.102  33.134  54.644  0.00  0.00     0.074 A 
ATOM      6  C   UNL d   1      53.701  33.822  54.446  0.00  0.00     0.088 A 
ATOM      7  O   UNL d   1      54.268  31.727  54.512  0.00  0.00    -0.267 OA
ATOM      8  C   UNL d   1      54.725  33.158  55.162  0.00  0.00     0.006 A 
ATOM      9  C   UNL d   1      53.925  34.532  54.766  0.00  0.00     0.019 A 
ATOM     10  C   UNL d   1      54.959  33.878  55.493  0.00  0.00     0.000 A 
ATOM     11  C   UNL d   1      54.559  34.565  55.294  0.00  0.00     0.002 A 
ENDROOT
BRANCH   2  12
ATOM     12  S   UNL d   1      52.191  33.050  53.055  0.00  0.00    -0.044 SA
BRANCH  12  13
ATOM     13  C   UNL d   1      51.650  33.686  53.063  0.00  0.00     0.099 C 
BRANCH  13  14
ATOM     14  C   UNL d   1      51.183  33.818  52.385  0.00  0.00     0.272 C 
ATOM     15  N   UNL d   1      50.470  34.243  52.470  0.00  0.00    -0.269 N 
ATOM     16  C   UNL d   1      50.019  34.368  51.800  0.00  0.00     0.102 A 
ATOM     17  C   UNL d   1      50.234  34.525  53.203  0.00  0.00     0.102 A 
ATOM     18  C   UNL d   1      49.307  34.793  51.886  0.00  0.00     0.100 A 
ATOM     19  N   UNL d   1      49.071  35.075  52.619  0.00  0.00    -0.297 N 
ATOM     20  C   UNL d   1      49.544  34.936  53.282  0.00  0.00     0.100 A 
ATOM     21  O   UNL d   1      51.418  33.537  51.652  0.00  0.00    -0.266 OA
BRANCH  19  22
ATOM     22  C   UNL d   1      48.345  35.503  52.680  0.00  0.00     0.126 C 
BRANCH  22  23
ATOM     23  C   UNL d   1      48.221  36.011  53.294  0.00  0.00     0.253 C 
ATOM     24  O   UNL d   1      47.553  36.497  53.294  0.00  0.00    -0.281 OA
ENDBRANCH  22  23
ENDBRANCH  19  22
ENDBRANCH  13  14
ENDBRANCH  12  13
ENDBRANCH   2  12
BRANCH   1  25
ATOM     25  C   UNL d   1      53.002  31.679  53.461  0.00  0.00     0.069 A 
ATOM     26  C   UNL d   1      53.388  31.396  52.780  0.00  0.00     0.018 A 
ATOM     27  C   UNL d   1      53.155  30.679  52.444  0.00  0.00     0.002 A 
ATOM     28  C   UNL d   1      52.539  30.251  52.789  0.00  0.00     0.000 A 
ATOM     29  C   UNL d   1      52.158  30.529  53.459  0.00  0.00     0.002 A 
ATOM     30  C   UNL d   1      52.390  31.248  53.798  0.00  0.00     0.018 A 
ENDBRANCH   1  25
TORSDOF 6
ENDMDL
MODEL 3
REMARK VINA RESULT:      -6.6      1.577      5.155
REMARK  6 active torsions:
REMARK  status: ('A' for Active; 'I' for Inactive)
REMARK    1  A    between atoms: C_10  and  N_1 
REMARK    2  A    between atoms: S_8  and  C_2 
REMARK       I    between atoms: N_7  and  C_9 
REMARK    3  A    between atoms: C_13  and  S_8 
REMARK    4  A    between atoms: C_9  and  C_13 
REMARK    5  A    between atoms: C_21  and  N_11 
REMARK    6  A    between atoms: C_25  and  C_21 
ROOT
ATOM      1  N   UNL d   1      52.159  34.233  53.383  0.00  0.00    -0.254 N 
ATOM      2  C   UNL d   1      52.648  33.579  53.460  0.00  0.00     0.182 A 
ATOM      3  C   UNL d   1      52.322  34.919  53.814  0.00  0.00     0.268 A 
ATOM      4  N   UNL d   1      53.299  33.611  53.966  0.00  0.00    -0.222 NA
ATOM      5  C   UNL d   1      52.974  34.951  54.320  0.00  0.00     0.074 A 
ATOM      6  C   UNL d   1      53.463  34.297  54.396  0.00  0.00     0.088 A 
ATOM      7  O   UNL d   1      51.834  35.572  53.738  0.00  0.00    -0.267 OA
ATOM      8  C   UNL d   1      53.127  35.628  54.739  0.00  0.00     0.006 A 
ATOM      9  C   UNL d   1      54.104  34.321  54.891  0.00  0.00     0.019 A 
ATOM     10  C   UNL d   1      53.779  35.660  55.246  0.00  0.00     0.000 A 
ATOM     11  C   UNL d   1      54.268  35.006  55.322  0.00  0.00     0.002 A 
ENDROOT
BRANCH   2  12
ATOM     12  S   UNL d   1      52.495  32.879  53.031  0.00  0.00    -0.044 SA
BRANCH  12  13
ATOM     13  C   UNL d   1      52.970  32.209  53.181  0.00  0.00     0.099 C 
BRANCH  13  14
ATOM     14  C   UNL d   1      52.756  31.483  52.829  0.00  0.00     0.272 C 
ATOM     15  N   UNL d   1      52.931  30.777  53.237  0.00  0.00    -0.269 N 
ATOM     16  C   UNL d   1      52.717  30.072  52.885  0.00  0.00     0.102 A 
ATOM     17  C   UNL d   1      53.305  30.795  53.967  0.00  0.00     0.102 A 
ATOM     18  C   UNL d   1      52.892  29.366  53.293  0.00  0.00     0.100 A 
ATOM     19  N   UNL d   1      53.266  29.384  54.023  0.00  0.00    -0.297 N 
ATOM     20  C   UNL d   1      53.472  30.110  54.359  0.00  0.00     0.100 A 
ATOM     21  O   UNL d   1      52.383  31.465  52.100  0.00  0.00    -0.266 OA
BRANCH  19  22
ATOM     22  C   UNL d   1      53.433  28.655  54.416  0.00  0.00     0.126 C 
BRANCH  22  23
ATOM     23  C   UNL d   1      53.407  28.611  55.222  0.00  0.00     0.253 C 
ATOM     24  O   UNL d   1      53.430  27.872  55.592  0.00  0.00    -0.281 OA
ENDBRANCH  22  23
ENDBRANCH  19  22
ENDBRANCH  13  14
ENDBRANCH  12  13
ENDBRANCH   2  12
BRANCH   1  25
ATOM     25  C   UNL d   1      51.523  34.197  52.887  0.00  0.00     0.069 A 
ATOM     26  C   UNL d   1      50.779  33.980  53.190  0.00  0.00     0.018 A 
ATOM     27  C   UNL d   1      50.126  33.942  52.687  0.00  0.00     0.002 A 
ATOM     28  C   UNL d   1      50.220  34.120  51.886  0.00  0.00     0.000 A 
ATOM     29  C   UNL d   1      50.952  34.334  51.587  0.00  0.00     0.002 A 
ATOM     30  C   UNL d   1      51.609  34.373  52.089  0.00  0.00     0.018 A 
ENDBRANCH   1  25
TORSDOF 6
ENDMDL
MODEL 4
REMARK VINA RESULT:      -5.5      1.479      4.710
REMARK  6 active torsions:
REMARK  status: ('A' for Active; 'I' for Inactive)
REMARK    1  A    between atoms: C_10  and  N_1 
REMARK    2  A    between atoms: S_8  and  C_2 
REMARK       I    between atoms: N_7  and  C_9 
REMARK    3  A    between atoms: C_13  and  S_8 
REMARK    4  A    between atoms: C_9  and  C_13 
REMARK    5  A    between atoms: C_21  and  N_11 
REMARK    6  A    between atoms: C_25  and  C_21 
ROOT
ATOM      1  N   UNL d   1      51.865  34.441  53.428  0.00  0.00    -0.254 N 
ATOM      2  C   UNL d   1      51.990  33.759  52.991  0.00  0.00     0.182 A 
ATOM      3  C   UNL d   1      51.161  34.864  53.338  0.00  0.00     0.268 A 
ATOM      4  N   UNL d   1      51.409  33.500  52.464  0.00  0.00    -0.222 NA
ATOM      5  C   UNL d   1      50.581  34.604  52.811  0.00  0.00     0.074 A 
ATOM      6  C   UNL d   1      50.705  33.921  52.373  0.00  0.00     0.088 A 
ATOM      7  O   UNL d   1      51.037  35.545  53.776  0.00  0.00    -0.267 OA
ATOM      8  C   UNL d   1      49.892  35.024  52.729  0.00  0.00     0.006 A 
ATOM      9  C   UNL d   1      50.140  33.660  51.854  0.00  0.00     0.019 A 
ATOM     10  C   UNL d   1      49.312  34.764  52.201  0.00  0.00     0.000 A 
ATOM     11  C   UNL d   1      49.436  34.082  51.764  0.00  0.00     0.002 A 
ENDROOT
BRANCH   2  12
ATOM     12  S   UNL d   1      52.696  33.323  53.071  0.00  0.00    -0.044 SA
BRANCH  12  13
ATOM     13  C   UNL d   1      52.686  32.510  52.881  0.00  0.00     0.099 C 
BRANCH  13  14
ATOM     14  C   UNL d   1      53.391  32.073  52.965  0.00  0.00     0.272 C 
ATOM     15  N   UNL d   1      53.341  31.286  53.238  0.00  0.00    -0.269 N 
ATOM     16  C   UNL d   1      54.038  30.866  53.316  0.00  0.00     0.102 A 
ATOM     17  C   UNL d   1      52.616  30.950  53.419  0.00  0.00     0.102 A 
ATOM     18  C   UNL d   1      53.988  30.079  53.589  0.00  0.00     0.100 A 
ATOM     19  N   UNL d   1      53.262  29.743  53.770  0.00  0.00    -0.297 N 
ATOM     20  C   UNL d   1      52.571  30.187  53.682  0.00  0.00     0.100 A 
ATOM     21  O   UNL d   1      54.116  32.409  52.784  0.00  0.00    -0.266 OA
BRANCH  19  22
ATOM     22  C   UNL d   1      53.237  28.944  54.044  0.00  0.00     0.126 C 
BRANCH  22  23
ATOM     23  C   UNL d   1      53.312  28.780  54.831  0.00  0.00     0.253 C 
ATOM     24  O   UNL d   1      53.335  27.994  55.084  0.00  0.00    -0.281 OA
ENDBRANCH  22  23
ENDBRANCH  19  22
ENDBRANCH  13  14
ENDBRANCH  12  13
ENDBRANCH   2  12
BRANCH   1  25
ATOM     25  C   UNL d   1      52.436  34.692  53.943  0.00  0.00     0.069 A 
ATOM     26  C   UNL d   1      52.994  35.256  53.692  0.00  0.00     0.018 A 
ATOM     27  C   UNL d   1      53.578  35.515  54.215  0.00  0.00     0.002 A 
ATOM     28  C   UNL d   1      53.601  35.210  54.981  0.00  0.00     0.000 A 
ATOM     29  C   UNL d   1      53.052  34.654  55.228  0.00  0.00     0.002 A 
ATOM     30  C   UNL d   1      52.465  34.393  54.707  0.00  0.00     0.018 A 
ENDBRANCH   1  25
TORSDOF 6
ENDMDL
MODEL 5
REMARK VINA RESULT:      -4.9     10.864     11.877
REMARK  6 active torsions:
REMARK  status: ('A' for Active; 'I' for Inactive)
REMARK    1  A    between atoms: C_10  and  N_1 
REMARK    2  A    between atoms: S_8  and  C_2 
REMARK       I    between atoms: N_7  and  C_9 
REMARK    3  A    between atoms: C_13  and  S_8 
REMARK    4  A    between atoms: C_9  and  C_13 
REMARK    5  A    between atoms: C_21  and  N_11 
REMARK    6  A    between atoms: C_25  and  C_21 
ROOT
ATOM      1  N   UNL d   1      44.824  29.663  60.316  0.00  0.00    -0.254 N 
ATOM      2  C   UNL d   1      44.685  28.865  60.188  0.00  0.00     0.182 A 
ATOM      3  C   UNL d   1      44.840  29.959  61.087  0.00  0.00     0.268 A 
ATOM      4  N   UNL d   1      44.561  28.364  60.832  0.00  0.00    -0.222 NA
ATOM      5  C   UNL d   1      44.716  29.456  61.731  0.00  0.00     0.074 A 
ATOM      6  C   UNL d   1      44.577  28.658  61.603  0.00  0.00     0.088 A 
ATOM      7  O   UNL d   1      44.979  30.756  61.214  0.00  0.00    -0.267 OA
ATOM      8  C   UNL d   1      44.733  29.754  62.485  0.00  0.00     0.006 A 
ATOM      9  C   UNL d   1      44.454  28.159  62.230  0.00  0.00     0.019 A 
ATOM     10  C   UNL d   1      44.609  29.252  63.129  0.00  0.00     0.000 A 
ATOM     11  C   UNL d   1      44.470  28.454  63.001  0.00  0.00     0.002 A 
ENDROOT
BRANCH   2  12
ATOM     12  S   UNL d   1      44.666  28.553  59.415  0.00  0.00    -0.044 SA
BRANCH  12  13
ATOM     13  C   UNL d   1      44.519  27.737  59.318  0.00  0.00     0.099 C 
BRANCH  13  14
ATOM     14  C   UNL d   1      44.577  27.410  58.553  0.00  0.00     0.272 C 
ATOM     15  N   UNL d   1      44.513  26.582  58.468  0.00  0.00    -0.269 N 
ATOM     16  C   UNL d   1      44.571  26.272  57.715  0.00  0.00     0.102 A 
ATOM     17  C   UNL d   1      44.396  26.102  59.122  0.00  0.00     0.102 A 
ATOM     18  C   UNL d   1      44.507  25.445  57.630  0.00  0.00     0.100 A 
ATOM     19  N   UNL d   1      44.390  24.964  58.284  0.00  0.00    -0.297 N 
ATOM     20  C   UNL d   1      44.334  25.301  59.036  0.00  0.00     0.100 A 
ATOM     21  O   UNL d   1      44.694  27.890  57.900  0.00  0.00    -0.266 OA
BRANCH  19  22
ATOM     22  C   UNL d   1      44.329  24.128  58.173  0.00  0.00     0.126 C 
BRANCH  22  23
ATOM     23  C   UNL d   1      44.699  23.620  58.679  0.00  0.00     0.253 C 
ATOM     24  O   UNL d   1      44.796  22.828  58.465  0.00  0.00    -0.281 OA
ENDBRANCH  22  23
ENDBRANCH  19  22
ENDBRANCH  13  14
ENDBRANCH  12  13
ENDBRANCH   2  12
BRANCH   1  25
ATOM     25  C   UNL d   1      44.945  30.151  59.683  0.00  0.00     0.069 A 
ATOM     26  C   UNL d   1      44.316  30.618  59.401  0.00  0.00     0.018 A 
ATOM     27  C   UNL d   1      44.435  31.118  58.754  0.00  0.00     0.002 A 
ATOM     28  C   UNL d   1      45.178  31.147  58.395  0.00  0.00     0.000 A 
ATOM     29  C   UNL d   1      45.796  30.688  58.673  0.00  0.00     0.002 A 
ATOM     30  C   UNL d   1      45.681  30.186  59.321  0.00  0.00     0.018 A 
ENDBRANCH   1  25
TORSDOF 6
ENDMDL
