MODEL 1
REMARK VINA RESULT:       1.7      0.000      0.000
REMARK  1 active torsions:
REMARK  status: ('A' for Active; 'I' for Inactive)
REMARK    1  A    between atoms: N_2  and  C_1 
ROOT
ATOM      1  C   UNL d   1      23.596  12.850  -1.066  0.00  0.00     0.148 A 
ATOM      2  C   UNL d   1      23.501  13.077  -1.876  0.00  0.00     0.051 A 
ATOM      3  C   UNL d   1      24.110  12.232  -0.879  0.00  0.00     0.127 A 
ATOM      4  C   UNL d   1      23.913  12.688  -2.469  0.00  0.00     0.121 A 
ATOM      5  C   UNL d   1      24.528  11.840  -1.501  0.00  0.00     0.049 A 
ATOM      6  C   UNL d   1      24.426  12.070  -2.281  0.00  0.00     0.121 A 
ATOM      7  O   UNL d   1      23.925  12.796  -3.311  0.00  0.00    -0.299 OA
ATOM      8  O   UNL d   1      24.768  11.781  -3.003  0.00  0.00    -0.299 OA
ATOM      9  C   UNL d   1      24.444  12.241  -3.612  0.00  0.00     0.304 A 
ATOM     10  N   UNL d   1      24.183  12.028  -0.045  0.00  0.00    -0.146 N 
ENDROOT
BRANCH   1  11
ATOM     11  N   UNL d   1      23.187  13.227  -0.409  0.00  0.00    -0.112 N 
ATOM     12  O   UNL d   1      22.457  12.933  -0.128  0.00  0.00    -0.532 OA
ATOM     13  O   UNL d   1      23.521  13.918  -0.025  0.00  0.00    -0.532 OA
ENDBRANCH   1  11
TORSDOF 1
ENDMDL
