MODEL 1
REMARK VINA RESULT:      -0.5      0.000      0.000
REMARK  5 active torsions:
REMARK  status: ('A' for Active; 'I' for Inactive)
REMARK    1  A    between atoms: O_8  and  C_2 
REMARK    2  A    between atoms: C_10  and  C_3 
REMARK    3  A    between atoms: C_14  and  O_8 
REMARK    4  A    between atoms: N_9  and  C_10 
REMARK    5  A    between atoms: O_23  and  C_17 
ROOT
ATOM      1  C   UNL d   1     -41.776-122.652 -51.218  0.00  0.00     0.108 A 
ATOM      2  C   UNL d   1     -42.105-122.359 -52.824  0.00  0.00     0.164 A 
ATOM      3  C   UNL d   1     -41.609-122.789 -50.420  0.00  0.00     0.079 A 
ATOM      4  C   UNL d   1     -41.615-121.902 -51.552  0.00  0.00     0.064 A 
ATOM      5  C   UNL d   1     -41.777-121.756 -52.346  0.00  0.00     0.222 A 
ATOM      6  O   UNL d   1     -42.099-123.252 -51.685  0.00  0.00    -0.303 OA
ATOM      7  C   UNL d   1     -42.265-123.106 -52.491  0.00  0.00     0.150 A 
ATOM      8  C   UNL d   1     -41.288-121.302 -51.073  0.00  0.00     0.009 A 
ATOM      9  C   UNL d   1     -41.288-122.200 -49.949  0.00  0.00     0.199 A 
ATOM     10  O   UNL d   1     -41.620-121.018 -52.680  0.00  0.00    -0.284 OA
ATOM     11  C   UNL d   1     -41.125-121.448 -50.279  0.00  0.00     0.042 A 
ATOM     12  O   UNL d   1     -41.123-122.335 -49.160  0.00  0.00    -0.286 OA
ENDROOT
BRANCH   2  13
ATOM     13  O   UNL d   1     -42.268-122.214 -53.618  0.00  0.00    -0.300 OA
BRANCH  13  14
ATOM     14  C   UNL d   1     -41.902-122.664 -54.194  0.00  0.00     0.122 A 
ATOM     15  C   UNL d   1     -41.947-122.437 -54.978  0.00  0.00     0.117 A 
ATOM     16  C   UNL d   1     -41.580-122.888 -55.558  0.00  0.00     0.026 A 
ATOM     17  C   UNL d   1     -41.167-123.571 -55.343  0.00  0.00     0.002 A 
ATOM     18  C   UNL d   1     -41.123-123.797 -54.559  0.00  0.00     0.002 A 
ATOM     19  C   UNL d   1     -41.492-123.344 -53.977  0.00  0.00     0.027 A 
BRANCH  15  20
ATOM     20  O   UNL d   1     -42.361-121.755 -55.180  0.00  0.00    -0.326 OA
ATOM     21  C   UNL d   1     -42.495-121.573 -55.974  0.00  0.00     0.181 C 
ENDBRANCH  15  20
ENDBRANCH  13  14
ENDBRANCH   2  13
BRANCH   3  22
ATOM     22  C   UNL d   1     -41.768-123.525 -50.097  0.00  0.00     0.086 C 
BRANCH  22  23
ATOM     23  N   UNL d   1     -42.315-123.596 -49.480  0.00  0.00    -0.300 N 
ATOM     24  C   UNL d   1     -42.062-123.515 -48.699  0.00  0.00     0.100 A 
ATOM     25  C   UNL d   1     -42.605-123.585 -48.084  0.00  0.00     0.100 A 
ATOM     26  N   UNL d   1     -43.401-123.736 -48.250  0.00  0.00    -0.299 N 
ATOM     27  C   UNL d   1     -43.650-123.817 -49.033  0.00  0.00     0.100 A 
ATOM     28  C   UNL d   1     -43.945-123.806 -47.636  0.00  0.00     0.100 C 
ATOM     29  C   UNL d   1     -43.105-123.747 -49.657  0.00  0.00     0.100 A 
ENDBRANCH  22  23
ENDBRANCH   3  22
TORSDOF 5
ENDMDL
MODEL 2
REMARK VINA RESULT:       1.5      1.670      5.150
REMARK  5 active torsions:
REMARK  status: ('A' for Active; 'I' for Inactive)
REMARK    1  A    between atoms: O_8  and  C_2 
REMARK    2  A    between atoms: C_10  and  C_3 
REMARK    3  A    between atoms: C_14  and  O_8 
REMARK    4  A    between atoms: N_9  and  C_10 
REMARK    5  A    between atoms: O_23  and  C_17 
ROOT
ATOM      1  C   UNL d   1     -41.151-122.449 -51.857  0.00  0.00     0.108 A 
ATOM      2  C   UNL d   1     -41.173-122.927 -50.262  0.00  0.00     0.164 A 
ATOM      3  C   UNL d   1     -41.140-122.202 -52.645  0.00  0.00     0.079 A 
ATOM      4  C   UNL d   1     -41.157-121.878 -51.244  0.00  0.00     0.064 A 
ATOM      5  C   UNL d   1     -41.168-122.114 -50.455  0.00  0.00     0.222 A 
ATOM      6  O   UNL d   1     -41.156-123.253 -51.671  0.00  0.00    -0.303 OA
ATOM      7  C   UNL d   1     -41.167-123.495 -50.871  0.00  0.00     0.150 A 
ATOM      8  C   UNL d   1     -41.151-121.067 -51.440  0.00  0.00     0.009 A 
ATOM      9  C   UNL d   1     -41.134-121.405 -52.839  0.00  0.00     0.199 A 
ATOM     10  O   UNL d   1     -41.173-121.555 -49.848  0.00  0.00    -0.284 OA
ATOM     11  C   UNL d   1     -41.140-120.831 -52.229  0.00  0.00     0.042 A 
ATOM     12  O   UNL d   1     -41.123-121.161 -53.618  0.00  0.00    -0.286 OA
ENDROOT
BRANCH   2  13
ATOM     13  O   UNL d   1     -41.184-123.164 -49.473  0.00  0.00    -0.300 OA
BRANCH  13  14
ATOM     14  C   UNL d   1     -41.891-123.382 -49.126  0.00  0.00     0.122 A 
ATOM     15  C   UNL d   1     -41.920-123.548 -48.327  0.00  0.00     0.117 A 
ATOM     16  C   UNL d   1     -42.629-123.767 -47.977  0.00  0.00     0.026 A 
ATOM     17  C   UNL d   1     -43.313-123.818 -48.439  0.00  0.00     0.002 A 
ATOM     18  C   UNL d   1     -43.284-123.651 -49.238  0.00  0.00     0.002 A 
ATOM     19  C   UNL d   1     -42.570-123.431 -49.589  0.00  0.00     0.027 A 
BRANCH  15  20
ATOM     20  O   UNL d   1     -41.233-123.494 -47.876  0.00  0.00    -0.326 OA
ATOM     21  C   UNL d   1     -41.226-123.765 -47.097  0.00  0.00     0.181 C 
ENDBRANCH  15  20
ENDBRANCH  13  14
ENDBRANCH   2  13
BRANCH   3  22
ATOM     22  C   UNL d   1     -41.134-122.764 -53.242  0.00  0.00     0.086 C 
BRANCH  22  23
ATOM     23  N   UNL d   1     -41.572-122.638 -53.933  0.00  0.00    -0.300 N 
ATOM     24  C   UNL d   1     -41.202-122.698 -54.667  0.00  0.00     0.100 A 
ATOM     25  C   UNL d   1     -41.636-122.572 -55.355  0.00  0.00     0.100 A 
ATOM     26  N   UNL d   1     -42.440-122.386 -55.309  0.00  0.00    -0.299 N 
ATOM     27  C   UNL d   1     -42.807-122.327 -54.572  0.00  0.00     0.100 A 
ATOM     28  C   UNL d   1     -42.875-122.261 -55.997  0.00  0.00     0.100 C 
ATOM     29  C   UNL d   1     -42.372-122.453 -53.874  0.00  0.00     0.100 A 
ENDBRANCH  22  23
ENDBRANCH   3  22
TORSDOF 5
ENDMDL
