MODEL 1
REMARK VINA RESULT:      13.6      0.000      0.000
REMARK  1 active torsions:
REMARK  status: ('A' for Active; 'I' for Inactive)
REMARK    1  A    between atoms: C_7  and  C_5 
ROOT
ATOM      1  C   UNL d   1      46.134 -18.459  43.409  0.00  0.00     0.110 A 
ATOM      2  C   UNL d   1      45.711 -17.205  43.614  0.00  0.00     0.332 A 
ATOM      3  C   UNL d   1      46.046 -18.345  44.219  0.00  0.00     0.060 A 
ATOM      4  S   UNL d   1      45.785 -17.575  44.349  0.00  0.00    -0.018 SA
ATOM      5  C   UNL d   1      46.390 -19.184  43.108  0.00  0.00     0.027 A 
ATOM      6  O   UNL d   1      45.927 -17.752  43.032  0.00  0.00    -0.268 OA
ATOM      7  C   UNL d   1      46.220 -18.979  44.739  0.00  0.00     0.051 A 
ATOM      8  C   UNL d   1      46.560 -19.806  43.622  0.00  0.00     0.044 A 
ATOM      9  O   UNL d   1      45.466 -16.427  43.478  0.00  0.00    -0.251 OA
ATOM     10  C   UNL d   1      46.475 -19.703  44.438  0.00  0.00     0.196 A 
ATOM     11  O   UNL d   1      46.647 -20.329  44.953  0.00  0.00    -0.286 OA
ENDROOT
BRANCH   5  12
ATOM     12  C   UNL d   1      46.475 -19.286  42.292  0.00  0.00     0.004 A 
ATOM     13  C   UNL d   1      46.516 -18.628  41.795  0.00  0.00     0.030 A 
ATOM     14  C   UNL d   1      46.601 -18.730  40.979  0.00  0.00     0.140 A 
ATOM     15  F   UNL d   1      46.643 -18.074  40.478  0.00  0.00    -0.204 F 
ATOM     16  C   UNL d   1      46.645 -19.490  40.660  0.00  0.00     0.030 A 
ATOM     17  C   UNL d   1      46.604 -20.147  41.157  0.00  0.00     0.002 A 
ATOM     18  C   UNL d   1      46.519 -20.045  41.973  0.00  0.00     0.000 A 
ENDBRANCH   5  12
TORSDOF 1
ENDMDL
