MODEL 1
REMARK VINA RESULT:      -7.3      0.000      0.000
REMARK  4 active torsions:
REMARK  status: ('A' for Active; 'I' for Inactive)
REMARK    1  A    between atoms: C_2  and  C_1 
REMARK    2  A    between atoms: C_3  and  C_1 
REMARK       I    between atoms: N_7  and  C_2 
REMARK    3  A    between atoms: C_4  and  C_3 
REMARK    4  A    between atoms: C_13  and  N_7 
ROOT
ATOM      1  C   UNL d   1     -47.627  13.500  22.587  0.00  0.00     0.128 C 
ATOM      2  C   UNL d   1     -47.727  13.247  21.816  0.00  0.00     0.106 C 
ATOM      3  N   UNL d   1     -47.826  12.993  21.027  0.00  0.00    -0.191 NA
ENDROOT
BRANCH   1   4
ATOM      4  C   UNL d   1     -47.288  14.243  22.753  0.00  0.00     0.289 C 
ATOM      5  N   UNL d   1     -47.776  14.894  22.871  0.00  0.00    -0.207 NA
ATOM      6  O   UNL d   1     -46.467  14.313  22.797  0.00  0.00    -0.264 OA
BRANCH   5   7
ATOM      7  C   UNL d   1     -48.597  14.825  22.828  0.00  0.00     0.085 A 
ATOM      8  C   UNL d   1     -48.976  14.869  22.096  0.00  0.00     0.020 A 
ATOM      9  C   UNL d   1     -49.797  14.799  22.052  0.00  0.00     0.008 A 
ATOM     10  C   UNL d   1     -50.239  14.687  22.739  0.00  0.00     0.035 A 
ATOM     11  C   UNL d   1     -49.860  14.643  23.470  0.00  0.00     0.008 A 
ATOM     12 BR   UNL d   1     -51.064  14.618  22.687  0.00  0.00    -0.049 Br
ATOM     13  C   UNL d   1     -49.040  14.712  23.515  0.00  0.00     0.020 A 
ENDBRANCH   5   7
ENDBRANCH   1   4
BRANCH   1  14
ATOM     14  C   UNL d   1     -47.865  13.015  23.211  0.00  0.00     0.040 C 
BRANCH  14  15
ATOM     15  C   UNL d   1     -47.474  12.299  23.361  0.00  0.00     0.101 A 
ATOM     16  O   UNL d   1     -46.680  12.103  23.432  0.00  0.00    -0.307 OA
ATOM     17  C   UNL d   1     -46.638  11.293  23.585  0.00  0.00     0.100 A 
ATOM     18  C   UNL d   1     -45.935  10.851  23.698  0.00  0.00     0.027 C 
ATOM     19  C   UNL d   1     -47.393  10.990  23.610  0.00  0.00     0.027 A 
ATOM     20  C   UNL d   1     -47.918  11.615  23.471  0.00  0.00     0.027 A 
ENDBRANCH  14  15
ENDBRANCH   1  14
TORSDOF 4
ENDMDL
MODEL 2
REMARK VINA RESULT:      -5.8      9.030      9.888
REMARK  4 active torsions:
REMARK  status: ('A' for Active; 'I' for Inactive)
REMARK    1  A    between atoms: C_2  and  C_1 
REMARK    2  A    between atoms: C_3  and  C_1 
REMARK       I    between atoms: N_7  and  C_2 
REMARK    3  A    between atoms: C_4  and  C_3 
REMARK    4  A    between atoms: C_13  and  N_7 
ROOT
ATOM      1  C   UNL d   1     -39.724  14.665  18.099  0.00  0.00     0.128 C 
ATOM      2  C   UNL d   1     -39.201  15.286  17.999  0.00  0.00     0.106 C 
ATOM      3  N   UNL d   1     -38.671  15.922  17.896  0.00  0.00    -0.191 NA
ENDROOT
BRANCH   1   4
ATOM      4  C   UNL d   1     -40.546  14.780  18.020  0.00  0.00     0.289 C 
ATOM      5  N   UNL d   1     -40.997  14.955  18.684  0.00  0.00    -0.207 NA
ATOM      6  O   UNL d   1     -40.893  14.717  17.274  0.00  0.00    -0.264 OA
BRANCH   5   7
ATOM      7  C   UNL d   1     -40.650  15.019  19.430  0.00  0.00     0.085 A 
ATOM      8  C   UNL d   1     -40.334  15.739  19.677  0.00  0.00     0.020 A 
ATOM      9  C   UNL d   1     -39.987  15.803  20.423  0.00  0.00     0.008 A 
ATOM     10  C   UNL d   1     -39.955  15.147  20.921  0.00  0.00     0.035 A 
ATOM     11  C   UNL d   1     -40.271  14.426  20.674  0.00  0.00     0.008 A 
ATOM     12 BR   UNL d   1     -39.605  15.218  21.670  0.00  0.00    -0.049 Br
ATOM     13  C   UNL d   1     -40.618  14.362  19.929  0.00  0.00     0.020 A 
ENDBRANCH   5   7
ENDBRANCH   1   4
BRANCH   1  14
ATOM     14  C   UNL d   1     -39.437  13.913  18.280  0.00  0.00     0.040 C 
BRANCH  14  15
ATOM     15  C   UNL d   1     -38.963  13.500  17.739  0.00  0.00     0.101 A 
ATOM     16  O   UNL d   1     -38.775  13.631  16.951  0.00  0.00    -0.307 OA
ATOM     17  C   UNL d   1     -38.271  13.021  16.712  0.00  0.00     0.100 A 
ATOM     18  C   UNL d   1     -37.940  12.930  15.948  0.00  0.00     0.027 C 
ATOM     19  C   UNL d   1     -38.148  12.520  17.342  0.00  0.00     0.027 A 
ATOM     20  C   UNL d   1     -38.578  12.815  17.985  0.00  0.00     0.027 A 
ENDBRANCH  14  15
ENDBRANCH   1  14
TORSDOF 4
ENDMDL
MODEL 3
REMARK VINA RESULT:      -5.8      2.109      2.631
REMARK  4 active torsions:
REMARK  status: ('A' for Active; 'I' for Inactive)
REMARK    1  A    between atoms: C_2  and  C_1 
REMARK    2  A    between atoms: C_3  and  C_1 
REMARK       I    between atoms: N_7  and  C_2 
REMARK    3  A    between atoms: C_4  and  C_3 
REMARK    4  A    between atoms: C_13  and  N_7 
ROOT
ATOM      1  C   UNL d   1     -46.272  12.989  22.894  0.00  0.00     0.128 C 
ATOM      2  C   UNL d   1     -46.378  12.281  23.289  0.00  0.00     0.106 C 
ATOM      3  N   UNL d   1     -46.488  11.561  23.695  0.00  0.00    -0.191 NA
ENDROOT
BRANCH   1   4
ATOM      4  C   UNL d   1     -46.477  13.714  23.253  0.00  0.00     0.289 C 
ATOM      5  N   UNL d   1     -47.237  14.013  23.157  0.00  0.00    -0.207 NA
ATOM      6  O   UNL d   1     -45.913  14.119  23.698  0.00  0.00    -0.264 OA
BRANCH   5   7
ATOM      7  C   UNL d   1     -47.801  13.608  22.712  0.00  0.00     0.085 A 
ATOM      8  C   UNL d   1     -48.278  13.038  23.072  0.00  0.00     0.020 A 
ATOM      9  C   UNL d   1     -48.843  12.633  22.626  0.00  0.00     0.008 A 
ATOM     10  C   UNL d   1     -48.930  12.796  21.823  0.00  0.00     0.035 A 
ATOM     11  C   UNL d   1     -48.453  13.365  21.464  0.00  0.00     0.008 A 
ATOM     12 BR   UNL d   1     -49.500  12.385  21.382  0.00  0.00    -0.049 Br
ATOM     13  C   UNL d   1     -47.889  13.771  21.908  0.00  0.00     0.020 A 
ENDBRANCH   5   7
ENDBRANCH   1   4
BRANCH   1  14
ATOM     14  C   UNL d   1     -45.957  12.990  22.132  0.00  0.00     0.040 C 
BRANCH  14  15
ATOM     15  C   UNL d   1     -45.159  12.806  22.004  0.00  0.00     0.101 A 
ATOM     16  O   UNL d   1     -44.618  12.355  22.426  0.00  0.00    -0.307 OA
ATOM     17  C   UNL d   1     -43.902  12.380  22.015  0.00  0.00     0.100 A 
ATOM     18  C   UNL d   1     -43.192  11.997  22.243  0.00  0.00     0.027 C 
ATOM     19  C   UNL d   1     -43.996  12.838  21.349  0.00  0.00     0.027 A 
ATOM     20  C   UNL d   1     -44.780  13.107  21.338  0.00  0.00     0.027 A 
ENDBRANCH  14  15
ENDBRANCH   1  14
TORSDOF 4
ENDMDL
MODEL 4
REMARK VINA RESULT:      -5.7      9.355     10.310
REMARK  4 active torsions:
REMARK  status: ('A' for Active; 'I' for Inactive)
REMARK    1  A    between atoms: C_2  and  C_1 
REMARK    2  A    between atoms: C_3  and  C_1 
REMARK       I    between atoms: N_7  and  C_2 
REMARK    3  A    between atoms: C_4  and  C_3 
REMARK    4  A    between atoms: C_13  and  N_7 
ROOT
ATOM      1  C   UNL d   1     -39.642  14.254  18.514  0.00  0.00     0.128 C 
ATOM      2  C   UNL d   1     -39.050  13.693  18.571  0.00  0.00     0.106 C 
ATOM      3  N   UNL d   1     -38.447  13.119  18.626  0.00  0.00    -0.191 NA
ENDROOT
BRANCH   1   4
ATOM      4  C   UNL d   1     -40.353  14.087  18.111  0.00  0.00     0.289 C 
ATOM      5  N   UNL d   1     -40.436  14.314  17.325  0.00  0.00    -0.207 NA
ATOM      6  O   UNL d   1     -40.961  13.695  18.507  0.00  0.00    -0.264 OA
BRANCH   5   7
ATOM      7  C   UNL d   1     -39.828  14.706  16.928  0.00  0.00     0.085 A 
ATOM      8  C   UNL d   1     -39.827  15.530  16.886  0.00  0.00     0.020 A 
ATOM      9  C   UNL d   1     -39.219  15.922  16.489  0.00  0.00     0.008 A 
ATOM     10  C   UNL d   1     -38.612  15.490  16.135  0.00  0.00     0.035 A 
ATOM     11  C   UNL d   1     -38.613  14.667  16.177  0.00  0.00     0.008 A 
ATOM     12 BR   UNL d   1     -38.004  15.891  15.737  0.00  0.00    -0.049 Br
ATOM     13  C   UNL d   1     -39.220  14.275  16.574  0.00  0.00     0.020 A 
ENDBRANCH   5   7
ENDBRANCH   1   4
BRANCH   1  14
ATOM     14  C   UNL d   1     -39.539  14.996  18.861  0.00  0.00     0.040 C 
BRANCH  14  15
ATOM     15  C   UNL d   1     -39.509  15.076  19.685  0.00  0.00     0.101 A 
ATOM     16  O   UNL d   1     -39.771  14.600  20.301  0.00  0.00    -0.307 OA
ATOM     17  C   UNL d   1     -39.579  14.981  21.008  0.00  0.00     0.100 A 
ATOM     18  C   UNL d   1     -39.742  14.697  21.779  0.00  0.00     0.027 C 
ATOM     19  C   UNL d   1     -39.204  15.683  20.835  0.00  0.00     0.027 A 
ATOM     20  C   UNL d   1     -39.158  15.746  20.010  0.00  0.00     0.027 A 
ENDBRANCH  14  15
ENDBRANCH   1  14
TORSDOF 4
ENDMDL
MODEL 5
REMARK VINA RESULT:      -5.5      8.097      9.293
REMARK  4 active torsions:
REMARK  status: ('A' for Active; 'I' for Inactive)
REMARK    1  A    between atoms: C_2  and  C_1 
REMARK    2  A    between atoms: C_3  and  C_1 
REMARK       I    between atoms: N_7  and  C_2 
REMARK    3  A    between atoms: C_4  and  C_3 
REMARK    4  A    between atoms: C_13  and  N_7 
ROOT
ATOM      1  C   UNL d   1     -40.596  14.640  20.220  0.00  0.00     0.128 C 
ATOM      2  C   UNL d   1     -41.123  14.025  20.327  0.00  0.00     0.106 C 
ATOM      3  N   UNL d   1     -41.663  13.398  20.438  0.00  0.00    -0.191 NA
ENDROOT
BRANCH   1   4
ATOM      4  C   UNL d   1     -40.637  15.326  20.693  0.00  0.00     0.289 C 
ATOM      5  N   UNL d   1     -40.133  15.405  21.337  0.00  0.00    -0.207 NA
ATOM      6  O   UNL d   1     -41.185  15.914  20.506  0.00  0.00    -0.264 OA
BRANCH   5   7
ATOM      7  C   UNL d   1     -39.585  14.817  21.524  0.00  0.00     0.085 A 
ATOM      8  C   UNL d   1     -39.813  14.175  21.988  0.00  0.00     0.020 A 
ATOM      9  C   UNL d   1     -39.265  13.586  22.176  0.00  0.00     0.008 A 
ATOM     10  C   UNL d   1     -38.491  13.641  21.899  0.00  0.00     0.035 A 
ATOM     11  C   UNL d   1     -38.262  14.284  21.435  0.00  0.00     0.008 A 
ATOM     12 BR   UNL d   1     -37.945  13.046  22.091  0.00  0.00    -0.049 Br
ATOM     13  C   UNL d   1     -38.809  14.871  21.248  0.00  0.00     0.020 A 
ENDBRANCH   5   7
ENDBRANCH   1   4
BRANCH   1  14
ATOM     14  C   UNL d   1     -40.014  14.586  19.637  0.00  0.00     0.040 C 
BRANCH  14  15
ATOM     15  C   UNL d   1     -40.213  14.655  18.835  0.00  0.00     0.101 A 
ATOM     16  O   UNL d   1     -40.696  15.176  18.425  0.00  0.00    -0.307 OA
ATOM     17  C   UNL d   1     -40.671  14.962  17.627  0.00  0.00     0.100 A 
ATOM     18  C   UNL d   1     -41.081  15.342  17.004  0.00  0.00     0.027 C 
ATOM     19  C   UNL d   1     -40.179  14.318  17.544  0.00  0.00     0.027 A 
ATOM     20  C   UNL d   1     -39.891  14.123  18.296  0.00  0.00     0.027 A 
ENDBRANCH  14  15
ENDBRANCH   1  14
TORSDOF 4
ENDMDL
MODEL 6
REMARK VINA RESULT:      -5.5      8.104      9.046
REMARK  4 active torsions:
REMARK  status: ('A' for Active; 'I' for Inactive)
REMARK    1  A    between atoms: C_2  and  C_1 
REMARK    2  A    between atoms: C_3  and  C_1 
REMARK       I    between atoms: N_7  and  C_2 
REMARK    3  A    between atoms: C_4  and  C_3 
REMARK    4  A    between atoms: C_13  and  N_7 
ROOT
ATOM      1  C   UNL d   1     -40.245  14.697  20.721  0.00  0.00     0.128 C 
ATOM      2  C   UNL d   1     -40.875  14.176  20.735  0.00  0.00     0.106 C 
ATOM      3  N   UNL d   1     -41.521  13.648  20.748  0.00  0.00    -0.191 NA
ENDROOT
BRANCH   1   4
ATOM      4  C   UNL d   1     -40.371  15.521  20.703  0.00  0.00     0.289 C 
ATOM      5  N   UNL d   1     -40.332  15.921  19.986  0.00  0.00    -0.207 NA
ATOM      6  O   UNL d   1     -40.534  15.921  21.406  0.00  0.00    -0.264 OA
BRANCH   5   7
ATOM      7  C   UNL d   1     -40.170  15.521  19.283  0.00  0.00     0.085 A 
ATOM      8  C   UNL d   1     -39.402  15.514  18.981  0.00  0.00     0.020 A 
ATOM      9  C   UNL d   1     -39.240  15.114  18.278  0.00  0.00     0.008 A 
ATOM     10  C   UNL d   1     -39.844  14.722  17.877  0.00  0.00     0.035 A 
ATOM     11  C   UNL d   1     -40.611  14.729  18.179  0.00  0.00     0.008 A 
ATOM     12 BR   UNL d   1     -39.673  14.321  17.170  0.00  0.00    -0.049 Br
ATOM     13  C   UNL d   1     -40.774  15.128  18.881  0.00  0.00     0.020 A 
ENDBRANCH   5   7
ENDBRANCH   1   4
BRANCH   1  14
ATOM     14  C   UNL d   1     -39.473  14.406  20.726  0.00  0.00     0.040 C 
BRANCH  14  15
ATOM     15  C   UNL d   1     -39.167  14.034  21.401  0.00  0.00     0.101 A 
ATOM     16  O   UNL d   1     -39.358  14.082  22.198  0.00  0.00    -0.307 OA
ATOM     17  C   UNL d   1     -38.850  13.574  22.606  0.00  0.00     0.100 A 
ATOM     18  C   UNL d   1     -38.845  13.445  23.433  0.00  0.00     0.027 C 
ATOM     19  C   UNL d   1     -38.351  13.216  22.071  0.00  0.00     0.027 A 
ATOM     20  C   UNL d   1     -38.545  13.501  21.317  0.00  0.00     0.027 A 
ENDBRANCH  14  15
ENDBRANCH   1  14
TORSDOF 4
ENDMDL
MODEL 7
REMARK VINA RESULT:      -5.2      9.229     10.311
REMARK  4 active torsions:
REMARK  status: ('A' for Active; 'I' for Inactive)
REMARK    1  A    between atoms: C_2  and  C_1 
REMARK    2  A    between atoms: C_3  and  C_1 
REMARK       I    between atoms: N_7  and  C_2 
REMARK    3  A    between atoms: C_4  and  C_3 
REMARK    4  A    between atoms: C_13  and  N_7 
ROOT
ATOM      1  C   UNL d   1     -39.263  14.851  18.045  0.00  0.00     0.128 C 
ATOM      2  C   UNL d   1     -39.348  14.070  17.821  0.00  0.00     0.106 C 
ATOM      3  N   UNL d   1     -39.432  13.272  17.592  0.00  0.00    -0.191 NA
ENDROOT
BRANCH   1   4
ATOM      4  C   UNL d   1     -38.517  15.223  18.024  0.00  0.00     0.289 C 
ATOM      5  N   UNL d   1     -38.068  15.273  18.710  0.00  0.00    -0.207 NA
ATOM      6  O   UNL d   1     -38.241  15.536  17.311  0.00  0.00    -0.264 OA
BRANCH   5   7
ATOM      7  C   UNL d   1     -38.343  14.960  19.423  0.00  0.00     0.085 A 
ATOM      8  C   UNL d   1     -38.711  15.451  19.973  0.00  0.00     0.020 A 
ATOM      9  C   UNL d   1     -38.987  15.138  20.686  0.00  0.00     0.008 A 
ATOM     10  C   UNL d   1     -38.894  14.335  20.847  0.00  0.00     0.035 A 
ATOM     11  C   UNL d   1     -38.526  13.844  20.296  0.00  0.00     0.008 A 
ATOM     12 BR   UNL d   1     -39.173  14.028  21.565  0.00  0.00    -0.049 Br
ATOM     13  C   UNL d   1     -38.251  14.156  19.585  0.00  0.00     0.020 A 
ENDBRANCH   5   7
ENDBRANCH   1   4
BRANCH   1  14
ATOM     14  C   UNL d   1     -39.921  15.280  18.297  0.00  0.00     0.040 C 
BRANCH  14  15
ATOM     15  C   UNL d   1     -40.514  15.497  17.759  0.00  0.00     0.101 A 
ATOM     16  O   UNL d   1     -40.538  15.526  16.939  0.00  0.00    -0.307 OA
ATOM     17  C   UNL d   1     -41.290  15.789  16.722  0.00  0.00     0.100 A 
ATOM     18  C   UNL d   1     -41.563  15.902  15.938  0.00  0.00     0.027 C 
ATOM     19  C   UNL d   1     -41.727  15.922  17.396  0.00  0.00     0.027 A 
ATOM     20  C   UNL d   1     -41.246  15.741  18.046  0.00  0.00     0.027 A 
ENDBRANCH  14  15
ENDBRANCH   1  14
TORSDOF 4
ENDMDL
MODEL 8
REMARK VINA RESULT:      -5.1      9.609     10.629
REMARK  4 active torsions:
REMARK  status: ('A' for Active; 'I' for Inactive)
REMARK    1  A    between atoms: C_2  and  C_1 
REMARK    2  A    between atoms: C_3  and  C_1 
REMARK       I    between atoms: N_7  and  C_2 
REMARK    3  A    between atoms: C_4  and  C_3 
REMARK    4  A    between atoms: C_13  and  N_7 
ROOT
ATOM      1  C   UNL d   1     -39.126  14.166  18.240  0.00  0.00     0.128 C 
ATOM      2  C   UNL d   1     -39.917  14.094  18.046  0.00  0.00     0.106 C 
ATOM      3  N   UNL d   1     -40.724  14.017  17.850  0.00  0.00    -0.191 NA
ENDROOT
BRANCH   1   4
ATOM      4  C   UNL d   1     -38.714  13.536  18.599  0.00  0.00     0.289 C 
ATOM      5  N   UNL d   1     -38.627  13.522  19.416  0.00  0.00    -0.207 NA
ATOM      6  O   UNL d   1     -38.401  12.936  18.127  0.00  0.00    -0.264 OA
BRANCH   5   7
ATOM      7  C   UNL d   1     -38.940  14.122  19.889  0.00  0.00     0.085 A 
ATOM      8  C   UNL d   1     -39.726  14.085  20.134  0.00  0.00     0.020 A 
ATOM      9  C   UNL d   1     -40.039  14.685  20.606  0.00  0.00     0.008 A 
ATOM     10  C   UNL d   1     -39.566  15.321  20.833  0.00  0.00     0.035 A 
ATOM     11  C   UNL d   1     -38.780  15.358  20.588  0.00  0.00     0.008 A 
ATOM     12 BR   UNL d   1     -39.888  15.920  21.308  0.00  0.00    -0.049 Br
ATOM     13  C   UNL d   1     -38.467  14.759  20.116  0.00  0.00     0.020 A 
ENDBRANCH   5   7
ENDBRANCH   1   4
BRANCH   1  14
ATOM     14  C   UNL d   1     -38.726  14.870  18.079  0.00  0.00     0.040 C 
BRANCH  14  15
ATOM     15  C   UNL d   1     -38.538  15.079  17.299  0.00  0.00     0.101 A 
ATOM     16  O   UNL d   1     -38.288  14.643  16.651  0.00  0.00    -0.307 OA
ATOM     17  C   UNL d   1     -38.189  15.168  16.021  0.00  0.00     0.100 A 
ATOM     18  C   UNL d   1     -37.940  14.966  15.248  0.00  0.00     0.027 C 
ATOM     19  C   UNL d   1     -38.376  15.919  16.274  0.00  0.00     0.027 A 
ATOM     20  C   UNL d   1     -38.594  15.869  17.072  0.00  0.00     0.027 A 
ENDBRANCH  14  15
ENDBRANCH   1  14
TORSDOF 4
ENDMDL
MODEL 9
REMARK VINA RESULT:      -4.9      2.095      3.839
REMARK  4 active torsions:
REMARK  status: ('A' for Active; 'I' for Inactive)
REMARK    1  A    between atoms: C_2  and  C_1 
REMARK    2  A    between atoms: C_3  and  C_1 
REMARK       I    between atoms: N_7  and  C_2 
REMARK    3  A    between atoms: C_4  and  C_3 
REMARK    4  A    between atoms: C_13  and  N_7 
ROOT
ATOM      1  C   UNL d   1     -48.883  13.259  22.813  0.00  0.00     0.128 C 
ATOM      2  C   UNL d   1     -49.091  13.179  22.026  0.00  0.00     0.106 C 
ATOM      3  N   UNL d   1     -49.304  13.093  21.224  0.00  0.00    -0.191 NA
ENDROOT
BRANCH   1   4
ATOM      4  C   UNL d   1     -48.877  12.599  23.323  0.00  0.00     0.289 C 
ATOM      5  N   UNL d   1     -48.164  12.229  23.498  0.00  0.00    -0.207 NA
ATOM      6  O   UNL d   1     -49.587  12.330  23.645  0.00  0.00    -0.264 OA
BRANCH   5   7
ATOM      7  C   UNL d   1     -47.454  12.499  23.176  0.00  0.00     0.085 A 
ATOM      8  C   UNL d   1     -47.244  12.289  22.406  0.00  0.00     0.020 A 
ATOM      9  C   UNL d   1     -46.534  12.559  22.085  0.00  0.00     0.008 A 
ATOM     10  C   UNL d   1     -46.033  13.037  22.532  0.00  0.00     0.035 A 
ATOM     11  C   UNL d   1     -46.243  13.247  23.302  0.00  0.00     0.008 A 
ATOM     12 BR   UNL d   1     -45.320  13.305  22.202  0.00  0.00    -0.049 Br
ATOM     13  C   UNL d   1     -46.952  12.978  23.624  0.00  0.00     0.020 A 
ENDBRANCH   5   7
ENDBRANCH   1   4
BRANCH   1  14
ATOM     14  C   UNL d   1     -48.677  14.001  23.108  0.00  0.00     0.040 C 
BRANCH  14  15
ATOM     15  C   UNL d   1     -49.250  14.593  23.199  0.00  0.00     0.101 A 
ATOM     16  O   UNL d   1     -50.008  14.591  23.514  0.00  0.00    -0.307 OA
ATOM     17  C   UNL d   1     -50.307  15.358  23.447  0.00  0.00     0.100 A 
ATOM     18  C   UNL d   1     -51.065  15.613  23.698  0.00  0.00     0.027 C 
ATOM     19  C   UNL d   1     -49.744  15.830  23.096  0.00  0.00     0.027 A 
ATOM     20  C   UNL d   1     -49.082  15.356  22.940  0.00  0.00     0.027 A 
ENDBRANCH  14  15
ENDBRANCH   1  14
TORSDOF 4
ENDMDL
