MODEL 1
REMARK VINA RESULT:      48.1      0.000      0.000
REMARK  5 active torsions:
REMARK  status: ('A' for Active; 'I' for Inactive)
REMARK    1  A    between atoms: C_2  and  S_1 
REMARK    2  A    between atoms: N_4  and  S_1 
REMARK    3  A    between atoms: C_11  and  N_4 
REMARK    4  A    between atoms: O_13  and  C_5 
REMARK    5  A    between atoms: O_14  and  C_6 
ROOT
ATOM      1  C   UNL d   1      58.317  49.251  50.717  0.00  0.00     0.141 A 
ATOM      2  C   UNL d   1      57.643  49.378  51.176  0.00  0.00     0.040 A 
ATOM      3  C   UNL d   1      58.241  49.039  49.935  0.00  0.00     0.107 A 
ATOM      4  C   UNL d   1      56.898  49.292  50.850  0.00  0.00     0.095 A 
ATOM      5  C   UNL d   1      57.499  48.950  49.597  0.00  0.00     0.027 A 
ATOM      6  C   UNL d   1      56.824  49.077  50.057  0.00  0.00     0.024 A 
ATOM      7  C   UNL d   1      56.069  48.988  49.717  0.00  0.00     0.002 C 
ENDROOT
BRANCH   1   8
ATOM      8  S   UNL d   1      59.061  49.340  51.055  0.00  0.00     0.329 S 
ATOM      9  O   UNL d   1      59.402  48.990  50.395  0.00  0.00    -0.186 OA
ATOM     10  O   UNL d   1      58.731  49.689  51.716  0.00  0.00    -0.186 OA
BRANCH   8  11
ATOM     11  N   UNL d   1      59.810  49.425  51.388  0.00  0.00    -0.316 NA
BRANCH  11  12
ATOM     12  C   UNL d   1      60.561  49.512  51.729  0.00  0.00     0.165 A 
ATOM     13  C   UNL d   1      60.636  49.558  52.542  0.00  0.00     0.132 A 
ATOM     14  N   UNL d   1      61.387  49.645  52.882  0.00  0.00    -0.240 NA
ATOM     15  C   UNL d   1      62.059  49.686  52.405  0.00  0.00     0.099 A 
ATOM     16  C   UNL d   1      61.976  49.640  51.584  0.00  0.00     0.023 A 
ATOM     17  C   UNL d   1      61.234  49.553  51.238  0.00  0.00     0.036 A 
ENDBRANCH  11  12
ENDBRANCH   8  11
ENDBRANCH   1   8
BRANCH   3  18
ATOM     18  O   UNL d   1      58.917  48.912  49.475  0.00  0.00    -0.327 OA
ATOM     19  C   UNL d   1      59.086  49.422  48.840  0.00  0.00     0.181 C 
ENDBRANCH   3  18
BRANCH   4  20
ATOM     20  O   UNL d   1      56.223  49.419  51.310  0.00  0.00    -0.328 OA
ATOM     21  C   UNL d   1      56.197  49.151  52.090  0.00  0.00     0.181 C 
ENDBRANCH   4  20
TORSDOF 5
ENDMDL
