MODEL 1
REMARK VINA RESULT:      -6.6      0.000      0.000
REMARK  5 active torsions:
REMARK  status: ('A' for Active; 'I' for Inactive)
REMARK    1  A    between atoms: N_2  and  C_1 
REMARK    2  A    between atoms: C_8  and  C_5 
REMARK    3  A    between atoms: C_6  and  C_9 
REMARK       I    between atoms: N_12  and  C_6 
REMARK    4  A    between atoms: C_9  and  C_8 
REMARK    5  A    between atoms: C_13  and  N_12 
ROOT
ATOM      1  C   UNL d   1     -48.101  12.522  22.973  0.00  0.00     0.279 C 
ATOM      2  N   UNL d   1     -48.671  12.089  22.573  0.00  0.00    -0.208 NA
ATOM      3  O   UNL d   1     -48.324  13.137  23.503  0.00  0.00    -0.265 OA
ENDROOT
BRANCH   1   4
ATOM      4  C   UNL d   1     -47.300  12.358  22.860  0.00  0.00     0.063 C 
BRANCH   4   5
ATOM      5  C   UNL d   1     -46.743  12.969  22.986  0.00  0.00     0.011 C 
BRANCH   5   6
ATOM      6  C   UNL d   1     -45.973  12.880  22.675  0.00  0.00     0.031 A 
ATOM      7  S   UNL d   1     -45.389  12.315  22.799  0.00  0.00    -0.064 SA
ATOM      8  C   UNL d   1     -44.760  12.526  22.341  0.00  0.00     0.156 A 
ATOM      9  C   UNL d   1     -44.941  13.218  21.929  0.00  0.00     0.031 A 
ATOM     10  C   UNL d   1     -45.686  13.447  22.127  0.00  0.00     0.009 A 
BRANCH   8  11
ATOM     11  N   UNL d   1     -44.034  12.110  22.287  0.00  0.00    -0.107 N 
ATOM     12  O   UNL d   1     -43.454  12.370  21.778  0.00  0.00    -0.531 OA
ATOM     13  O   UNL d   1     -43.912  11.434  22.755  0.00  0.00    -0.531 OA
ENDBRANCH   8  11
ENDBRANCH   5   6
ENDBRANCH   4   5
ENDBRANCH   1   4
BRANCH   2  14
ATOM     14  C   UNL d   1     -49.465  12.252  22.686  0.00  0.00     0.085 A 
ATOM     15  C   UNL d   1     -49.871  12.740  22.162  0.00  0.00     0.019 A 
ATOM     16  C   UNL d   1     -50.661  12.902  22.274  0.00  0.00     0.002 A 
ATOM     17  C   UNL d   1     -51.064  13.404  21.729  0.00  0.00     0.000 C 
ATOM     18  C   UNL d   1     -51.064  12.580  22.914  0.00  0.00     0.000 A 
ATOM     19  C   UNL d   1     -50.661  12.091  23.441  0.00  0.00     0.002 A 
ATOM     20  C   UNL d   1     -49.871  11.929  23.329  0.00  0.00     0.019 A 
ENDBRANCH   2  14
TORSDOF 5
ENDMDL
MODEL 2
REMARK VINA RESULT:      -6.5      1.600      1.929
REMARK  5 active torsions:
REMARK  status: ('A' for Active; 'I' for Inactive)
REMARK    1  A    between atoms: N_2  and  C_1 
REMARK    2  A    between atoms: C_8  and  C_5 
REMARK    3  A    between atoms: C_6  and  C_9 
REMARK       I    between atoms: N_12  and  C_6 
REMARK    4  A    between atoms: C_9  and  C_8 
REMARK    5  A    between atoms: C_13  and  N_12 
ROOT
ATOM      1  C   UNL d   1     -48.238  14.166  22.901  0.00  0.00     0.279 C 
ATOM      2  N   UNL d   1     -48.962  13.830  23.087  0.00  0.00    -0.208 NA
ATOM      3  O   UNL d   1     -48.200  14.911  22.510  0.00  0.00    -0.265 OA
ENDROOT
BRANCH   1   4
ATOM      4  C   UNL d   1     -47.538  13.777  23.097  0.00  0.00     0.063 C 
BRANCH   4   5
ATOM      5  C   UNL d   1     -46.921  13.751  22.532  0.00  0.00     0.011 C 
BRANCH   5   6
ATOM      6  C   UNL d   1     -46.310  13.189  22.631  0.00  0.00     0.031 A 
ATOM      7  S   UNL d   1     -46.255  12.506  23.085  0.00  0.00    -0.064 SA
ATOM      8  C   UNL d   1     -45.524  12.195  22.949  0.00  0.00     0.156 A 
ATOM      9  C   UNL d   1     -45.117  12.674  22.413  0.00  0.00     0.031 A 
ATOM     10  C   UNL d   1     -45.591  13.290  22.209  0.00  0.00     0.009 A 
BRANCH   8  11
ATOM     11  N   UNL d   1     -45.220  11.495  23.295  0.00  0.00    -0.107 N 
ATOM     12  O   UNL d   1     -45.717  10.991  23.698  0.00  0.00    -0.531 OA
ATOM     13  O   UNL d   1     -44.411  11.319  23.224  0.00  0.00    -0.531 OA
ENDBRANCH   8  11
ENDBRANCH   5   6
ENDBRANCH   4   5
ENDBRANCH   1   4
BRANCH   2  14
ATOM     14  C   UNL d   1     -49.657  14.216  22.893  0.00  0.00     0.085 A 
ATOM     15  C   UNL d   1     -49.958  14.808  23.380  0.00  0.00     0.019 A 
ATOM     16  C   UNL d   1     -50.648  15.192  23.187  0.00  0.00     0.002 A 
ATOM     17  C   UNL d   1     -50.945  15.796  23.696  0.00  0.00     0.000 C 
ATOM     18  C   UNL d   1     -51.056  14.996  22.501  0.00  0.00     0.000 A 
ATOM     19  C   UNL d   1     -50.758  14.404  22.010  0.00  0.00     0.002 A 
ATOM     20  C   UNL d   1     -50.067  14.019  22.203  0.00  0.00     0.019 A 
ENDBRANCH   2  14
TORSDOF 5
ENDMDL
MODEL 3
REMARK VINA RESULT:      -5.4      2.208      5.231
REMARK  5 active torsions:
REMARK  status: ('A' for Active; 'I' for Inactive)
REMARK    1  A    between atoms: N_2  and  C_1 
REMARK    2  A    between atoms: C_8  and  C_5 
REMARK    3  A    between atoms: C_6  and  C_9 
REMARK       I    between atoms: N_12  and  C_6 
REMARK    4  A    between atoms: C_9  and  C_8 
REMARK    5  A    between atoms: C_13  and  N_12 
ROOT
ATOM      1  C   UNL d   1     -46.853  13.698  22.718  0.00  0.00     0.279 C 
ATOM      2  N   UNL d   1     -46.573  13.148  22.178  0.00  0.00    -0.208 NA
ATOM      3  O   UNL d   1     -46.380  13.935  23.372  0.00  0.00    -0.265 OA
ENDROOT
BRANCH   1   4
ATOM      4  C   UNL d   1     -47.604  14.027  22.623  0.00  0.00     0.063 C 
BRANCH   4   5
ATOM      5  C   UNL d   1     -48.103  14.087  23.292  0.00  0.00     0.011 C 
BRANCH   5   6
ATOM      6  C   UNL d   1     -48.910  14.272  23.175  0.00  0.00     0.031 A 
ATOM      7  S   UNL d   1     -49.291  14.964  22.949  0.00  0.00    -0.064 SA
ATOM      8  C   UNL d   1     -50.080  14.800  22.932  0.00  0.00     0.156 A 
ATOM      9  C   UNL d   1     -50.201  14.011  23.144  0.00  0.00     0.031 A 
ATOM     10  C   UNL d   1     -49.487  13.674  23.296  0.00  0.00     0.009 A 
BRANCH   8  11
ATOM     11  N   UNL d   1     -50.687  15.341  22.731  0.00  0.00    -0.107 N 
ATOM     12  O   UNL d   1     -50.905  15.922  23.258  0.00  0.00    -0.531 OA
ATOM     13  O   UNL d   1     -51.063  15.282  21.991  0.00  0.00    -0.531 OA
ENDBRANCH   8  11
ENDBRANCH   5   6
ENDBRANCH   4   5
ENDBRANCH   1   4
BRANCH   2  14
ATOM     14  C   UNL d   1     -45.828  12.823  22.272  0.00  0.00     0.085 A 
ATOM     15  C   UNL d   1     -45.192  13.098  21.828  0.00  0.00     0.019 A 
ATOM     16  C   UNL d   1     -44.451  12.774  21.922  0.00  0.00     0.002 A 
ATOM     17  C   UNL d   1     -43.808  13.067  21.460  0.00  0.00     0.000 C 
ATOM     18  C   UNL d   1     -44.327  12.167  22.462  0.00  0.00     0.000 A 
ATOM     19  C   UNL d   1     -44.963  11.888  22.908  0.00  0.00     0.002 A 
ATOM     20  C   UNL d   1     -45.703  12.212  22.814  0.00  0.00     0.019 A 
ENDBRANCH   2  14
TORSDOF 5
ENDMDL
