MODEL 1
REMARK VINA RESULT:      -9.9      0.000      0.000
REMARK  1 active torsions:
REMARK  status: ('A' for Active; 'I' for Inactive)
REMARK    1  A    between atoms: C_10  and  N_2 
ROOT
ATOM      1  C   UNL d   1     -47.651  13.886  22.869  0.00  0.00     0.759 A 
ATOM      2  N   UNL d   1     -48.423  13.546  22.906  0.00  0.00    -0.103 N 
ATOM      3  N   UNL d   1     -46.996  13.423  23.049  0.00  0.00    -0.038 N 
ATOM      4  C   UNL d   1     -48.506  12.759  23.121  0.00  0.00     0.280 A 
ATOM      5  N   UNL d   1     -47.394  14.649  22.674  0.00  0.00     0.066 NA
ATOM      6  C   UNL d   1     -47.854  12.292  23.302  0.00  0.00     0.075 A 
ATOM      7  N   UNL d   1     -46.313  13.916  22.962  0.00  0.00    -0.025 NA
ATOM      8  N   UNL d   1     -46.564  14.651  22.736  0.00  0.00    -0.007 NA
ATOM      9  C   UNL d   1     -47.081  12.632  23.265  0.00  0.00     0.107 A 
ATOM     10  O   UNL d   1     -49.275  12.421  23.158  0.00  0.00    -0.266 OA
ATOM     11  C   UNL d   1     -47.936  11.505  23.516  0.00  0.00     0.006 A 
ATOM     12  C   UNL d   1     -46.426  12.169  23.444  0.00  0.00     0.020 A 
ATOM     13  C   UNL d   1     -47.284  11.037  23.697  0.00  0.00     0.000 A 
ATOM     14  C   UNL d   1     -46.511  11.377  23.660  0.00  0.00     0.002 A 
ENDROOT
BRANCH   2  15
ATOM     15  C   UNL d   1     -49.073  14.007  22.728  0.00  0.00     0.084 A 
ATOM     16  C   UNL d   1     -49.412  14.000  21.977  0.00  0.00     0.017 A 
ATOM     17  C   UNL d   1     -49.125  13.565  21.444  0.00  0.00     0.002 C 
ATOM     18  C   UNL d   1     -50.064  14.462  21.796  0.00  0.00     0.002 A 
ATOM     19  C   UNL d   1     -50.396  14.956  22.390  0.00  0.00     0.000 A 
ATOM     20  C   UNL d   1     -50.069  14.979  23.155  0.00  0.00     0.002 A 
ATOM     21  C   UNL d   1     -49.405  14.501  23.322  0.00  0.00     0.018 A 
ENDBRANCH   2  15
TORSDOF 1
ENDMDL
MODEL 2
REMARK VINA RESULT:      -9.7      1.326      1.806
REMARK  1 active torsions:
REMARK  status: ('A' for Active; 'I' for Inactive)
REMARK    1  A    between atoms: C_10  and  N_2 
ROOT
ATOM      1  C   UNL d   1     -48.670  14.026  22.737  0.00  0.00     0.759 A 
ATOM      2  N   UNL d   1     -48.773  13.196  22.859  0.00  0.00    -0.103 N 
ATOM      3  N   UNL d   1     -47.911  14.339  22.695  0.00  0.00    -0.038 N 
ATOM      4  C   UNL d   1     -48.112  12.717  22.933  0.00  0.00     0.280 A 
ATOM      5  N   UNL d   1     -49.219  14.641  22.644  0.00  0.00     0.066 NA
ATOM      6  C   UNL d   1     -47.351  13.025  22.891  0.00  0.00     0.075 A 
ATOM      7  N   UNL d   1     -47.993  15.172  22.571  0.00  0.00    -0.025 NA
ATOM      8  N   UNL d   1     -48.784  15.343  22.542  0.00  0.00    -0.007 NA
ATOM      9  C   UNL d   1     -47.248  13.855  22.769  0.00  0.00     0.107 A 
ATOM     10  O   UNL d   1     -48.214  11.891  23.054  0.00  0.00    -0.266 OA
ATOM     11  C   UNL d   1     -46.690  12.546  22.965  0.00  0.00     0.006 A 
ATOM     12  C   UNL d   1     -46.489  14.167  22.727  0.00  0.00     0.020 A 
ATOM     13  C   UNL d   1     -45.927  12.854  22.923  0.00  0.00     0.000 A 
ATOM     14  C   UNL d   1     -45.824  13.683  22.801  0.00  0.00     0.002 A 
ENDROOT
BRANCH   2  15
ATOM     15  C   UNL d   1     -49.527  12.888  22.901  0.00  0.00     0.084 A 
ATOM     16  C   UNL d   1     -49.904  12.582  22.235  0.00  0.00     0.017 A 
ATOM     17  C   UNL d   1     -49.555  12.583  21.577  0.00  0.00     0.002 C 
ATOM     18  C   UNL d   1     -50.661  12.271  22.275  0.00  0.00     0.002 A 
ATOM     19  C   UNL d   1     -51.064  12.265  23.013  0.00  0.00     0.000 A 
ATOM     20  C   UNL d   1     -50.703  12.568  23.698  0.00  0.00     0.002 A 
ATOM     21  C   UNL d   1     -49.931  12.881  23.639  0.00  0.00     0.018 A 
ENDBRANCH   2  15
TORSDOF 1
ENDMDL
MODEL 3
REMARK VINA RESULT:      -9.3      1.685      3.178
REMARK  1 active torsions:
REMARK  status: ('A' for Active; 'I' for Inactive)
REMARK    1  A    between atoms: C_10  and  N_2 
ROOT
ATOM      1  C   UNL d   1     -48.255  12.108  23.291  0.00  0.00     0.759 A 
ATOM      2  N   UNL d   1     -48.134  12.909  23.051  0.00  0.00    -0.103 N 
ATOM      3  N   UNL d   1     -49.012  11.853  23.484  0.00  0.00    -0.038 N 
ATOM      4  C   UNL d   1     -48.775  13.419  23.016  0.00  0.00     0.280 A 
ATOM      5  N   UNL d   1     -47.728  11.474  23.378  0.00  0.00     0.066 NA
ATOM      6  C   UNL d   1     -49.534  13.168  23.208  0.00  0.00     0.075 A 
ATOM      7  N   UNL d   1     -48.951  11.037  23.698  0.00  0.00    -0.025 NA
ATOM      8  N   UNL d   1     -48.174  10.819  23.631  0.00  0.00    -0.007 NA
ATOM      9  C   UNL d   1     -49.656  12.367  23.448  0.00  0.00     0.107 A 
ATOM     10  O   UNL d   1     -48.654  14.216  22.777  0.00  0.00    -0.266 OA
ATOM     11  C   UNL d   1     -50.175  13.678  23.173  0.00  0.00     0.006 A 
ATOM     12  C   UNL d   1     -50.413  12.113  23.641  0.00  0.00     0.020 A 
ATOM     13  C   UNL d   1     -50.936  13.428  23.366  0.00  0.00     0.000 A 
ATOM     14  C   UNL d   1     -51.057  12.627  23.605  0.00  0.00     0.002 A 
ENDROOT
BRANCH   2  15
ATOM     15  C   UNL d   1     -47.381  13.160  22.859  0.00  0.00     0.084 A 
ATOM     16  C   UNL d   1     -47.113  13.159  22.081  0.00  0.00     0.017 A 
ATOM     17  C   UNL d   1     -47.561  12.925  21.533  0.00  0.00     0.002 C 
ATOM     18  C   UNL d   1     -46.358  13.411  21.886  0.00  0.00     0.002 A 
ATOM     19  C   UNL d   1     -45.844  13.678  22.496  0.00  0.00     0.000 A 
ATOM     20  C   UNL d   1     -46.094  13.687  23.289  0.00  0.00     0.002 A 
ATOM     21  C   UNL d   1     -46.867  13.427  23.469  0.00  0.00     0.018 A 
ENDBRANCH   2  15
TORSDOF 1
ENDMDL
MODEL 4
REMARK VINA RESULT:      -9.3      1.478      2.861
REMARK  1 active torsions:
REMARK  status: ('A' for Active; 'I' for Inactive)
REMARK    1  A    between atoms: C_10  and  N_2 
ROOT
ATOM      1  C   UNL d   1     -48.767  14.014  22.945  0.00  0.00     0.759 A 
ATOM      2  N   UNL d   1     -48.295  13.313  22.947  0.00  0.00    -0.103 N 
ATOM      3  N   UNL d   1     -49.565  13.966  23.131  0.00  0.00    -0.038 N 
ATOM      4  C   UNL d   1     -48.645  12.595  23.135  0.00  0.00     0.280 A 
ATOM      5  N   UNL d   1     -48.576  14.804  22.781  0.00  0.00     0.066 NA
ATOM      6  C   UNL d   1     -49.444  12.542  23.322  0.00  0.00     0.075 A 
ATOM      7  N   UNL d   1     -49.879  14.750  23.081  0.00  0.00    -0.025 NA
ATOM      8  N   UNL d   1     -49.275  15.247  22.869  0.00  0.00    -0.007 NA
ATOM      9  C   UNL d   1     -49.915  13.244  23.320  0.00  0.00     0.107 A 
ATOM     10  O   UNL d   1     -48.176  11.897  23.138  0.00  0.00    -0.266 OA
ATOM     11  C   UNL d   1     -49.793  11.825  23.511  0.00  0.00     0.006 A 
ATOM     12  C   UNL d   1     -50.714  13.196  23.506  0.00  0.00     0.020 A 
ATOM     13  C   UNL d   1     -50.593  11.771  23.698  0.00  0.00     0.000 A 
ATOM     14  C   UNL d   1     -51.064  12.473  23.696  0.00  0.00     0.002 A 
ENDROOT
BRANCH   2  15
ATOM     15  C   UNL d   1     -47.502  13.362  22.762  0.00  0.00     0.084 A 
ATOM     16  C   UNL d   1     -47.225  13.184  22.007  0.00  0.00     0.017 A 
ATOM     17  C   UNL d   1     -47.703  12.972  21.476  0.00  0.00     0.002 C 
ATOM     18  C   UNL d   1     -46.429  13.233  21.820  0.00  0.00     0.002 A 
ATOM     19  C   UNL d   1     -45.880  13.471  22.411  0.00  0.00     0.000 A 
ATOM     20  C   UNL d   1     -46.138  13.655  23.180  0.00  0.00     0.002 A 
ATOM     21  C   UNL d   1     -46.954  13.600  23.354  0.00  0.00     0.018 A 
ENDBRANCH   2  15
TORSDOF 1
ENDMDL
MODEL 5
REMARK VINA RESULT:      -8.7      0.980      3.148
REMARK  1 active torsions:
REMARK  status: ('A' for Active; 'I' for Inactive)
REMARK    1  A    between atoms: C_10  and  N_2 
ROOT
ATOM      1  C   UNL d   1     -48.403  14.008  22.843  0.00  0.00     0.759 A 
ATOM      2  N   UNL d   1     -48.879  13.359  23.101  0.00  0.00    -0.103 N 
ATOM      3  N   UNL d   1     -48.709  14.770  22.869  0.00  0.00    -0.038 N 
ATOM      4  C   UNL d   1     -49.639  13.503  23.372  0.00  0.00     0.280 A 
ATOM      5  N   UNL d   1     -47.629  14.039  22.546  0.00  0.00     0.066 NA
ATOM      6  C   UNL d   1     -49.949  14.264  23.399  0.00  0.00     0.075 A 
ATOM      7  N   UNL d   1     -48.106  15.289  22.579  0.00  0.00    -0.025 NA
ATOM      8  N   UNL d   1     -47.461  14.838  22.387  0.00  0.00    -0.007 NA
ATOM      9  C   UNL d   1     -49.473  14.913  23.142  0.00  0.00     0.107 A 
ATOM     10  O   UNL d   1     -50.113  12.857  23.628  0.00  0.00    -0.266 OA
ATOM     11  C   UNL d   1     -50.710  14.407  23.670  0.00  0.00     0.006 A 
ATOM     12  C   UNL d   1     -49.779  15.675  23.167  0.00  0.00     0.020 A 
ATOM     13  C   UNL d   1     -51.021  15.169  23.698  0.00  0.00     0.000 A 
ATOM     14  C   UNL d   1     -50.545  15.818  23.440  0.00  0.00     0.002 A 
ENDROOT
BRANCH   2  15
ATOM     15  C   UNL d   1     -48.574  12.603  23.075  0.00  0.00     0.084 A 
ATOM     16  C   UNL d   1     -48.745  12.092  22.453  0.00  0.00     0.017 A 
ATOM     17  C   UNL d   1     -49.188  12.317  21.897  0.00  0.00     0.002 C 
ATOM     18  C   UNL d   1     -48.440  11.332  22.425  0.00  0.00     0.002 A 
ATOM     19  C   UNL d   1     -47.939  11.067  23.046  0.00  0.00     0.000 A 
ATOM     20  C   UNL d   1     -47.752  11.567  23.684  0.00  0.00     0.002 A 
ATOM     21  C   UNL d   1     -48.073  12.338  23.696  0.00  0.00     0.018 A 
ENDBRANCH   2  15
TORSDOF 1
ENDMDL
MODEL 6
REMARK VINA RESULT:      -6.9      8.566      9.655
REMARK  1 active torsions:
REMARK  status: ('A' for Active; 'I' for Inactive)
REMARK    1  A    between atoms: C_10  and  N_2 
ROOT
ATOM      1  C   UNL d   1     -40.410  14.669  18.216  0.00  0.00     0.759 A 
ATOM      2  N   UNL d   1     -40.020  14.508  18.948  0.00  0.00    -0.103 N 
ATOM      3  N   UNL d   1     -40.088  14.388  17.514  0.00  0.00    -0.038 N 
ATOM      4  C   UNL d   1     -39.325  14.074  18.944  0.00  0.00     0.280 A 
ATOM      5  N   UNL d   1     -41.106  15.085  18.044  0.00  0.00     0.066 NA
ATOM      6  C   UNL d   1     -38.998  13.790  18.245  0.00  0.00     0.075 A 
ATOM      7  N   UNL d   1     -40.601  14.638  16.889  0.00  0.00    -0.025 NA
ATOM      8  N   UNL d   1     -41.210  15.056  17.219  0.00  0.00    -0.007 NA
ATOM      9  C   UNL d   1     -39.389  13.951  17.513  0.00  0.00     0.107 A 
ATOM     10  O   UNL d   1     -38.936  13.914  19.673  0.00  0.00    -0.266 OA
ATOM     11  C   UNL d   1     -38.303  13.356  18.241  0.00  0.00     0.006 A 
ATOM     12  C   UNL d   1     -39.066  13.670  16.811  0.00  0.00     0.020 A 
ATOM     13  C   UNL d   1     -37.976  13.072  17.541  0.00  0.00     0.000 A 
ATOM     14  C   UNL d   1     -38.366  13.232  16.810  0.00  0.00     0.002 A 
ENDROOT
BRANCH   2  15
ATOM     15  C   UNL d   1     -40.341  14.788  19.644  0.00  0.00     0.084 A 
ATOM     16  C   UNL d   1     -40.108  15.510  19.965  0.00  0.00     0.017 A 
ATOM     17  C   UNL d   1     -39.593  15.922  19.619  0.00  0.00     0.002 C 
ATOM     18  C   UNL d   1     -40.430  15.792  20.664  0.00  0.00     0.002 A 
ATOM     19  C   UNL d   1     -41.012  15.335  21.063  0.00  0.00     0.000 A 
ATOM     20  C   UNL d   1     -41.263  14.604  20.756  0.00  0.00     0.002 A 
ATOM     21  C   UNL d   1     -40.924  14.331  20.043  0.00  0.00     0.018 A 
ENDBRANCH   2  15
TORSDOF 1
ENDMDL
