MODEL 1
REMARK VINA RESULT:      -5.1      0.000      0.000
REMARK  3 active torsions:
REMARK  status: ('A' for Active; 'I' for Inactive)
REMARK    1  A    between atoms: C_4  and  C_1 
REMARK       I    between atoms: N_8  and  C_4 
REMARK    2  A    between atoms: C_15  and  C_11 
REMARK    3  A    between atoms: C_12  and  C_15 
ROOT
ATOM      1  C   UNL d   1      56.415  -0.402  32.327  0.00  0.00     0.120 A 
ATOM      2  C   UNL d   1      56.576  -1.189  32.120  0.00  0.00     0.305 A 
ATOM      3  O   UNL d   1      57.074  -1.355  31.467  0.00  0.00    -0.273 OA
ATOM      4  C   UNL d   1      56.746   0.229  31.886  0.00  0.00     0.012 A 
ATOM      5  C   UNL d   1      57.401  -0.740  31.032  0.00  0.00     0.103 A 
ATOM      6  C   UNL d   1      57.238   0.055  31.241  0.00  0.00     0.023 A 
ATOM      7  O   UNL d   1      56.250  -1.809  32.554  0.00  0.00    -0.259 OA
ATOM      8  C   UNL d   1      57.896  -0.894  30.382  0.00  0.00     0.023 A 
ATOM      9  C   UNL d   1      57.569   0.677  30.801  0.00  0.00     0.002 A 
ATOM     10  C   UNL d   1      58.060   0.507  30.157  0.00  0.00     0.000 A 
ATOM     11  C   UNL d   1      58.222  -0.274  29.948  0.00  0.00     0.002 A 
ENDROOT
BRANCH   1  12
ATOM     12  C   UNL d   1      55.926  -0.240  32.969  0.00  0.00     0.270 C 
ATOM     13  N   UNL d   1      56.225   0.144  33.634  0.00  0.00    -0.269 N 
ATOM     14  C   UNL d   1      55.736   0.307  34.277  0.00  0.00     0.102 C 
ATOM     15  C   UNL d   1      57.019   0.365  33.652  0.00  0.00     0.102 C 
ATOM     16  O   UNL d   1      55.132  -0.460  32.951  0.00  0.00    -0.266 OA
ENDBRANCH   1  12
BRANCH   8  17
ATOM     17  C   UNL d   1      58.059  -1.675  30.173  0.00  0.00     0.002 C 
BRANCH  17  18
ATOM     18  C   UNL d   1      58.558  -1.837  29.538  0.00  0.00     0.000 C 
ATOM     19  C   UNL d   1      58.661  -2.614  29.282  0.00  0.00     0.000 C 
ENDBRANCH  17  18
ENDBRANCH   8  17
TORSDOF 3
ENDMDL
MODEL 2
REMARK VINA RESULT:      -3.9      1.755      3.642
REMARK  3 active torsions:
REMARK  status: ('A' for Active; 'I' for Inactive)
REMARK    1  A    between atoms: C_4  and  C_1 
REMARK       I    between atoms: N_8  and  C_4 
REMARK    2  A    between atoms: C_15  and  C_11 
REMARK    3  A    between atoms: C_12  and  C_15 
ROOT
ATOM      1  C   UNL d   1      58.175  -0.751  29.965  0.00  0.00     0.120 A 
ATOM      2  C   UNL d   1      57.750  -1.422  30.202  0.00  0.00     0.305 A 
ATOM      3  O   UNL d   1      57.286  -1.398  30.899  0.00  0.00    -0.273 OA
ATOM      4  C   UNL d   1      58.143  -0.047  30.418  0.00  0.00     0.012 A 
ATOM      5  C   UNL d   1      57.252  -0.711  31.346  0.00  0.00     0.103 A 
ATOM      6  C   UNL d   1      57.681  -0.032  31.107  0.00  0.00     0.023 A 
ATOM      7  O   UNL d   1      57.782  -2.114  29.755  0.00  0.00    -0.259 OA
ATOM      8  C   UNL d   1      56.794  -0.676  32.040  0.00  0.00     0.023 A 
ATOM      9  C   UNL d   1      57.646   0.663  31.560  0.00  0.00     0.002 A 
ATOM     10  C   UNL d   1      57.186   0.681  32.248  0.00  0.00     0.000 A 
ATOM     11  C   UNL d   1      56.762   0.016  32.487  0.00  0.00     0.002 A 
ENDROOT
BRANCH   1  12
ATOM     12  C   UNL d   1      58.631  -0.775  29.280  0.00  0.00     0.270 C 
ATOM     13  N   UNL d   1      59.447  -0.676  29.319  0.00  0.00    -0.269 N 
ATOM     14  C   UNL d   1      59.904  -0.700  28.633  0.00  0.00     0.102 C 
ATOM     15  C   UNL d   1      59.807  -0.552  30.051  0.00  0.00     0.102 C 
ATOM     16  O   UNL d   1      58.272  -0.899  28.548  0.00  0.00    -0.266 OA
ENDBRANCH   1  12
BRANCH   8  17
ATOM     17  C   UNL d   1      56.370  -1.342  32.279  0.00  0.00     0.002 C 
BRANCH  17  18
ATOM     18  C   UNL d   1      55.816  -1.283  32.886  0.00  0.00     0.000 C 
ATOM     19  C   UNL d   1      55.450  -1.961  33.178  0.00  0.00     0.000 C 
ENDBRANCH  17  18
ENDBRANCH   8  17
TORSDOF 3
ENDMDL
MODEL 3
REMARK VINA RESULT:      -3.2      1.495      2.002
REMARK  3 active torsions:
REMARK  status: ('A' for Active; 'I' for Inactive)
REMARK    1  A    between atoms: C_4  and  C_1 
REMARK       I    between atoms: N_8  and  C_4 
REMARK    2  A    between atoms: C_15  and  C_11 
REMARK    3  A    between atoms: C_12  and  C_15 
ROOT
ATOM      1  C   UNL d   1      56.984   0.132  32.234  0.00  0.00     0.120 A 
ATOM      2  C   UNL d   1      57.709   0.363  32.562  0.00  0.00     0.305 A 
ATOM      3  O   UNL d   1      58.376   0.471  32.065  0.00  0.00    -0.273 OA
ATOM      4  C   UNL d   1      56.912   0.005  31.409  0.00  0.00     0.012 A 
ATOM      5  C   UNL d   1      58.310   0.348  31.256  0.00  0.00     0.103 A 
ATOM      6  C   UNL d   1      57.577   0.114  30.925  0.00  0.00     0.023 A 
ATOM      7  O   UNL d   1      57.779   0.488  33.373  0.00  0.00    -0.259 OA
ATOM      8  C   UNL d   1      58.966   0.452  30.755  0.00  0.00     0.023 A 
ATOM      9  C   UNL d   1      57.511  -0.011  30.107  0.00  0.00     0.002 A 
ATOM     10  C   UNL d   1      58.173   0.097  29.621  0.00  0.00     0.000 A 
ATOM     11  C   UNL d   1      58.896   0.327  29.943  0.00  0.00     0.002 A 
ENDROOT
BRANCH   1  12
ATOM     12  C   UNL d   1      56.329   0.026  32.722  0.00  0.00     0.270 C 
ATOM     13  N   UNL d   1      56.033  -0.729  32.865  0.00  0.00    -0.269 N 
ATOM     14  C   UNL d   1      55.378  -0.835  33.353  0.00  0.00     0.102 C 
ATOM     15  C   UNL d   1      56.398  -1.381  32.515  0.00  0.00     0.102 C 
ATOM     16  O   UNL d   1      55.965   0.677  33.072  0.00  0.00    -0.266 OA
ENDBRANCH   1  12
BRANCH   8  17
ATOM     17  C   UNL d   1      59.690   0.682  31.077  0.00  0.00     0.002 C 
BRANCH  17  18
ATOM     18  C   UNL d   1      60.380   0.614  30.632  0.00  0.00     0.000 C 
ATOM     19  C   UNL d   1      61.115   0.681  30.998  0.00  0.00     0.000 C 
ENDBRANCH  17  18
ENDBRANCH   8  17
TORSDOF 3
ENDMDL
MODEL 4
REMARK VINA RESULT:      -2.5      9.097      9.563
REMARK  3 active torsions:
REMARK  status: ('A' for Active; 'I' for Inactive)
REMARK    1  A    between atoms: C_4  and  C_1 
REMARK       I    between atoms: N_8  and  C_4 
REMARK    2  A    between atoms: C_15  and  C_11 
REMARK    3  A    between atoms: C_12  and  C_15 
ROOT
ATOM      1  C   UNL d   1      59.998  -9.323  34.535  0.00  0.00     0.120 A 
ATOM      2  C   UNL d   1      59.194  -9.394  34.345  0.00  0.00     0.305 A 
ATOM      3  O   UNL d   1      58.963  -9.536  33.552  0.00  0.00    -0.273 OA
ATOM      4  C   UNL d   1      60.583  -9.393  33.938  0.00  0.00     0.012 A 
ATOM      5  C   UNL d   1      59.532  -9.605  32.964  0.00  0.00     0.103 A 
ATOM      6  C   UNL d   1      60.345  -9.533  33.156  0.00  0.00     0.023 A 
ATOM      7  O   UNL d   1      58.620  -9.325  34.932  0.00  0.00    -0.259 OA
ATOM      8  C   UNL d   1      59.314  -9.746  32.174  0.00  0.00     0.023 A 
ATOM      9  C   UNL d   1      60.920  -9.603  32.561  0.00  0.00     0.002 A 
ATOM     10  C   UNL d   1      60.686  -9.743  31.779  0.00  0.00     0.000 A 
ATOM     11  C   UNL d   1      59.888  -9.814  31.587  0.00  0.00     0.002 A 
ENDROOT
BRANCH   1  12
ATOM     12  C   UNL d   1      60.224  -9.184  35.314  0.00  0.00     0.270 C 
ATOM     13  N   UNL d   1      60.628  -8.494  35.514  0.00  0.00    -0.269 N 
ATOM     14  C   UNL d   1      60.855  -8.354  36.294  0.00  0.00     0.102 C 
ATOM     15  C   UNL d   1      60.804  -7.942  34.926  0.00  0.00     0.102 C 
ATOM     16  O   UNL d   1      60.048  -9.735  35.901  0.00  0.00    -0.266 OA
ENDBRANCH   1  12
BRANCH   8  17
ATOM     17  C   UNL d   1      58.515  -9.816  31.982  0.00  0.00     0.002 C 
BRANCH  17  18
ATOM     18  C   UNL d   1      58.264  -9.693  31.206  0.00  0.00     0.000 C 
ATOM     19  C   UNL d   1      57.462  -9.730  31.021  0.00  0.00     0.000 C 
ENDBRANCH  17  18
ENDBRANCH   8  17
TORSDOF 3
ENDMDL
MODEL 5
REMARK VINA RESULT:      -2.2      1.216      1.984
REMARK  3 active torsions:
REMARK  status: ('A' for Active; 'I' for Inactive)
REMARK    1  A    between atoms: C_4  and  C_1 
REMARK       I    between atoms: N_8  and  C_4 
REMARK    2  A    between atoms: C_15  and  C_11 
REMARK    3  A    between atoms: C_12  and  C_15 
ROOT
ATOM      1  C   UNL d   1      57.619  -0.448  30.750  0.00  0.00     0.120 A 
ATOM      2  C   UNL d   1      57.713  -1.265  30.644  0.00  0.00     0.305 A 
ATOM      3  O   UNL d   1      58.214  -1.553  30.037  0.00  0.00    -0.273 OA
ATOM      4  C   UNL d   1      58.024   0.093  30.253  0.00  0.00     0.012 A 
ATOM      5  C   UNL d   1      58.612  -1.027  29.549  0.00  0.00     0.103 A 
ATOM      6  C   UNL d   1      58.518  -0.201  29.656  0.00  0.00     0.023 A 
ATOM      7  O   UNL d   1      57.315  -1.797  31.133  0.00  0.00    -0.259 OA
ATOM      8  C   UNL d   1      59.112  -1.302  28.944  0.00  0.00     0.023 A 
ATOM      9  C   UNL d   1      58.920   0.331  29.161  0.00  0.00     0.002 A 
ATOM     10  C   UNL d   1      59.414   0.041  28.563  0.00  0.00     0.000 A 
ATOM     11  C   UNL d   1      59.510  -0.771  28.455  0.00  0.00     0.002 A 
ENDROOT
BRANCH   1  12
ATOM     12  C   UNL d   1      57.127  -0.166  31.346  0.00  0.00     0.270 C 
ATOM     13  N   UNL d   1      57.399   0.399  31.879  0.00  0.00    -0.269 N 
ATOM     14  C   UNL d   1      56.906   0.682  32.476  0.00  0.00     0.102 C 
ATOM     15  C   UNL d   1      58.171   0.682  31.812  0.00  0.00     0.102 C 
ATOM     16  O   UNL d   1      56.356  -0.449  31.413  0.00  0.00    -0.266 OA
ENDBRANCH   1  12
BRANCH   8  17
ATOM     17  C   UNL d   1      59.208  -2.114  28.835  0.00  0.00     0.002 C 
BRANCH  17  18
ATOM     18  C   UNL d   1      59.883  -2.405  28.463  0.00  0.00     0.000 C 
ATOM     19  C   UNL d   1      60.076  -3.203  28.523  0.00  0.00     0.000 C 
ENDBRANCH  17  18
ENDBRANCH   8  17
TORSDOF 3
ENDMDL
