MODEL 1
REMARK VINA RESULT:      -8.7      0.000      0.000
REMARK  1 active torsions:
REMARK  status: ('A' for Active; 'I' for Inactive)
REMARK    1  A    between atoms: C_14  and  C_6 
ROOT
ATOM      1  C   UNL d   1     -49.006  12.264  23.354  0.00  0.00     0.174 A 
ATOM      2  N   UNL d   1     -49.752  12.614  23.405  0.00  0.00    -0.250 N 
ATOM      3  C   UNL d   1     -48.333  12.708  23.159  0.00  0.00     0.061 A 
ATOM      4  C   UNL d   1     -48.412  13.517  23.015  0.00  0.00     0.115 A 
ATOM      5  N   UNL d   1     -49.161  13.851  23.070  0.00  0.00    -0.221 NA
ATOM      6  C   UNL d   1     -49.831  13.422  23.261  0.00  0.00     0.151 A 
ATOM      7  N   UNL d   1     -49.108  11.413  23.535  0.00  0.00    -0.128 NA
ATOM      8  C   UNL d   1     -50.351  12.007  23.619  0.00  0.00     0.228 A 
ATOM      9  S   UNL d   1     -47.748  13.945  22.826  0.00  0.00    -0.068 SA
ATOM     10  C   UNL d   1     -46.942  12.801  22.918  0.00  0.00     0.011 A 
ATOM     11  C   UNL d   1     -47.021  13.610  22.774  0.00  0.00     0.031 A 
ATOM     12  N   UNL d   1     -49.916  11.275  23.692  0.00  0.00    -0.117 NA
ATOM     13  S   UNL d   1     -51.064  12.190  23.698  0.00  0.00    -0.036 SA
ATOM     14  C   UNL d   1     -46.180  12.452  22.864  0.00  0.00     0.001 A 
ATOM     15  C   UNL d   1     -46.335  14.039  22.581  0.00  0.00     0.006 A 
ATOM     16  C   UNL d   1     -45.523  12.896  22.673  0.00  0.00     0.000 A 
ATOM     17  C   UNL d   1     -45.602  13.704  22.528  0.00  0.00     0.001 A 
ENDROOT
BRANCH   6  18
ATOM     18  C   UNL d   1     -50.414  13.736  23.294  0.00  0.00     0.037 C 
ATOM     19  C   UNL d   1     -50.591  14.370  23.242  0.00  0.00     0.003 C 
ENDBRANCH   6  18
TORSDOF 1
ENDMDL
MODEL 2
REMARK VINA RESULT:      -8.3      1.525      3.747
REMARK  1 active torsions:
REMARK  status: ('A' for Active; 'I' for Inactive)
REMARK    1  A    between atoms: C_14  and  C_6 
ROOT
ATOM      1  C   UNL d   1     -47.464  13.850  23.001  0.00  0.00     0.174 A 
ATOM      2  N   UNL d   1     -47.145  13.091  23.052  0.00  0.00    -0.250 N 
ATOM      3  C   UNL d   1     -48.276  13.985  23.108  0.00  0.00     0.061 A 
ATOM      4  C   UNL d   1     -48.773  13.347  23.270  0.00  0.00     0.115 A 
ATOM      5  N   UNL d   1     -48.440  12.597  23.319  0.00  0.00    -0.221 NA
ATOM      6  C   UNL d   1     -47.642  12.453  23.215  0.00  0.00     0.151 A 
ATOM      7  N   UNL d   1     -46.802  14.396  22.825  0.00  0.00    -0.128 NA
ATOM      8  C   UNL d   1     -46.277  13.123  22.914  0.00  0.00     0.228 A 
ATOM      9  S   UNL d   1     -49.566  13.488  23.374  0.00  0.00    -0.068 SA
ATOM     10  C   UNL d   1     -49.385  14.863  23.163  0.00  0.00     0.011 A 
ATOM     11  C   UNL d   1     -49.882  14.224  23.325  0.00  0.00     0.031 A 
ATOM     12  N   UNL d   1     -46.100  13.948  22.776  0.00  0.00    -0.117 NA
ATOM     13  S   UNL d   1     -45.867  12.507  22.933  0.00  0.00    -0.036 SA
ATOM     14  C   UNL d   1     -49.717  15.632  23.111  0.00  0.00     0.001 A 
ATOM     15  C   UNL d   1     -50.692  14.379  23.429  0.00  0.00     0.006 A 
ATOM     16  C   UNL d   1     -50.516  15.757  23.218  0.00  0.00     0.000 A 
ATOM     17  C   UNL d   1     -51.012  15.119  23.380  0.00  0.00     0.001 A 
ENDROOT
BRANCH   6  18
ATOM     18  C   UNL d   1     -47.419  11.830  23.263  0.00  0.00     0.037 C 
ATOM     19  C   UNL d   1     -47.698  11.263  23.454  0.00  0.00     0.003 C 
ENDBRANCH   6  18
TORSDOF 1
ENDMDL
MODEL 3
REMARK VINA RESULT:      -8.2      1.087      1.487
REMARK  1 active torsions:
REMARK  status: ('A' for Active; 'I' for Inactive)
REMARK    1  A    between atoms: C_14  and  C_6 
ROOT
ATOM      1  C   UNL d   1     -49.432  13.058  23.401  0.00  0.00     0.174 A 
ATOM      2  N   UNL d   1     -49.765  13.781  23.184  0.00  0.00    -0.250 N 
ATOM      3  C   UNL d   1     -48.617  12.919  23.333  0.00  0.00     0.061 A 
ATOM      4  C   UNL d   1     -48.130  13.518  23.042  0.00  0.00     0.115 A 
ATOM      5  N   UNL d   1     -48.476  14.233  22.831  0.00  0.00    -0.221 NA
ATOM      6  C   UNL d   1     -49.278  14.380  22.893  0.00  0.00     0.151 A 
ATOM      7  N   UNL d   1     -50.087  12.548  23.683  0.00  0.00    -0.128 NA
ATOM      8  C   UNL d   1     -50.634  13.761  23.318  0.00  0.00     0.228 A 
ATOM      9  S   UNL d   1     -47.333  13.375  22.979  0.00  0.00    -0.068 SA
ATOM     10  C   UNL d   1     -47.492  12.074  23.479  0.00  0.00     0.011 A 
ATOM     11  C   UNL d   1     -47.004  12.673  23.188  0.00  0.00     0.031 A 
ATOM     12  N   UNL d   1     -50.798  12.981  23.627  0.00  0.00    -0.117 NA
ATOM     13  S   UNL d   1     -51.055  14.350  23.163  0.00  0.00    -0.036 SA
ATOM     14  C   UNL d   1     -47.146  11.341  23.697  0.00  0.00     0.001 A 
ATOM     15  C   UNL d   1     -46.190  12.517  23.127  0.00  0.00     0.006 A 
ATOM     16  C   UNL d   1     -46.344  11.213  23.628  0.00  0.00     0.000 A 
ATOM     17  C   UNL d   1     -45.856  11.812  23.337  0.00  0.00     0.001 A 
ENDROOT
BRANCH   6  18
ATOM     18  C   UNL d   1     -49.511  14.973  22.710  0.00  0.00     0.037 C 
ATOM     19  C   UNL d   1     -49.221  15.546  22.559  0.00  0.00     0.003 C 
ENDBRANCH   6  18
TORSDOF 1
ENDMDL
MODEL 4
REMARK VINA RESULT:      -8.0      1.406      3.594
REMARK  1 active torsions:
REMARK  status: ('A' for Active; 'I' for Inactive)
REMARK    1  A    between atoms: C_14  and  C_6 
ROOT
ATOM      1  C   UNL d   1     -47.403  11.949  23.410  0.00  0.00     0.174 A 
ATOM      2  N   UNL d   1     -46.720  12.359  23.194  0.00  0.00    -0.250 N 
ATOM      3  C   UNL d   1     -48.154  12.292  23.336  0.00  0.00     0.061 A 
ATOM      4  C   UNL d   1     -48.220  13.059  23.041  0.00  0.00     0.115 A 
ATOM      5  N   UNL d   1     -47.531  13.455  22.830  0.00  0.00    -0.221 NA
ATOM      6  C   UNL d   1     -46.785  13.127  22.899  0.00  0.00     0.151 A 
ATOM      7  N   UNL d   1     -47.149  11.161  23.698  0.00  0.00    -0.128 NA
ATOM      8  C   UNL d   1     -46.013  11.855  23.334  0.00  0.00     0.228 A 
ATOM      9  S   UNL d   1     -48.959  13.388  22.972  0.00  0.00    -0.068 SA
ATOM     10  C   UNL d   1     -49.561  12.225  23.476  0.00  0.00     0.011 A 
ATOM     11  C   UNL d   1     -49.626  12.993  23.180  0.00  0.00     0.031 A 
ATOM     12  N   UNL d   1     -46.317  11.120  23.647  0.00  0.00    -0.117 NA
ATOM     13  S   UNL d   1     -45.333  12.106  23.181  0.00  0.00    -0.036 SA
ATOM     14  C   UNL d   1     -50.259  11.814  23.693  0.00  0.00     0.001 A 
ATOM     15  C   UNL d   1     -50.388  13.321  23.114  0.00  0.00     0.006 A 
ATOM     16  C   UNL d   1     -50.995  12.158  23.618  0.00  0.00     0.000 A 
ATOM     17  C   UNL d   1     -51.061  12.926  23.323  0.00  0.00     0.001 A 
ENDROOT
BRANCH   6  18
ATOM     18  C   UNL d   1     -46.258  13.485  22.716  0.00  0.00     0.037 C 
ATOM     19  C   UNL d   1     -46.176  14.121  22.560  0.00  0.00     0.003 C 
ENDBRANCH   6  18
TORSDOF 1
ENDMDL
MODEL 5
REMARK VINA RESULT:      -6.7      1.911      3.092
REMARK  1 active torsions:
REMARK  status: ('A' for Active; 'I' for Inactive)
REMARK    1  A    between atoms: C_14  and  C_6 
ROOT
ATOM      1  C   UNL d   1     -46.544  13.115  23.018  0.00  0.00     0.174 A 
ATOM      2  N   UNL d   1     -47.350  13.261  23.120  0.00  0.00    -0.250 N 
ATOM      3  C   UNL d   1     -46.214  12.373  23.188  0.00  0.00     0.061 A 
ATOM      4  C   UNL d   1     -46.703  11.769  23.466  0.00  0.00     0.115 A 
ATOM      5  N   UNL d   1     -47.503  11.930  23.563  0.00  0.00    -0.221 NA
ATOM      6  C   UNL d   1     -47.838  12.657  23.398  0.00  0.00     0.151 A 
ATOM      7  N   UNL d   1     -46.184  13.857  22.721  0.00  0.00    -0.128 NA
ATOM      8  C   UNL d   1     -47.532  14.091  22.895  0.00  0.00     0.228 A 
ATOM      9  S   UNL d   1     -46.372  11.046  23.630  0.00  0.00    -0.068 SA
ATOM     10  C   UNL d   1     -45.101  11.502  23.255  0.00  0.00     0.011 A 
ATOM     11  C   UNL d   1     -45.590  10.899  23.532  0.00  0.00     0.031 A 
ATOM     12  N   UNL d   1     -46.786  14.430  22.653  0.00  0.00    -0.117 NA
ATOM     13  S   UNL d   1     -48.224  14.353  22.941  0.00  0.00    -0.036 SA
ATOM     14  C   UNL d   1     -44.282  11.347  23.153  0.00  0.00     0.001 A 
ATOM     15  C   UNL d   1     -45.242  10.162  23.698  0.00  0.00     0.006 A 
ATOM     16  C   UNL d   1     -43.965  10.614  23.323  0.00  0.00     0.000 A 
ATOM     17  C   UNL d   1     -44.454  10.011  23.600  0.00  0.00     0.001 A 
ENDROOT
BRANCH   6  18
ATOM     18  C   UNL d   1     -48.490  12.740  23.492  0.00  0.00     0.037 C 
ATOM     19  C   UNL d   1     -48.988  12.320  23.600  0.00  0.00     0.003 C 
ENDBRANCH   6  18
TORSDOF 1
ENDMDL
MODEL 6
REMARK VINA RESULT:      -6.5      8.973     10.622
REMARK  1 active torsions:
REMARK  status: ('A' for Active; 'I' for Inactive)
REMARK    1  A    between atoms: C_14  and  C_6 
ROOT
ATOM      1  C   UNL d   1     -39.354  13.945  18.009  0.00  0.00     0.174 A 
ATOM      2  N   UNL d   1     -39.036  14.238  17.307  0.00  0.00    -0.250 N 
ATOM      3  C   UNL d   1     -39.751  14.440  18.544  0.00  0.00     0.061 A 
ATOM      4  C   UNL d   1     -39.829  15.242  18.368  0.00  0.00     0.115 A 
ATOM      5  N   UNL d   1     -39.506  15.519  17.664  0.00  0.00    -0.221 NA
ATOM      6  C   UNL d   1     -39.113  15.040  17.131  0.00  0.00     0.151 A 
ATOM      7  N   UNL d   1     -39.181  13.086  18.032  0.00  0.00    -0.128 NA
ATOM      8  C   UNL d   1     -38.652  13.585  16.860  0.00  0.00     0.228 A 
ATOM      9  S   UNL d   1     -40.219  15.721  18.896  0.00  0.00    -0.068 SA
ATOM     10  C   UNL d   1     -40.453  14.638  19.756  0.00  0.00     0.011 A 
ATOM     11  C   UNL d   1     -40.530  15.441  19.580  0.00  0.00     0.031 A 
ATOM     12  N   UNL d   1     -38.762  12.886  17.339  0.00  0.00    -0.117 NA
ATOM     13  S   UNL d   1     -38.325  13.714  16.207  0.00  0.00    -0.036 SA
ATOM     14  C   UNL d   1     -40.780  14.348  20.472  0.00  0.00     0.001 A 
ATOM     15  C   UNL d   1     -40.931  15.922  20.127  0.00  0.00     0.006 A 
ATOM     16  C   UNL d   1     -41.169  14.841  20.993  0.00  0.00     0.000 A 
ATOM     17  C   UNL d   1     -41.246  15.643  20.817  0.00  0.00     0.001 A 
ENDROOT
BRANCH   6  18
ATOM     18  C   UNL d   1     -38.869  15.309  16.576  0.00  0.00     0.037 C 
ATOM     19  C   UNL d   1     -38.875  15.922  16.330  0.00  0.00     0.003 C 
ENDBRANCH   6  18
TORSDOF 1
ENDMDL
MODEL 7
REMARK VINA RESULT:      -6.3      1.470      3.834
REMARK  1 active torsions:
REMARK  status: ('A' for Active; 'I' for Inactive)
REMARK    1  A    between atoms: C_14  and  C_6 
ROOT
ATOM      1  C   UNL d   1     -48.452  14.293  22.607  0.00  0.00     0.174 A 
ATOM      2  N   UNL d   1     -47.634  14.403  22.585  0.00  0.00    -0.250 N 
ATOM      3  C   UNL d   1     -48.785  13.582  22.874  0.00  0.00     0.061 A 
ATOM      4  C   UNL d   1     -48.288  12.973  23.124  0.00  0.00     0.115 A 
ATOM      5  N   UNL d   1     -47.476  13.098  23.097  0.00  0.00    -0.221 NA
ATOM      6  C   UNL d   1     -47.137  13.794  22.835  0.00  0.00     0.151 A 
ATOM      7  N   UNL d   1     -48.819  15.031  22.310  0.00  0.00    -0.128 NA
ATOM      8  C   UNL d   1     -47.451  15.206  22.278  0.00  0.00     0.228 A 
ATOM      9  S   UNL d   1     -48.622  12.280  23.385  0.00  0.00    -0.068 SA
ATOM     10  C   UNL d   1     -49.914  12.777  23.158  0.00  0.00     0.011 A 
ATOM     11  C   UNL d   1     -49.416  12.168  23.408  0.00  0.00     0.031 A 
ATOM     12  N   UNL d   1     -48.209  15.567  22.117  0.00  0.00    -0.117 NA
ATOM     13  S   UNL d   1     -46.749  15.434  22.207  0.00  0.00    -0.036 SA
ATOM     14  C   UNL d   1     -50.744  12.658  23.183  0.00  0.00     0.001 A 
ATOM     15  C   UNL d   1     -49.768  11.462  23.673  0.00  0.00     0.006 A 
ATOM     16  C   UNL d   1     -51.064  11.956  23.448  0.00  0.00     0.000 A 
ATOM     17  C   UNL d   1     -50.567  11.347  23.697  0.00  0.00     0.001 A 
ENDROOT
BRANCH   6  18
ATOM     18  C   UNL d   1     -46.476  13.849  22.831  0.00  0.00     0.037 C 
ATOM     19  C   UNL d   1     -45.986  13.407  22.823  0.00  0.00     0.003 C 
ENDBRANCH   6  18
TORSDOF 1
ENDMDL
MODEL 8
REMARK VINA RESULT:      -5.8      9.468     10.142
REMARK  1 active torsions:
REMARK  status: ('A' for Active; 'I' for Inactive)
REMARK    1  A    between atoms: C_14  and  C_6 
ROOT
ATOM      1  C   UNL d   1     -39.952  15.365  20.320  0.00  0.00     0.174 A 
ATOM      2  N   UNL d   1     -39.423  14.944  20.794  0.00  0.00    -0.250 N 
ATOM      3  C   UNL d   1     -40.006  15.224  19.504  0.00  0.00     0.061 A 
ATOM      4  C   UNL d   1     -39.520  14.652  19.161  0.00  0.00     0.115 A 
ATOM      5  N   UNL d   1     -38.999  14.242  19.647  0.00  0.00    -0.221 NA
ATOM      6  C   UNL d   1     -38.938  14.372  20.451  0.00  0.00     0.151 A 
ATOM      7  N   UNL d   1     -40.380  15.922  20.843  0.00  0.00    -0.128 NA
ATOM      8  C   UNL d   1     -39.493  15.214  21.628  0.00  0.00     0.228 A 
ATOM      9  S   UNL d   1     -39.579  14.520  18.362  0.00  0.00    -0.068 SA
ATOM     10  C   UNL d   1     -40.577  15.498  18.239  0.00  0.00     0.011 A 
ATOM     11  C   UNL d   1     -40.091  14.926  17.896  0.00  0.00     0.031 A 
ATOM     12  N   UNL d   1     -40.095  15.821  21.621  0.00  0.00    -0.117 NA
ATOM     13  S   UNL d   1     -39.072  14.915  22.159  0.00  0.00    -0.036 SA
ATOM     14  C   UNL d   1     -41.112  15.922  17.750  0.00  0.00     0.001 A 
ATOM     15  C   UNL d   1     -40.159  14.799  17.077  0.00  0.00     0.006 A 
ATOM     16  C   UNL d   1     -41.159  15.778  16.949  0.00  0.00     0.000 A 
ATOM     17  C   UNL d   1     -40.674  15.206  16.605  0.00  0.00     0.001 A 
ENDROOT
BRANCH   6  18
ATOM     18  C   UNL d   1     -38.503  14.016  20.803  0.00  0.00     0.037 C 
ATOM     19  C   UNL d   1     -38.081  13.533  20.644  0.00  0.00     0.003 C 
ENDBRANCH   6  18
TORSDOF 1
ENDMDL
MODEL 9
REMARK VINA RESULT:      -5.7      9.458     10.109
REMARK  1 active torsions:
REMARK  status: ('A' for Active; 'I' for Inactive)
REMARK    1  A    between atoms: C_14  and  C_6 
ROOT
ATOM      1  C   UNL d   1     -39.087  14.371  19.841  0.00  0.00     0.174 A 
ATOM      2  N   UNL d   1     -39.064  14.592  20.636  0.00  0.00    -0.250 N 
ATOM      3  C   UNL d   1     -39.580  14.760  19.299  0.00  0.00     0.061 A 
ATOM      4  C   UNL d   1     -40.057  15.379  19.561  0.00  0.00     0.115 A 
ATOM      5  N   UNL d   1     -40.023  15.587  20.356  0.00  0.00    -0.221 NA
ATOM      6  C   UNL d   1     -39.541  15.211  20.898  0.00  0.00     0.151 A 
ATOM      7  N   UNL d   1     -38.525  13.706  19.742  0.00  0.00    -0.128 NA
ATOM      8  C   UNL d   1     -38.493  14.082  21.069  0.00  0.00     0.228 A 
ATOM      9  S   UNL d   1     -40.538  15.755  19.024  0.00  0.00    -0.068 SA
ATOM     10  C   UNL d   1     -40.087  14.924  17.988  0.00  0.00     0.011 A 
ATOM     11  C   UNL d   1     -40.564  15.544  18.250  0.00  0.00     0.031 A 
ATOM     12  N   UNL d   1     -38.178  13.545  20.483  0.00  0.00    -0.117 NA
ATOM     13  S   UNL d   1     -38.376  14.176  21.794  0.00  0.00    -0.036 SA
ATOM     14  C   UNL d   1     -40.116  14.706  17.178  0.00  0.00     0.001 A 
ATOM     15  C   UNL d   1     -41.052  15.922  17.693  0.00  0.00     0.006 A 
ATOM     16  C   UNL d   1     -40.604  15.092  16.651  0.00  0.00     0.000 A 
ATOM     17  C   UNL d   1     -41.081  15.712  16.914  0.00  0.00     0.001 A 
ENDROOT
BRANCH   6  18
ATOM     18  C   UNL d   1     -39.547  15.414  21.529  0.00  0.00     0.037 C 
ATOM     19  C   UNL d   1     -39.837  15.921  21.838  0.00  0.00     0.003 C 
ENDBRANCH   6  18
TORSDOF 1
ENDMDL
