MODEL 1
REMARK VINA RESULT:      -3.1      0.000      0.000
REMARK  8 active torsions:
REMARK  status: ('A' for Active; 'I' for Inactive)
REMARK    1  A    between atoms: C_2  and  S_1 
REMARK    2  A    between atoms: N_8  and  S_1 
REMARK    3  A    between atoms: C_13  and  N_8 
REMARK    4  A    between atoms: N_9  and  C_14 
REMARK    5  A    between atoms: O_15  and  C_10 
REMARK    6  A    between atoms: C_14  and  C_13 
REMARK    7  A    between atoms: C_22  and  O_15 
REMARK    8  A    between atoms: C_23  and  C_22 
ROOT
ATOM      1  C   UNL d   1      58.419  -0.651  30.017  0.00  0.00     0.105 A 
ATOM      2  C   UNL d   1      59.017  -0.384  29.515  0.00  0.00     0.014 A 
ATOM      3  C   UNL d   1      59.429  -0.918  29.039  0.00  0.00     0.024 A 
ATOM      4  C   UNL d   1      58.232  -1.447  30.043  0.00  0.00     0.015 A 
ATOM      5  C   UNL d   1      59.236  -1.725  29.069  0.00  0.00     0.100 A 
ATOM      6  C   UNL d   1      58.641  -1.985  29.569  0.00  0.00     0.025 A 
ATOM      7  C   UNL d   1      59.203   0.412  29.489  0.00  0.00     0.001 A 
ATOM      8  C   UNL d   1      60.023  -0.652  28.541  0.00  0.00     0.002 A 
ATOM      9  C   UNL d   1      59.797   0.682  28.992  0.00  0.00     0.000 A 
ATOM     10  C   UNL d   1      60.212   0.149  28.513  0.00  0.00     0.000 A 
ENDROOT
BRANCH   1  11
ATOM     11  S   UNL d   1      58.010  -0.113  30.491  0.00  0.00     0.285 S 
ATOM     12  O   UNL d   1      57.385  -0.118  29.960  0.00  0.00    -0.198 OA
ATOM     13  O   UNL d   1      58.640  -0.107  31.029  0.00  0.00    -0.198 OA
BRANCH  11  14
ATOM     14  N   UNL d   1      57.601   0.424  30.965  0.00  0.00    -0.155 NA
BRANCH  14  15
ATOM     15  C   UNL d   1      57.109   0.144  31.568  0.00  0.00     0.131 C 
BRANCH  15  16
ATOM     16  C   UNL d   1      56.708   0.682  32.050  0.00  0.00     0.102 C 
BRANCH  16  17
ATOM     17  N   UNL d   1      56.353   0.425  32.744  0.00  0.00    -0.298 N 
ATOM     18  C   UNL d   1      56.760   0.470  33.458  0.00  0.00     0.107 A 
ATOM     19  C   UNL d   1      56.404   0.213  34.158  0.00  0.00     0.142 A 
ATOM     20  O   UNL d   1      55.637  -0.091  34.140  0.00  0.00    -0.300 OA
ATOM     21  C   UNL d   1      55.226  -0.137  33.423  0.00  0.00     0.142 A 
ATOM     22  C   UNL d   1      55.585   0.121  32.726  0.00  0.00     0.107 A 
ENDBRANCH  16  17
ENDBRANCH  15  16
ENDBRANCH  14  15
ENDBRANCH  11  14
ENDBRANCH   1  11
BRANCH   5  23
ATOM     23  O   UNL d   1      59.644  -2.261  28.596  0.00  0.00    -0.305 OA
BRANCH  23  24
ATOM     24  C   UNL d   1      59.572  -3.066  28.729  0.00  0.00     0.123 C 
BRANCH  24  25
ATOM     25  C   UNL d   1      60.150  -3.585  28.457  0.00  0.00     0.027 C 
ATOM     26  C   UNL d   1      60.010  -4.399  28.457  0.00  0.00     0.002 C 
ENDBRANCH  24  25
ENDBRANCH  23  24
ENDBRANCH   5  23
TORSDOF 8
ENDMDL
MODEL 2
REMARK VINA RESULT:      -0.7      1.192      5.273
REMARK  8 active torsions:
REMARK  status: ('A' for Active; 'I' for Inactive)
REMARK    1  A    between atoms: C_2  and  S_1 
REMARK    2  A    between atoms: N_8  and  S_1 
REMARK    3  A    between atoms: C_13  and  N_8 
REMARK    4  A    between atoms: N_9  and  C_14 
REMARK    5  A    between atoms: O_15  and  C_10 
REMARK    6  A    between atoms: C_14  and  C_13 
REMARK    7  A    between atoms: C_22  and  O_15 
REMARK    8  A    between atoms: C_23  and  C_22 
ROOT
ATOM      1  C   UNL d   1      57.027  -0.030  31.550  0.00  0.00     0.105 A 
ATOM      2  C   UNL d   1      57.492   0.207  32.188  0.00  0.00     0.014 A 
ATOM      3  C   UNL d   1      57.153   0.316  32.933  0.00  0.00     0.024 A 
ATOM      4  C   UNL d   1      56.225  -0.159  31.654  0.00  0.00     0.015 A 
ATOM      5  C   UNL d   1      56.340   0.184  33.033  0.00  0.00     0.100 A 
ATOM      6  C   UNL d   1      55.881  -0.052  32.397  0.00  0.00     0.025 A 
ATOM      7  C   UNL d   1      58.293   0.335  32.083  0.00  0.00     0.001 A 
ATOM      8  C   UNL d   1      57.616   0.552  33.566  0.00  0.00     0.002 A 
ATOM      9  C   UNL d   1      58.761   0.572  32.715  0.00  0.00     0.000 A 
ATOM     10  C   UNL d   1      58.424   0.682  33.463  0.00  0.00     0.000 A 
ENDROOT
BRANCH   1  11
ATOM     11  S   UNL d   1      57.371  -0.138  30.807  0.00  0.00     0.285 S 
ATOM     12  O   UNL d   1      57.145  -0.926  30.816  0.00  0.00    -0.198 OA
ATOM     13  O   UNL d   1      57.600   0.659  30.797  0.00  0.00    -0.198 OA
BRANCH  11  14
ATOM     14  N   UNL d   1      57.714  -0.245  30.065  0.00  0.00    -0.155 NA
BRANCH  14  15
ATOM     15  C   UNL d   1      58.320  -0.801  29.973  0.00  0.00     0.131 C 
BRANCH  15  16
ATOM     16  C   UNL d   1      58.595  -0.982  29.215  0.00  0.00     0.102 C 
BRANCH  16  17
ATOM     17  N   UNL d   1      59.137  -1.589  29.109  0.00  0.00    -0.298 N 
ATOM     18  C   UNL d   1      59.943  -1.442  29.185  0.00  0.00     0.107 A 
ATOM     19  C   UNL d   1      60.491  -2.051  29.079  0.00  0.00     0.142 A 
ATOM     20  O   UNL d   1      60.227  -2.812  28.896  0.00  0.00    -0.300 OA
ATOM     21  C   UNL d   1      59.416  -2.962  28.820  0.00  0.00     0.142 A 
ATOM     22  C   UNL d   1      58.873  -2.350  28.927  0.00  0.00     0.107 A 
ENDBRANCH  16  17
ENDBRANCH  15  16
ENDBRANCH  14  15
ENDBRANCH  11  14
ENDBRANCH   1  11
BRANCH   5  23
ATOM     23  O   UNL d   1      55.997   0.291  33.775  0.00  0.00    -0.305 OA
BRANCH  23  24
ATOM     24  C   UNL d   1      55.187   0.394  33.843  0.00  0.00     0.123 C 
BRANCH  24  25
ATOM     25  C   UNL d   1      54.826   0.362  34.582  0.00  0.00     0.027 C 
ATOM     26  C   UNL d   1      54.071   0.681  34.688  0.00  0.00     0.002 C 
ENDBRANCH  24  25
ENDBRANCH  23  24
ENDBRANCH   5  23
TORSDOF 8
ENDMDL
