MODEL 1
REMARK VINA RESULT:      65.8      0.000      0.000
REMARK  4 active torsions:
REMARK  status: ('A' for Active; 'I' for Inactive)
REMARK    1  A    between atoms: C_8  and  C_1 
REMARK    2  A    between atoms: C_10  and  C_7 
REMARK    3  A    between atoms: N_9  and  C_10 
REMARK    4  A    between atoms: O_23  and  C_15 
ROOT
ATOM      1  C   UNL d   1     -50.939  25.461  33.370  0.00  0.00     0.064 A 
ATOM      2  C   UNL d   1     -50.287  26.982  33.413  0.00  0.00     0.107 A 
ATOM      3  C   UNL d   1     -51.431  26.124  33.349  0.00  0.00     0.199 A 
ATOM      4  C   UNL d   1     -51.107  26.888  33.370  0.00  0.00     0.062 A 
ATOM      5  C   UNL d   1     -50.110  25.557  33.413  0.00  0.00     0.103 A 
ATOM      6  O   UNL d   1     -49.783  26.322  33.434  0.00  0.00    -0.307 OA
ATOM      7  C   UNL d   1     -49.959  27.740  33.434  0.00  0.00     0.079 A 
ATOM      8  C   UNL d   1     -51.595  27.551  33.350  0.00  0.00     0.009 A 
ATOM      9  C   UNL d   1     -50.449  28.393  33.413  0.00  0.00     0.199 A 
ATOM     10  O   UNL d   1     -52.242  26.030  33.308  0.00  0.00    -0.286 OA
ATOM     11  C   UNL d   1     -51.270  28.298  33.371  0.00  0.00     0.042 A 
ATOM     12  C   UNL d   1     -49.618  24.895  33.434  0.00  0.00     0.027 C 
ATOM     13  O   UNL d   1     -50.122  29.157  33.434  0.00  0.00    -0.286 OA
ENDROOT
BRANCH   1  14
ATOM     14  C   UNL d   1     -51.267  24.705  33.349  0.00  0.00     0.027 A 
ATOM     15  C   UNL d   1     -52.089  24.610  33.332  0.00  0.00     0.094 A 
ATOM     16  C   UNL d   1     -52.408  23.851  33.311  0.00  0.00     0.024 A 
ATOM     17  C   UNL d   1     -51.915  23.189  33.306  0.00  0.00     0.002 A 
ATOM     18  C   UNL d   1     -51.095  23.288  33.323  0.00  0.00     0.000 A 
ATOM     19  C   UNL d   1     -50.766  24.044  33.345  0.00  0.00     0.002 A 
BRANCH  15  20
ATOM     20  O   UNL d   1     -52.581  25.272  33.336  0.00  0.00    -0.328 OA
ATOM     21  C   UNL d   1     -53.402  25.173  33.353  0.00  0.00     0.181 C 
ENDBRANCH  15  20
ENDBRANCH   1  14
BRANCH   7  22
ATOM     22  C   UNL d   1     -49.138  27.834  33.476  0.00  0.00     0.086 C 
BRANCH  22  23
ATOM     23  N   UNL d   1     -48.804  28.266  34.093  0.00  0.00    -0.300 N 
ATOM     24  C   UNL d   1     -48.615  27.891  34.803  0.00  0.00     0.100 A 
ATOM     25  C   UNL d   1     -48.276  28.323  35.432  0.00  0.00     0.100 A 
ATOM     26  N   UNL d   1     -48.130  29.124  35.340  0.00  0.00    -0.299 N 
ATOM     27  C   UNL d   1     -48.322  29.499  34.618  0.00  0.00     0.100 A 
ATOM     28  C   UNL d   1     -47.796  29.563  35.950  0.00  0.00     0.100 C 
ATOM     29  C   UNL d   1     -48.658  29.067  34.001  0.00  0.00     0.100 A 
ENDBRANCH  22  23
ENDBRANCH   7  22
TORSDOF 4
ENDMDL
