MODEL 1
REMARK VINA RESULT:      -5.7      0.000      0.000
REMARK  2 active torsions:
REMARK  status: ('A' for Active; 'I' for Inactive)
REMARK    1  A    between atoms: C_6  and  C_2 
REMARK    2  A    between atoms: O_13  and  C_10 
ROOT
ATOM      1  C   UNL d   1      56.552  -0.228  32.127  0.00  0.00     0.026 A 
ATOM      2  C   UNL d   1      56.262  -0.899  32.520  0.00  0.00     0.004 A 
ATOM      3  C   UNL d   1      56.334   0.512  32.395  0.00  0.00     0.004 A 
ATOM      4  C   UNL d   1      55.552  -0.072  33.424  0.00  0.00     0.094 A 
ATOM      5  C   UNL d   1      55.764  -0.830  33.164  0.00  0.00     0.024 A 
ATOM      6  C   UNL d   1      55.825   0.593  33.054  0.00  0.00     0.024 A 
ENDROOT
BRANCH   1   7
ATOM      7  C   UNL d   1      57.054  -0.306  31.477  0.00  0.00     0.135 A 
ATOM      8  S   UNL d   1      57.470   0.300  31.109  0.00  0.00    -0.024 SA
ATOM      9  C   UNL d   1      57.896  -0.019  30.493  0.00  0.00     0.236 A 
ATOM     10  N   UNL d   1      57.753  -0.833  30.466  0.00  0.00    -0.119 NA
ATOM     11  N   UNL d   1      58.389   0.398  29.979  0.00  0.00    -0.118 N 
ATOM     12  N   UNL d   1      57.227  -1.012  31.080  0.00  0.00    -0.139 NA
ENDBRANCH   1   7
BRANCH   4  13
ATOM     13  O   UNL d   1      55.051  -0.003  34.072  0.00  0.00    -0.328 OA
ATOM     14  C   UNL d   1      55.056   0.680  34.531  0.00  0.00     0.181 C 
ENDBRANCH   4  13
TORSDOF 2
ENDMDL
MODEL 2
REMARK VINA RESULT:      -5.5      2.524      3.556
REMARK  2 active torsions:
REMARK  status: ('A' for Active; 'I' for Inactive)
REMARK    1  A    between atoms: C_6  and  C_2 
REMARK    2  A    between atoms: O_13  and  C_10 
ROOT
ATOM      1  C   UNL d   1      56.050   0.031  32.757  0.00  0.00     0.026 A 
ATOM      2  C   UNL d   1      56.160  -0.773  32.585  0.00  0.00     0.004 A 
ATOM      3  C   UNL d   1      56.423   0.590  32.292  0.00  0.00     0.004 A 
ATOM      4  C   UNL d   1      57.005  -0.432  31.500  0.00  0.00     0.094 A 
ATOM      5  C   UNL d   1      56.633  -1.011  31.962  0.00  0.00     0.024 A 
ATOM      6  C   UNL d   1      56.909   0.355  31.653  0.00  0.00     0.024 A 
ENDROOT
BRANCH   1   7
ATOM      7  C   UNL d   1      55.571   0.264  33.387  0.00  0.00     0.135 A 
ATOM      8  S   UNL d   1      55.795   0.309  34.176  0.00  0.00    -0.024 SA
ATOM      9  C   UNL d   1      55.154   0.563  34.611  0.00  0.00     0.236 A 
ATOM     10  N   UNL d   1      54.517   0.681  34.097  0.00  0.00    -0.119 NA
ATOM     11  N   UNL d   1      55.140   0.682  35.427  0.00  0.00    -0.118 N 
ATOM     12  N   UNL d   1      54.777   0.495  33.333  0.00  0.00    -0.139 NA
ENDBRANCH   1   7
BRANCH   4  13
ATOM     13  O   UNL d   1      57.480  -0.674  30.875  0.00  0.00    -0.328 OA
ATOM     14  C   UNL d   1      57.960  -0.131  30.484  0.00  0.00     0.181 C 
ENDBRANCH   4  13
TORSDOF 2
ENDMDL
MODEL 3
REMARK VINA RESULT:      -4.8      2.402      3.577
REMARK  2 active torsions:
REMARK  status: ('A' for Active; 'I' for Inactive)
REMARK    1  A    between atoms: C_6  and  C_2 
REMARK    2  A    between atoms: O_13  and  C_10 
ROOT
ATOM      1  C   UNL d   1      56.679   0.114  32.464  0.00  0.00     0.026 A 
ATOM      2  C   UNL d   1      57.095   0.682  32.024  0.00  0.00     0.004 A 
ATOM      3  C   UNL d   1      56.633  -0.650  32.179  0.00  0.00     0.004 A 
ATOM      4  C   UNL d   1      57.398  -0.291  31.041  0.00  0.00     0.094 A 
ATOM      5  C   UNL d   1      57.454   0.488  31.316  0.00  0.00     0.024 A 
ATOM      6  C   UNL d   1      56.998  -0.857  31.456  0.00  0.00     0.024 A 
ENDROOT
BRANCH   1   7
ATOM      7  C   UNL d   1      56.319   0.317  33.178  0.00  0.00     0.135 A 
ATOM      8  S   UNL d   1      55.510   0.352  33.321  0.00  0.00    -0.024 SA
ATOM      9  C   UNL d   1      55.396   0.575  34.096  0.00  0.00     0.236 A 
ATOM     10  N   UNL d   1      56.135   0.682  34.451  0.00  0.00    -0.119 NA
ATOM     11  N   UNL d   1      54.667   0.676  34.467  0.00  0.00    -0.118 N 
ATOM     12  N   UNL d   1      56.711   0.521  33.879  0.00  0.00    -0.139 NA
ENDBRANCH   1   7
BRANCH   4  13
ATOM     13  O   UNL d   1      57.760  -0.484  30.328  0.00  0.00    -0.328 OA
ATOM     14  C   UNL d   1      58.367  -0.016  30.030  0.00  0.00     0.181 C 
ENDBRANCH   4  13
TORSDOF 2
ENDMDL
MODEL 4
REMARK VINA RESULT:      -3.8      1.297      1.970
REMARK  2 active torsions:
REMARK  status: ('A' for Active; 'I' for Inactive)
REMARK    1  A    between atoms: C_6  and  C_2 
REMARK    2  A    between atoms: O_13  and  C_10 
ROOT
ATOM      1  C   UNL d   1      57.580  -0.016  30.860  0.00  0.00     0.026 A 
ATOM      2  C   UNL d   1      57.234   0.681  31.150  0.00  0.00     0.004 A 
ATOM      3  C   UNL d   1      57.354  -0.732  31.179  0.00  0.00     0.004 A 
ATOM      4  C   UNL d   1      56.456  -0.076  32.059  0.00  0.00     0.094 A 
ATOM      5  C   UNL d   1      56.675   0.659  31.745  0.00  0.00     0.024 A 
ATOM      6  C   UNL d   1      56.782  -0.765  31.789  0.00  0.00     0.024 A 
ENDROOT
BRANCH   1   7
ATOM      7  C   UNL d   1      58.144   0.014  30.258  0.00  0.00     0.135 A 
ATOM      8  S   UNL d   1      58.228  -0.526  29.644  0.00  0.00    -0.024 SA
ATOM      9  C   UNL d   1      58.852  -0.287  29.177  0.00  0.00     0.236 A 
ATOM     10  N   UNL d   1      59.168   0.408  29.493  0.00  0.00    -0.119 NA
ATOM     11  N   UNL d   1      59.124  -0.674  28.501  0.00  0.00    -0.118 N 
ATOM     12  N   UNL d   1      58.726   0.597  30.167  0.00  0.00    -0.139 NA
ENDBRANCH   1   7
BRANCH   4  13
ATOM     13  O   UNL d   1      55.893  -0.097  32.658  0.00  0.00    -0.328 OA
ATOM     14  C   UNL d   1      55.862  -0.734  33.178  0.00  0.00     0.181 C 
ENDBRANCH   4  13
TORSDOF 2
ENDMDL
MODEL 5
REMARK VINA RESULT:      -3.3      0.970      1.025
REMARK  2 active torsions:
REMARK  status: ('A' for Active; 'I' for Inactive)
REMARK    1  A    between atoms: C_6  and  C_2 
REMARK    2  A    between atoms: O_13  and  C_10 
ROOT
ATOM      1  C   UNL d   1      56.990   0.006  31.854  0.00  0.00     0.026 A 
ATOM      2  C   UNL d   1      56.761  -0.774  32.023  0.00  0.00     0.004 A 
ATOM      3  C   UNL d   1      56.749   0.606  32.353  0.00  0.00     0.004 A 
ATOM      4  C   UNL d   1      56.064  -0.327  33.172  0.00  0.00     0.094 A 
ATOM      5  C   UNL d   1      56.300  -0.947  32.676  0.00  0.00     0.024 A 
ATOM      6  C   UNL d   1      56.278   0.438  33.023  0.00  0.00     0.024 A 
ENDROOT
BRANCH   1   7
ATOM      7  C   UNL d   1      57.455   0.172  31.193  0.00  0.00     0.135 A 
ATOM      8  S   UNL d   1      58.212  -0.112  31.048  0.00  0.00    -0.024 SA
ATOM      9  C   UNL d   1      58.467   0.189  30.335  0.00  0.00     0.236 A 
ATOM     10  N   UNL d   1      57.870   0.668  30.022  0.00  0.00    -0.119 NA
ATOM     11  N   UNL d   1      59.197   0.041  29.981  0.00  0.00    -0.118 N 
ATOM     12  N   UNL d   1      57.239   0.658  30.558  0.00  0.00    -0.139 NA
ENDBRANCH   1   7
BRANCH   4  13
ATOM     13  O   UNL d   1      55.601  -0.502  33.829  0.00  0.00    -0.328 OA
ATOM     14  C   UNL d   1      55.189  -1.213  33.869  0.00  0.00     0.181 C 
ENDBRANCH   4  13
TORSDOF 2
ENDMDL
