MODEL 1
REMARK VINA RESULT:      54.4      0.000      0.000
REMARK  3 active torsions:
REMARK  status: ('A' for Active; 'I' for Inactive)
REMARK    1  A    between atoms: N_5  and  C_1 
REMARK    2  A    between atoms: C_8  and  C_3 
REMARK       I    between atoms: C_7  and  N_5 
REMARK    3  A    between atoms: C_13  and  C_7 
ROOT
ATOM      1  C   UNL d   1     -49.112  27.514  33.948  0.00  0.00     0.297 A 
ATOM      2  O   UNL d   1     -49.902  27.279  34.010  0.00  0.00    -0.253 OA
ATOM      3  C   UNL d   1     -49.985  26.556  33.609  0.00  0.00     0.206 A 
ATOM      4  N   UNL d   1     -49.247  26.353  33.306  0.00  0.00    -0.119 NA
ATOM      5  N   UNL d   1     -48.709  26.945  33.515  0.00  0.00    -0.101 NA
ENDROOT
BRANCH   3   6
ATOM      6  C   UNL d   1     -50.690  26.122  33.534  0.00  0.00     0.043 A 
ATOM      7  C   UNL d   1     -50.663  25.297  33.528  0.00  0.00     0.004 A 
ATOM      8  C   UNL d   1     -51.358  24.870  33.454  0.00  0.00     0.000 A 
ATOM      9  C   UNL d   1     -51.323  24.043  33.449  0.00  0.00     0.000 A 
ATOM     10  C   UNL d   1     -52.074  25.267  33.387  0.00  0.00     0.000 A 
ATOM     11  C   UNL d   1     -52.010  23.611  33.376  0.00  0.00     0.000 A 
ATOM     12  C   UNL d   1     -52.740  23.998  33.307  0.00  0.00     0.000 A 
ATOM     13  C   UNL d   1     -52.784  24.822  33.311  0.00  0.00     0.000 A 
ATOM     14  C   UNL d   1     -52.114  26.076  33.391  0.00  0.00     0.000 A 
ATOM     15  C   UNL d   1     -51.423  26.512  33.465  0.00  0.00     0.004 A 
ENDBRANCH   3   6
BRANCH   1  16
ATOM     16  N   UNL d   1     -48.792  28.206  34.271  0.00  0.00    -0.165 NA
ATOM     17  C   UNL d   1     -48.389  28.182  34.982  0.00  0.00     0.282 C 
ATOM     18  O   UNL d   1     -48.294  27.466  35.391  0.00  0.00    -0.265 OA
BRANCH  17  19
ATOM     19  C   UNL d   1     -48.071  28.875  35.301  0.00  0.00     0.058 A 
ATOM     20  C   UNL d   1     -47.790  28.867  36.076  0.00  0.00     0.005 A 
ATOM     21  C   UNL d   1     -47.470  29.562  36.398  0.00  0.00     0.000 A 
ATOM     22  C   UNL d   1     -47.434  30.253  35.949  0.00  0.00     0.000 A 
ATOM     23  C   UNL d   1     -47.718  30.251  35.174  0.00  0.00     0.000 A 
ATOM     24  C   UNL d   1     -48.038  29.561  34.847  0.00  0.00     0.005 A 
ENDBRANCH  17  19
ENDBRANCH   1  16
TORSDOF 3
ENDMDL
