MODEL 1
REMARK VINA RESULT:      20.5      0.000      0.000
REMARK  7 active torsions:
REMARK  status: ('A' for Active; 'I' for Inactive)
REMARK    1  A    between atoms: N_4  and  C_1 
REMARK       I    between atoms: C_3  and  N_4 
REMARK    2  A    between atoms: C_8  and  C_3 
REMARK    3  A    between atoms: S_10  and  C_5 
REMARK    4  A    between atoms: C_9  and  C_15 
REMARK       I    between atoms: N_12  and  C_9 
REMARK    5  A    between atoms: C_15  and  S_10 
REMARK    6  A    between atoms: C_17  and  N_12 
REMARK    7  A    between atoms: O_18  and  C_13 
ROOT
ATOM      1  C   UNL d   1      45.766 -15.515  44.321  0.00  0.00     0.219 A 
ATOM      2  S   UNL d   1      45.709 -16.262  43.976  0.00  0.00    -0.019 SA
ATOM      3  C   UNL d   1      46.226 -16.771  44.360  0.00  0.00     0.165 A 
ATOM      4  N   UNL d   1      46.328 -15.565  44.928  0.00  0.00    -0.120 NA
ATOM      5  N   UNL d   1      46.612 -16.340  44.953  0.00  0.00    -0.133 NA
ENDROOT
BRANCH   1   6
ATOM      6  N   UNL d   1      45.338 -14.841  44.098  0.00  0.00    -0.181 NA
ATOM      7  C   UNL d   1      45.743 -14.132  43.957  0.00  0.00     0.283 C 
ATOM      8  O   UNL d   1      46.561 -14.098  44.037  0.00  0.00    -0.265 OA
BRANCH   7   9
ATOM      9  C   UNL d   1      45.319 -13.456  43.734  0.00  0.00     0.080 A 
ATOM     10  C   UNL d   1      44.687 -13.212  44.182  0.00  0.00     0.099 A 
ATOM     11  C   UNL d   1      44.259 -12.535  43.963  0.00  0.00     0.024 A 
ATOM     12  C   UNL d   1      44.477 -12.117  43.295  0.00  0.00     0.002 A 
ATOM     13  C   UNL d   1      45.124 -12.371  42.839  0.00  0.00     0.000 A 
ATOM     14  C   UNL d   1      45.542 -13.042  43.065  0.00  0.00     0.007 A 
BRANCH  10  15
ATOM     15  O   UNL d   1      44.460 -13.631  44.861  0.00  0.00    -0.328 OA
ATOM     16  C   UNL d   1      43.733 -14.008  44.901  0.00  0.00     0.181 C 
ENDBRANCH  10  15
ENDBRANCH   7   9
ENDBRANCH   1   6
BRANCH   3  17
ATOM     17  S   UNL d   1      46.339 -17.570  44.184  0.00  0.00    -0.054 SA
BRANCH  17  18
ATOM     18  C   UNL d   1      45.730 -17.994  43.807  0.00  0.00     0.100 C 
BRANCH  18  19
ATOM     19  C   UNL d   1      45.916 -18.623  43.311  0.00  0.00     0.286 C 
ATOM     20  N   UNL d   1      46.147 -18.480  42.528  0.00  0.00    -0.208 NA
ATOM     21  O   UNL d   1      45.875 -19.406  43.584  0.00  0.00    -0.265 OA
BRANCH  20  22
ATOM     22  C   UNL d   1      46.334 -19.096  42.027  0.00  0.00     0.085 A 
ATOM     23  C   UNL d   1      46.482 -19.041  41.210  0.00  0.00     0.019 A 
ATOM     24  C   UNL d   1      46.646 -19.795  40.929  0.00  0.00     0.002 A 
ATOM     25  C   UNL d   1      46.603 -20.327  41.564  0.00  0.00     0.002 A 
ATOM     26  C   UNL d   1      46.410 -19.889  42.241  0.00  0.00     0.019 A 
ENDBRANCH  20  22
ENDBRANCH  18  19
ENDBRANCH  17  18
ENDBRANCH   3  17
TORSDOF 7
ENDMDL
