MODEL 1
REMARK VINA RESULT:      -5.6      0.000      0.000
REMARK  3 active torsions:
REMARK  status: ('A' for Active; 'I' for Inactive)
REMARK       I    between atoms: N_2  and  C_1 
REMARK    1  A    between atoms: O_3  and  C_1 
REMARK    2  A    between atoms: C_9  and  O_3 
REMARK    3  A    between atoms: C_5  and  C_6 
ROOT
ATOM      1  C   UNL d   1     -41.619-123.175 -49.966  0.00  0.00    -0.023 A 
ATOM      2  C   UNL d   1     -41.840-123.757 -50.507  0.00  0.00    -0.002 A 
ATOM      3  C   UNL d   1     -41.272-122.476 -50.233  0.00  0.00    -0.002 A 
ATOM      4  C   UNL d   1     -41.369-122.942 -51.571  0.00  0.00     0.105 A 
ATOM      5  C   UNL d   1     -41.147-122.359 -51.038  0.00  0.00     0.025 A 
ATOM      6  C   UNL d   1     -41.715-123.640 -51.312  0.00  0.00     0.025 A 
ENDROOT
BRANCH   4   7
ATOM      7  O   UNL d   1     -41.243-122.824 -52.379  0.00  0.00    -0.259 OA
BRANCH   7   8
ATOM      8  C   UNL d   1     -41.762-122.374 -52.830  0.00  0.00     0.377 C 
ATOM      9  N   UNL d   1     -41.730-122.383 -53.656  0.00  0.00    -0.252 N 
ATOM     10  C   UNL d   1     -41.162-122.858 -54.031  0.00  0.00     0.085 A 
ATOM     11  C   UNL d   1     -42.252-121.931 -54.094  0.00  0.00     0.085 A 
ATOM     12  C   UNL d   1     -41.125-122.872 -54.852  0.00  0.00     0.019 A 
ATOM     13  C   UNL d   1     -41.648-122.417 -55.303  0.00  0.00     0.003 A 
ATOM     14  C   UNL d   1     -42.217-121.942 -54.920  0.00  0.00     0.019 A 
ATOM     15  O   UNL d   1     -42.334-121.897 -52.430  0.00  0.00    -0.237 OA
ENDBRANCH   7   8
ENDBRANCH   4   7
BRANCH   1  16
ATOM     16  C   UNL d   1     -41.745-123.293 -49.157  0.00  0.00     0.019 C 
ATOM     17  C   UNL d   1     -42.487-123.132 -48.827  0.00  0.00     0.004 C 
ATOM     18  C   UNL d   1     -41.132-123.570 -48.680  0.00  0.00     0.004 C 
ATOM     19  C   UNL d   1     -42.471-123.017 -49.448  0.00  0.00     0.004 C 
ENDBRANCH   1  16
TORSDOF 3
ENDMDL
MODEL 2
REMARK VINA RESULT:      -5.3      1.269      4.393
REMARK  3 active torsions:
REMARK  status: ('A' for Active; 'I' for Inactive)
REMARK       I    between atoms: N_2  and  C_1 
REMARK    1  A    between atoms: O_3  and  C_1 
REMARK    2  A    between atoms: C_9  and  O_3 
REMARK    3  A    between atoms: C_5  and  C_6 
ROOT
ATOM      1  C   UNL d   1     -41.511-122.684 -53.214  0.00  0.00    -0.023 A 
ATOM      2  C   UNL d   1     -41.707-123.385 -52.826  0.00  0.00    -0.002 A 
ATOM      3  C   UNL d   1     -41.239-122.037 -52.781  0.00  0.00    -0.002 A 
ATOM      4  C   UNL d   1     -41.360-122.791 -51.583  0.00  0.00     0.105 A 
ATOM      5  C   UNL d   1     -41.163-122.090 -51.963  0.00  0.00     0.025 A 
ATOM      6  C   UNL d   1     -41.631-123.438 -52.008  0.00  0.00     0.025 A 
ENDROOT
BRANCH   4   7
ATOM      7  O   UNL d   1     -41.283-122.844 -50.762  0.00  0.00    -0.259 OA
BRANCH   7   8
ATOM      8  C   UNL d   1     -41.929-122.738 -50.267  0.00  0.00     0.377 C 
ATOM      9  N   UNL d   1     -41.904-122.969 -49.473  0.00  0.00    -0.252 N 
ATOM     10  C   UNL d   1     -41.209-123.315 -49.178  0.00  0.00     0.085 A 
ATOM     11  C   UNL d   1     -42.553-122.858 -48.990  0.00  0.00     0.085 A 
ATOM     12  C   UNL d   1     -41.176-123.548 -48.391  0.00  0.00     0.019 A 
ATOM     13  C   UNL d   1     -41.829-123.439 -47.894  0.00  0.00     0.003 A 
ATOM     14  C   UNL d   1     -42.524-123.091 -48.197  0.00  0.00     0.019 A 
ATOM     15  O   UNL d   1     -42.628-122.384 -50.585  0.00  0.00    -0.237 OA
ENDBRANCH   7   8
ENDBRANCH   4   7
BRANCH   1  16
ATOM     16  C   UNL d   1     -41.587-122.630 -54.035  0.00  0.00     0.019 C 
ATOM     17  C   UNL d   1     -41.228-123.196 -54.522  0.00  0.00     0.004 C 
ATOM     18  C   UNL d   1     -42.021-122.013 -54.370  0.00  0.00     0.004 C 
ATOM     19  C   UNL d   1     -41.123-123.306 -53.908  0.00  0.00     0.004 C 
ENDBRANCH   1  16
TORSDOF 3
ENDMDL
MODEL 3
REMARK VINA RESULT:      -3.3      1.017      4.366
REMARK  3 active torsions:
REMARK  status: ('A' for Active; 'I' for Inactive)
REMARK       I    between atoms: N_2  and  C_1 
REMARK    1  A    between atoms: O_3  and  C_1 
REMARK    2  A    between atoms: C_9  and  O_3 
REMARK    3  A    between atoms: C_5  and  C_6 
ROOT
ATOM      1  C   UNL d   1     -41.568-122.417 -54.044  0.00  0.00    -0.023 A 
ATOM      2  C   UNL d   1     -41.638-121.785 -53.518  0.00  0.00    -0.002 A 
ATOM      3  C   UNL d   1     -41.371-123.167 -53.762  0.00  0.00    -0.002 A 
ATOM      4  C   UNL d   1     -41.315-122.652 -52.440  0.00  0.00     0.105 A 
ATOM      5  C   UNL d   1     -41.244-123.285 -52.958  0.00  0.00     0.025 A 
ATOM      6  C   UNL d   1     -41.511-121.903 -52.713  0.00  0.00     0.025 A 
ENDROOT
BRANCH   4   7
ATOM      7  O   UNL d   1     -41.188-122.770 -51.632  0.00  0.00    -0.259 OA
BRANCH   7   8
ATOM      8  C   UNL d   1     -41.768-122.592 -51.079  0.00  0.00     0.377 C 
ATOM      9  N   UNL d   1     -41.755-122.925 -50.322  0.00  0.00    -0.252 N 
ATOM     10  C   UNL d   1     -41.142-123.448 -50.124  0.00  0.00     0.085 A 
ATOM     11  C   UNL d   1     -42.338-122.741 -49.780  0.00  0.00     0.085 A 
ATOM     12  C   UNL d   1     -41.122-123.783 -49.373  0.00  0.00     0.019 A 
ATOM     13  C   UNL d   1     -41.708-123.602 -48.818  0.00  0.00     0.003 A 
ATOM     14  C   UNL d   1     -42.322-123.076 -49.024  0.00  0.00     0.019 A 
ATOM     15  O   UNL d   1     -42.385-122.058 -51.299  0.00  0.00    -0.237 OA
ENDBRANCH   7   8
ENDBRANCH   4   7
BRANCH   1  16
ATOM     16  C   UNL d   1     -41.696-122.299 -54.852  0.00  0.00     0.019 C 
ATOM     17  C   UNL d   1     -42.400-121.948 -55.112  0.00  0.00     0.004 C 
ATOM     18  C   UNL d   1     -41.123-122.529 -55.399  0.00  0.00     0.004 C 
ATOM     19  C   UNL d   1     -42.378-122.004 -54.484  0.00  0.00     0.004 C 
ENDBRANCH   1  16
TORSDOF 3
ENDMDL
