MODEL 1
REMARK VINA RESULT:      -7.2      0.000      0.000
REMARK  4 active torsions:
REMARK  status: ('A' for Active; 'I' for Inactive)
REMARK    1  A    between atoms: N_6  and  C_2 
REMARK    2  A    between atoms: N_8  and  C_3 
REMARK    3  A    between atoms: C_10  and  N_8 
REMARK    4  A    between atoms: C_14  and  C_10 
ROOT
ATOM      1  N   UNL d   1     -47.863  13.571  22.798  0.00  0.00    -0.041 NA
ATOM      2  C   UNL d   1     -47.195  13.073  22.827  0.00  0.00     0.737 A 
ATOM      3  C   UNL d   1     -48.610  13.274  23.002  0.00  0.00     0.182 A 
ATOM      4  N   UNL d   1     -47.279  12.277  23.060  0.00  0.00    -0.060 NA
ATOM      5  C   UNL d   1     -48.692  12.481  23.234  0.00  0.00     0.055 A 
ATOM      6  C   UNL d   1     -48.034  11.985  23.264  0.00  0.00     0.103 A 
ATOM      7  C   UNL d   1     -49.440  12.183  23.438  0.00  0.00     0.005 A 
ATOM      8  C   UNL d   1     -48.116  11.186  23.498  0.00  0.00     0.020 A 
ATOM      9  C   UNL d   1     -49.524  11.403  23.668  0.00  0.00     0.000 A 
ATOM     10  C   UNL d   1     -48.858  10.901  23.698  0.00  0.00     0.002 A 
ENDROOT
BRANCH   3  11
ATOM     11  N   UNL d   1     -49.304  13.786  22.973  0.00  0.00    -0.225 NA
BRANCH  11  12
ATOM     12  C   UNL d   1     -49.275  14.518  22.771  0.00  0.00     0.101 C 
BRANCH  12  13
ATOM     13  C   UNL d   1     -49.855  14.983  22.945  0.00  0.00     0.019 A 
ATOM     14  C   UNL d   1     -50.488  14.953  22.541  0.00  0.00     0.002 A 
ATOM     15  C   UNL d   1     -51.061  15.415  22.716  0.00  0.00     0.000 A 
ATOM     16  C   UNL d   1     -50.997  15.903  23.293  0.00  0.00     0.000 A 
ATOM     17  C   UNL d   1     -50.346  15.922  23.697  0.00  0.00     0.000 A 
ATOM     18  C   UNL d   1     -49.780  15.460  23.517  0.00  0.00     0.002 A 
ENDBRANCH  12  13
ENDBRANCH  11  12
ENDBRANCH   3  11
BRANCH   2  19
ATOM     19  N   UNL d   1     -46.423  13.380  22.616  0.00  0.00    -0.133 N 
ATOM     20  C   UNL d   1     -46.191  14.164  22.879  0.00  0.00     0.125 A 
ATOM     21  C   UNL d   1     -45.428  14.473  22.673  0.00  0.00     0.142 A 
ATOM     22  O   UNL d   1     -44.892  14.006  22.206  0.00  0.00    -0.300 OA
ATOM     23  C   UNL d   1     -45.124  13.223  21.943  0.00  0.00     0.142 A 
ATOM     24  C   UNL d   1     -45.889  12.910  22.148  0.00  0.00     0.125 A 
ENDBRANCH   2  19
TORSDOF 4
ENDMDL
MODEL 2
REMARK VINA RESULT:      -7.2      1.846      3.029
REMARK  4 active torsions:
REMARK  status: ('A' for Active; 'I' for Inactive)
REMARK    1  A    between atoms: N_6  and  C_2 
REMARK    2  A    between atoms: N_8  and  C_3 
REMARK    3  A    between atoms: C_10  and  N_8 
REMARK    4  A    between atoms: C_14  and  C_10 
ROOT
ATOM      1  N   UNL d   1     -47.051  12.247  23.177  0.00  0.00    -0.041 NA
ATOM      2  C   UNL d   1     -46.224  12.337  23.118  0.00  0.00     0.737 A 
ATOM      3  C   UNL d   1     -47.548  12.903  23.072  0.00  0.00     0.182 A 
ATOM      4  N   UNL d   1     -45.898  13.087  22.955  0.00  0.00    -0.060 NA
ATOM      5  C   UNL d   1     -47.222  13.648  22.910  0.00  0.00     0.055 A 
ATOM      6  C   UNL d   1     -46.405  13.742  22.851  0.00  0.00     0.103 A 
ATOM      7  C   UNL d   1     -47.719  14.305  22.805  0.00  0.00     0.005 A 
ATOM      8  C   UNL d   1     -46.075  14.494  22.687  0.00  0.00     0.020 A 
ATOM      9  C   UNL d   1     -47.402  15.041  22.645  0.00  0.00     0.000 A 
ATOM     10  C   UNL d   1     -46.574  15.136  22.585  0.00  0.00     0.002 A 
ENDROOT
BRANCH   3  11
ATOM     11  N   UNL d   1     -48.404  12.813  23.132  0.00  0.00    -0.225 NA
BRANCH  11  12
ATOM     12  C   UNL d   1     -48.765  12.156  23.006  0.00  0.00     0.101 C 
BRANCH  12  13
ATOM     13  C   UNL d   1     -49.527  12.128  23.048  0.00  0.00     0.019 A 
ATOM     14  C   UNL d   1     -49.940  12.441  22.504  0.00  0.00     0.002 A 
ATOM     15  C   UNL d   1     -50.695  12.412  22.548  0.00  0.00     0.000 A 
ATOM     16  C   UNL d   1     -51.031  12.070  23.136  0.00  0.00     0.000 A 
ATOM     17  C   UNL d   1     -50.598  11.756  23.684  0.00  0.00     0.000 A 
ATOM     18  C   UNL d   1     -49.847  11.788  23.633  0.00  0.00     0.002 A 
ENDBRANCH  12  13
ENDBRANCH  11  12
ENDBRANCH   3  11
BRANCH   2  19
ATOM     19  N   UNL d   1     -45.711  11.659  23.226  0.00  0.00    -0.133 N 
ATOM     20  C   UNL d   1     -46.020  10.945  23.589  0.00  0.00     0.125 A 
ATOM     21  C   UNL d   1     -45.516  10.271  23.698  0.00  0.00     0.142 A 
ATOM     22  O   UNL d   1     -44.704  10.303  23.448  0.00  0.00    -0.300 OA
ATOM     23  C   UNL d   1     -44.395  11.017  23.086  0.00  0.00     0.142 A 
ATOM     24  C   UNL d   1     -44.898  11.695  22.975  0.00  0.00     0.125 A 
ENDBRANCH   2  19
TORSDOF 4
ENDMDL
MODEL 3
REMARK VINA RESULT:      -5.9      9.340     10.304
REMARK  4 active torsions:
REMARK  status: ('A' for Active; 'I' for Inactive)
REMARK    1  A    between atoms: N_6  and  C_2 
REMARK    2  A    between atoms: N_8  and  C_3 
REMARK    3  A    between atoms: C_10  and  N_8 
REMARK    4  A    between atoms: C_14  and  C_10 
ROOT
ATOM      1  N   UNL d   1     -39.634  14.663  18.550  0.00  0.00    -0.041 NA
ATOM      2  C   UNL d   1     -39.736  14.464  17.746  0.00  0.00     0.737 A 
ATOM      3  C   UNL d   1     -39.158  14.189  19.037  0.00  0.00     0.182 A 
ATOM      4  N   UNL d   1     -39.360  13.788  17.434  0.00  0.00    -0.060 NA
ATOM      5  C   UNL d   1     -38.785  13.517  18.725  0.00  0.00     0.055 A 
ATOM      6  C   UNL d   1     -38.883  13.316  17.931  0.00  0.00     0.103 A 
ATOM      7  C   UNL d   1     -38.309  13.042  19.212  0.00  0.00     0.005 A 
ATOM      8  C   UNL d   1     -38.507  12.638  17.615  0.00  0.00     0.020 A 
ATOM      9  C   UNL d   1     -37.940  12.380  18.908  0.00  0.00     0.000 A 
ATOM     10  C   UNL d   1     -38.039  12.176  18.104  0.00  0.00     0.002 A 
ENDROOT
BRANCH   3  11
ATOM     11  N   UNL d   1     -39.050  14.392  19.868  0.00  0.00    -0.225 NA
BRANCH  11  12
ATOM     12  C   UNL d   1     -39.396  14.981  20.203  0.00  0.00     0.101 C 
BRANCH  12  13
ATOM     13  C   UNL d   1     -39.282  15.114  20.946  0.00  0.00     0.019 A 
ATOM     14  C   UNL d   1     -39.570  14.643  21.455  0.00  0.00     0.002 A 
ATOM     15  C   UNL d   1     -39.456  14.777  22.191  0.00  0.00     0.000 A 
ATOM     16  C   UNL d   1     -39.056  15.382  22.412  0.00  0.00     0.000 A 
ATOM     17  C   UNL d   1     -38.768  15.855  21.882  0.00  0.00     0.000 A 
ATOM     18  C   UNL d   1     -38.886  15.715  21.152  0.00  0.00     0.002 A 
ENDBRANCH  12  13
ENDBRANCH  11  12
ENDBRANCH   3  11
BRANCH   2  19
ATOM     19  N   UNL d   1     -40.227  14.954  17.243  0.00  0.00    -0.133 N 
ATOM     20  C   UNL d   1     -41.076  14.972  17.366  0.00  0.00     0.125 A 
ATOM     21  C   UNL d   1     -41.568  15.455  16.870  0.00  0.00     0.142 A 
ATOM     22  O   UNL d   1     -41.218  15.922  16.252  0.00  0.00    -0.300 OA
ATOM     23  C   UNL d   1     -40.369  15.904  16.129  0.00  0.00     0.142 A 
ATOM     24  C   UNL d   1     -39.874  15.420  16.625  0.00  0.00     0.125 A 
ENDBRANCH   2  19
TORSDOF 4
ENDMDL
MODEL 4
REMARK VINA RESULT:      -5.8      8.895     10.577
REMARK  4 active torsions:
REMARK  status: ('A' for Active; 'I' for Inactive)
REMARK    1  A    between atoms: N_6  and  C_2 
REMARK    2  A    between atoms: N_8  and  C_3 
REMARK    3  A    between atoms: C_10  and  N_8 
REMARK    4  A    between atoms: C_14  and  C_10 
ROOT
ATOM      1  N   UNL d   1     -39.558  14.398  19.111  0.00  0.00    -0.041 NA
ATOM      2  C   UNL d   1     -39.950  14.976  19.568  0.00  0.00     0.737 A 
ATOM      3  C   UNL d   1     -39.723  14.328  18.302  0.00  0.00     0.182 A 
ATOM      4  N   UNL d   1     -40.507  15.482  19.208  0.00  0.00    -0.060 NA
ATOM      5  C   UNL d   1     -40.278  14.831  17.946  0.00  0.00     0.055 A 
ATOM      6  C   UNL d   1     -40.668  15.404  18.393  0.00  0.00     0.103 A 
ATOM      7  C   UNL d   1     -40.444  14.761  17.135  0.00  0.00     0.005 A 
ATOM      8  C   UNL d   1     -41.228  15.913  18.035  0.00  0.00     0.020 A 
ATOM      9  C   UNL d   1     -40.990  15.256  16.782  0.00  0.00     0.000 A 
ATOM     10  C   UNL d   1     -41.385  15.836  17.235  0.00  0.00     0.002 A 
ENDROOT
BRANCH   3  11
ATOM     11  N   UNL d   1     -39.319  13.731  17.826  0.00  0.00    -0.225 NA
BRANCH  11  12
ATOM     12  C   UNL d   1     -38.627  13.464  17.991  0.00  0.00     0.101 C 
BRANCH  12  13
ATOM     13  C   UNL d   1     -38.396  12.801  17.693  0.00  0.00     0.019 A 
ATOM     14  C   UNL d   1     -38.246  12.222  18.147  0.00  0.00     0.002 A 
ATOM     15  C   UNL d   1     -38.017  11.565  17.849  0.00  0.00     0.000 A 
ATOM     16  C   UNL d   1     -37.940  11.492  17.099  0.00  0.00     0.000 A 
ATOM     17  C   UNL d   1     -38.096  12.091  16.646  0.00  0.00     0.000 A 
ATOM     18  C   UNL d   1     -38.323  12.741  16.950  0.00  0.00     0.002 A 
ENDBRANCH  12  13
ENDBRANCH  11  12
ENDBRANCH   3  11
BRANCH   2  19
ATOM     19  N   UNL d   1     -39.779  15.049  20.405  0.00  0.00    -0.133 N 
ATOM     20  C   UNL d   1     -39.373  15.747  20.696  0.00  0.00     0.125 A 
ATOM     21  C   UNL d   1     -39.202  15.824  21.524  0.00  0.00     0.142 A 
ATOM     22  O   UNL d   1     -39.432  15.210  22.064  0.00  0.00    -0.300 OA
ATOM     23  C   UNL d   1     -39.838  14.512  21.773  0.00  0.00     0.142 A 
ATOM     24  C   UNL d   1     -40.011  14.432  20.943  0.00  0.00     0.125 A 
ENDBRANCH   2  19
TORSDOF 4
ENDMDL
MODEL 5
REMARK VINA RESULT:      -5.8      8.206     10.238
REMARK  4 active torsions:
REMARK  status: ('A' for Active; 'I' for Inactive)
REMARK    1  A    between atoms: N_6  and  C_2 
REMARK    2  A    between atoms: N_8  and  C_3 
REMARK    3  A    between atoms: C_10  and  N_8 
REMARK    4  A    between atoms: C_14  and  C_10 
ROOT
ATOM      1  N   UNL d   1     -39.014  14.341  20.585  0.00  0.00    -0.041 NA
ATOM      2  C   UNL d   1     -39.278  14.505  21.359  0.00  0.00     0.737 A 
ATOM      3  C   UNL d   1     -39.448  14.613  19.932  0.00  0.00     0.182 A 
ATOM      4  N   UNL d   1     -39.977  14.945  21.475  0.00  0.00    -0.060 NA
ATOM      5  C   UNL d   1     -40.144  15.050  20.050  0.00  0.00     0.055 A 
ATOM      6  C   UNL d   1     -40.408  15.215  20.814  0.00  0.00     0.103 A 
ATOM      7  C   UNL d   1     -40.579  15.323  19.397  0.00  0.00     0.005 A 
ATOM      8  C   UNL d   1     -41.110  15.655  20.933  0.00  0.00     0.020 A 
ATOM      9  C   UNL d   1     -41.265  15.753  19.510  0.00  0.00     0.000 A 
ATOM     10  C   UNL d   1     -41.532  15.920  20.283  0.00  0.00     0.002 A 
ENDROOT
BRANCH   3  11
ATOM     11  N   UNL d   1     -39.179  14.444  19.130  0.00  0.00    -0.225 NA
BRANCH  11  12
ATOM     12  C   UNL d   1     -38.643  13.930  18.969  0.00  0.00     0.101 C 
BRANCH  12  13
ATOM     13  C   UNL d   1     -38.486  13.762  18.241  0.00  0.00     0.019 A 
ATOM     14  C   UNL d   1     -38.609  13.066  17.987  0.00  0.00     0.002 A 
ATOM     15  C   UNL d   1     -38.453  12.901  17.265  0.00  0.00     0.000 A 
ATOM     16  C   UNL d   1     -38.174  13.434  16.803  0.00  0.00     0.000 A 
ATOM     17  C   UNL d   1     -38.053  14.140  17.076  0.00  0.00     0.000 A 
ATOM     18  C   UNL d   1     -38.211  14.296  17.795  0.00  0.00     0.002 A 
ENDBRANCH  12  13
ENDBRANCH  11  12
ENDBRANCH   3  11
BRANCH   2  19
ATOM     19  N   UNL d   1     -38.829  14.224  22.033  0.00  0.00    -0.133 N 
ATOM     20  C   UNL d   1     -38.830  13.387  22.224  0.00  0.00     0.125 A 
ATOM     21  C   UNL d   1     -38.387  13.103  22.890  0.00  0.00     0.142 A 
ATOM     22  O   UNL d   1     -37.944  13.648  23.368  0.00  0.00    -0.300 OA
ATOM     23  C   UNL d   1     -37.943  14.484  23.177  0.00  0.00     0.142 A 
ATOM     24  C   UNL d   1     -38.386  14.772  22.509  0.00  0.00     0.125 A 
ENDBRANCH   2  19
TORSDOF 4
ENDMDL
