MODEL 1
REMARK VINA RESULT:      -2.6      0.000      0.000
REMARK  4 active torsions:
REMARK  status: ('A' for Active; 'I' for Inactive)
REMARK    1  A    between atoms: S_6  and  C_1 
REMARK    2  A    between atoms: C_7  and  S_6 
REMARK    3  A    between atoms: C_10  and  C_7 
REMARK    4  A    between atoms: C_11  and  C_10 
ROOT
ATOM      1  C   UNL d   1      32.988  20.116 -22.085  0.00  0.00     0.194 A 
ATOM      2  N   UNL d   1      33.240  20.803 -22.501  0.00  0.00    -0.220 NA
ATOM      3  N   UNL d   1      32.657  20.365 -21.370  0.00  0.00    -0.220 NA
ATOM      4  C   UNL d   1      33.065  21.449 -22.048  0.00  0.00     0.101 A 
ATOM      5  C   UNL d   1      32.697  21.171 -21.334  0.00  0.00     0.101 A 
ATOM      6  C   UNL d   1      33.163  22.271 -22.128  0.00  0.00     0.021 A 
ATOM      7  C   UNL d   1      32.455  21.711 -20.759  0.00  0.00     0.021 A 
ATOM      8  C   UNL d   1      32.570  22.519 -20.877  0.00  0.00     0.002 A 
ATOM      9  C   UNL d   1      32.925  22.787 -21.566  0.00  0.00     0.002 A 
ENDROOT
BRANCH   1  10
ATOM     10  S   UNL d   1      33.229  19.574 -22.657  0.00  0.00    -0.048 SA
BRANCH  10  11
ATOM     11  C   UNL d   1      32.938  18.800 -22.654  0.00  0.00     0.038 C 
BRANCH  11  12
ATOM     12  C   UNL d   1      33.126  18.293 -23.276  0.00  0.00     0.007 C 
BRANCH  12  13
ATOM     13  C   UNL d   1      32.767  17.563 -23.304  0.00  0.00     0.001 C 
ATOM     14  C   UNL d   1      33.239  16.890 -23.242  0.00  0.00     0.000 C 
ATOM     15  C   UNL d   1      32.006  17.263 -23.383  0.00  0.00     0.000 C 
ENDBRANCH  12  13
ENDBRANCH  11  12
ENDBRANCH  10  11
ENDBRANCH   1  10
TORSDOF 4
ENDMDL
MODEL 2
REMARK VINA RESULT:      -2.6      0.987      4.171
REMARK  4 active torsions:
REMARK  status: ('A' for Active; 'I' for Inactive)
REMARK    1  A    between atoms: S_6  and  C_1 
REMARK    2  A    between atoms: C_7  and  S_6 
REMARK    3  A    between atoms: C_10  and  C_7 
REMARK    4  A    between atoms: C_11  and  C_10 
ROOT
ATOM      1  C   UNL d   1      33.078  19.629 -22.356  0.00  0.00     0.194 A 
ATOM      2  N   UNL d   1      33.240  18.841 -22.103  0.00  0.00    -0.220 NA
ATOM      3  N   UNL d   1      32.868  19.595 -23.154  0.00  0.00    -0.220 NA
ATOM      4  C   UNL d   1      33.131  18.348 -22.733  0.00  0.00     0.101 A 
ATOM      5  C   UNL d   1      32.896  18.825 -23.397  0.00  0.00     0.101 A 
ATOM      6  C   UNL d   1      33.195  17.529 -22.859  0.00  0.00     0.021 A 
ATOM      7  C   UNL d   1      32.744  18.470 -24.125  0.00  0.00     0.021 A 
ATOM      8  C   UNL d   1      32.819  17.652 -24.210  0.00  0.00     0.002 A 
ATOM      9  C   UNL d   1      33.045  17.192 -23.569  0.00  0.00     0.002 A 
ENDROOT
BRANCH   1  10
ATOM     10  S   UNL d   1      33.229  19.987 -21.630  0.00  0.00    -0.048 SA
BRANCH  10  11
ATOM     11  C   UNL d   1      32.952  20.749 -21.469  0.00  0.00     0.038 C 
BRANCH  11  12
ATOM     12  C   UNL d   1      33.107  21.092 -20.735  0.00  0.00     0.007 C 
BRANCH  12  13
ATOM     13  C   UNL d   1      32.809  21.833 -20.583  0.00  0.00     0.001 C 
ATOM     14  C   UNL d   1      33.230  22.330 -20.077  0.00  0.00     0.000 C 
ATOM     15  C   UNL d   1      32.155  22.282 -20.798  0.00  0.00     0.000 C 
ENDBRANCH  12  13
ENDBRANCH  11  12
ENDBRANCH  10  11
ENDBRANCH   1  10
TORSDOF 4
ENDMDL
MODEL 3
REMARK VINA RESULT:      -2.4      3.284      5.314
REMARK  4 active torsions:
REMARK  status: ('A' for Active; 'I' for Inactive)
REMARK    1  A    between atoms: S_6  and  C_1 
REMARK    2  A    between atoms: C_7  and  S_6 
REMARK    3  A    between atoms: C_10  and  C_7 
REMARK    4  A    between atoms: C_11  and  C_10 
ROOT
ATOM      1  C   UNL d   1      33.078  23.013 -19.576  0.00  0.00     0.194 A 
ATOM      2  N   UNL d   1      33.024  23.657 -20.116  0.00  0.00    -0.220 NA
ATOM      3  N   UNL d   1      33.124  22.318 -20.021  0.00  0.00    -0.220 NA
ATOM      4  C   UNL d   1      33.038  23.357 -20.866  0.00  0.00     0.101 A 
ATOM      5  C   UNL d   1      33.101  22.512 -20.805  0.00  0.00     0.101 A 
ATOM      6  C   UNL d   1      33.006  23.680 -21.632  0.00  0.00     0.021 A 
ATOM      7  C   UNL d   1      33.128  22.051 -21.488  0.00  0.00     0.021 A 
ATOM      8  C   UNL d   1      33.093  22.409 -22.231  0.00  0.00     0.002 A 
ATOM      9  C   UNL d   1      33.032  23.226 -22.289  0.00  0.00     0.002 A 
ENDROOT
BRANCH   1  10
ATOM     10  S   UNL d   1      33.051  23.470 -18.892  0.00  0.00    -0.048 SA
BRANCH  10  11
ATOM     11  C   UNL d   1      32.869  23.127 -18.162  0.00  0.00     0.038 C 
BRANCH  11  12
ATOM     12  C   UNL d   1      33.049  23.532 -17.466  0.00  0.00     0.007 C 
BRANCH  12  13
ATOM     13  C   UNL d   1      32.738  23.258 -16.766  0.00  0.00     0.001 C 
ATOM     14  C   UNL d   1      33.241  23.177 -16.117  0.00  0.00     0.000 C 
ATOM     15  C   UNL d   1      32.008  23.013 -16.480  0.00  0.00     0.000 C 
ENDBRANCH  12  13
ENDBRANCH  11  12
ENDBRANCH  10  11
ENDBRANCH   1  10
TORSDOF 4
ENDMDL
MODEL 4
REMARK VINA RESULT:      -2.4      3.222      5.406
REMARK  4 active torsions:
REMARK  status: ('A' for Active; 'I' for Inactive)
REMARK    1  A    between atoms: S_6  and  C_1 
REMARK    2  A    between atoms: C_7  and  S_6 
REMARK    3  A    between atoms: C_10  and  C_7 
REMARK    4  A    between atoms: C_11  and  C_10 
ROOT
ATOM      1  C   UNL d   1      30.799  17.033 -24.222  0.00  0.00     0.194 A 
ATOM      2  N   UNL d   1      30.774  16.410 -23.656  0.00  0.00    -0.220 NA
ATOM      3  N   UNL d   1      30.029  17.149 -24.499  0.00  0.00    -0.220 NA
ATOM      4  C   UNL d   1      30.010  16.158 -23.594  0.00  0.00     0.101 A 
ATOM      5  C   UNL d   1      29.539  16.624 -24.126  0.00  0.00     0.101 A 
ATOM      6  C   UNL d   1      29.614  15.578 -23.149  0.00  0.00     0.021 A 
ATOM      7  C   UNL d   1      28.728  16.491 -24.184  0.00  0.00     0.021 A 
ATOM      8  C   UNL d   1      28.372  15.905 -23.725  0.00  0.00     0.002 A 
ATOM      9  C   UNL d   1      28.826  15.455 -23.210  0.00  0.00     0.002 A 
ENDROOT
BRANCH   1  10
ATOM     10  S   UNL d   1      31.609  17.169 -24.168  0.00  0.00    -0.048 SA
BRANCH  10  11
ATOM     11  C   UNL d   1      31.926  17.911 -24.348  0.00  0.00     0.038 C 
BRANCH  11  12
ATOM     12  C   UNL d   1      32.736  18.041 -24.260  0.00  0.00     0.007 C 
BRANCH  12  13
ATOM     13  C   UNL d   1      33.031  18.780 -24.429  0.00  0.00     0.001 C 
ATOM     14  C   UNL d   1      33.231  19.277 -23.802  0.00  0.00     0.000 C 
ATOM     15  C   UNL d   1      33.209  19.225 -25.097  0.00  0.00     0.000 C 
ENDBRANCH  12  13
ENDBRANCH  11  12
ENDBRANCH  10  11
ENDBRANCH   1  10
TORSDOF 4
ENDMDL
MODEL 5
REMARK VINA RESULT:      -2.1      3.003      4.154
REMARK  4 active torsions:
REMARK  status: ('A' for Active; 'I' for Inactive)
REMARK    1  A    between atoms: S_6  and  C_1 
REMARK    2  A    between atoms: C_7  and  S_6 
REMARK    3  A    between atoms: C_10  and  C_7 
REMARK    4  A    between atoms: C_11  and  C_10 
ROOT
ATOM      1  C   UNL d   1      31.485  17.246 -24.027  0.00  0.00     0.194 A 
ATOM      2  N   UNL d   1      31.667  17.612 -24.764  0.00  0.00    -0.220 NA
ATOM      3  N   UNL d   1      31.914  17.641 -23.441  0.00  0.00    -0.220 NA
ATOM      4  C   UNL d   1      32.191  18.210 -24.624  0.00  0.00     0.101 A 
ATOM      5  C   UNL d   1      32.347  18.228 -23.789  0.00  0.00     0.101 A 
ATOM      6  C   UNL d   1      32.583  18.773 -25.095  0.00  0.00     0.021 A 
ATOM      7  C   UNL d   1      32.868  18.787 -23.479  0.00  0.00     0.021 A 
ATOM      8  C   UNL d   1      33.238  19.329 -23.980  0.00  0.00     0.002 A 
ATOM      9  C   UNL d   1      33.087  19.312 -24.786  0.00  0.00     0.002 A 
ENDROOT
BRANCH   1  10
ATOM     10  S   UNL d   1      30.965  16.687 -24.332  0.00  0.00    -0.048 SA
BRANCH  10  11
ATOM     11  C   UNL d   1      30.433  16.290 -23.838  0.00  0.00     0.038 C 
BRANCH  11  12
ATOM     12  C   UNL d   1      29.734  15.987 -24.153  0.00  0.00     0.007 C 
BRANCH  12  13
ATOM     13  C   UNL d   1      29.189  15.661 -23.644  0.00  0.00     0.001 C 
ATOM     14  C   UNL d   1      28.447  15.455 -23.941  0.00  0.00     0.000 C 
ATOM     15  C   UNL d   1      29.146  15.454 -22.850  0.00  0.00     0.000 C 
ENDBRANCH  12  13
ENDBRANCH  11  12
ENDBRANCH  10  11
ENDBRANCH   1  10
TORSDOF 4
ENDMDL
MODEL 6
REMARK VINA RESULT:      -2.0      3.504      4.782
REMARK  4 active torsions:
REMARK  status: ('A' for Active; 'I' for Inactive)
REMARK    1  A    between atoms: S_6  and  C_1 
REMARK    2  A    between atoms: C_7  and  S_6 
REMARK    3  A    between atoms: C_10  and  C_7 
REMARK    4  A    between atoms: C_11  and  C_10 
ROOT
ATOM      1  C   UNL d   1      33.136  23.008 -19.143  0.00  0.00     0.194 A 
ATOM      2  N   UNL d   1      33.241  22.308 -18.686  0.00  0.00    -0.220 NA
ATOM      3  N   UNL d   1      33.002  23.631 -18.616  0.00  0.00    -0.220 NA
ATOM      4  C   UNL d   1      33.171  22.504 -17.906  0.00  0.00     0.101 A 
ATOM      5  C   UNL d   1      33.020  23.340 -17.862  0.00  0.00     0.101 A 
ATOM      6  C   UNL d   1      33.213  22.089 -17.187  0.00  0.00     0.021 A 
ATOM      7  C   UNL d   1      32.922  23.702 -17.128  0.00  0.00     0.021 A 
ATOM      8  C   UNL d   1      32.971  23.255 -16.436  0.00  0.00     0.002 A 
ATOM      9  C   UNL d   1      33.117  22.449 -16.479  0.00  0.00     0.002 A 
ENDROOT
BRANCH   1  10
ATOM     10  S   UNL d   1      33.233  22.649 -19.877  0.00  0.00    -0.048 SA
BRANCH  10  11
ATOM     11  C   UNL d   1      32.868  22.960 -20.551  0.00  0.00     0.038 C 
BRANCH  11  12
ATOM     12  C   UNL d   1      32.955  22.575 -21.275  0.00  0.00     0.007 C 
BRANCH  12  13
ATOM     13  C   UNL d   1      32.684  22.947 -21.946  0.00  0.00     0.001 C 
ATOM     14  C   UNL d   1      32.954  22.681 -22.679  0.00  0.00     0.000 C 
ATOM     15  C   UNL d   1      32.176  23.564 -22.137  0.00  0.00     0.000 C 
ENDBRANCH  12  13
ENDBRANCH  11  12
ENDBRANCH  10  11
ENDBRANCH   1  10
TORSDOF 4
ENDMDL
MODEL 7
REMARK VINA RESULT:      -0.8      2.151      3.075
REMARK  4 active torsions:
REMARK  status: ('A' for Active; 'I' for Inactive)
REMARK    1  A    between atoms: S_6  and  C_1 
REMARK    2  A    between atoms: C_7  and  S_6 
REMARK    3  A    between atoms: C_10  and  C_7 
REMARK    4  A    between atoms: C_11  and  C_10 
ROOT
ATOM      1  C   UNL d   1      33.100  21.917 -20.024  0.00  0.00     0.194 A 
ATOM      2  N   UNL d   1      32.982  22.750 -19.977  0.00  0.00    -0.220 NA
ATOM      3  N   UNL d   1      33.160  21.630 -19.251  0.00  0.00    -0.220 NA
ATOM      4  C   UNL d   1      32.972  22.958 -19.197  0.00  0.00     0.101 A 
ATOM      5  C   UNL d   1      33.084  22.251 -18.739  0.00  0.00     0.101 A 
ATOM      6  C   UNL d   1      32.881  23.670 -18.778  0.00  0.00     0.021 A 
ATOM      7  C   UNL d   1      33.099  22.292 -17.916  0.00  0.00     0.021 A 
ATOM      8  C   UNL d   1      33.005  23.019 -17.536  0.00  0.00     0.002 A 
ATOM      9  C   UNL d   1      32.896  23.702 -17.979  0.00  0.00     0.002 A 
ENDROOT
BRANCH   1  10
ATOM     10  S   UNL d   1      33.086  21.872 -20.846  0.00  0.00    -0.048 SA
BRANCH  10  11
ATOM     11  C   UNL d   1      32.802  21.196 -21.227  0.00  0.00     0.038 C 
BRANCH  11  12
ATOM     12  C   UNL d   1      33.114  20.980 -21.960  0.00  0.00     0.007 C 
BRANCH  12  13
ATOM     13  C   UNL d   1      33.106  20.194 -22.169  0.00  0.00     0.001 C 
ATOM     14  C   UNL d   1      33.176  19.999 -22.968  0.00  0.00     0.000 C 
ATOM     15  C   UNL d   1      33.044  19.466 -21.794  0.00  0.00     0.000 C 
ENDBRANCH  12  13
ENDBRANCH  11  12
ENDBRANCH  10  11
ENDBRANCH   1  10
TORSDOF 4
ENDMDL
MODEL 8
REMARK VINA RESULT:       0.2      3.436      5.562
REMARK  4 active torsions:
REMARK  status: ('A' for Active; 'I' for Inactive)
REMARK    1  A    between atoms: S_6  and  C_1 
REMARK    2  A    between atoms: C_7  and  S_6 
REMARK    3  A    between atoms: C_10  and  C_7 
REMARK    4  A    between atoms: C_11  and  C_10 
ROOT
ATOM      1  C   UNL d   1      30.384  16.492 -24.229  0.00  0.00     0.194 A 
ATOM      2  N   UNL d   1      29.733  16.997 -24.404  0.00  0.00    -0.220 NA
ATOM      3  N   UNL d   1      30.094  15.855 -23.789  0.00  0.00    -0.220 NA
ATOM      4  C   UNL d   1      29.070  16.673 -24.078  0.00  0.00     0.101 A 
ATOM      5  C   UNL d   1      29.297  15.952 -23.689  0.00  0.00     0.101 A 
ATOM      6  C   UNL d   1      28.265  16.883 -24.044  0.00  0.00     0.021 A 
ATOM      7  C   UNL d   1      28.730  15.495 -23.303  0.00  0.00     0.021 A 
ATOM      8  C   UNL d   1      27.941  15.738 -23.292  0.00  0.00     0.002 A 
ATOM      9  C   UNL d   1      27.721  16.434 -23.667  0.00  0.00     0.002 A 
ENDROOT
BRANCH   1  10
ATOM     10  S   UNL d   1      30.953  16.945 -24.614  0.00  0.00    -0.048 SA
BRANCH  10  11
ATOM     11  C   UNL d   1      31.685  17.093 -24.259  0.00  0.00     0.038 C 
BRANCH  11  12
ATOM     12  C   UNL d   1      31.830  17.830 -23.918  0.00  0.00     0.007 C 
BRANCH  12  13
ATOM     13  C   UNL d   1      32.529  17.941 -23.517  0.00  0.00     0.001 C 
ATOM     14  C   UNL d   1      33.213  17.587 -23.812  0.00  0.00     0.000 C 
ATOM     15  C   UNL d   1      32.788  18.336 -22.844  0.00  0.00     0.000 C 
ENDBRANCH  12  13
ENDBRANCH  11  12
ENDBRANCH  10  11
ENDBRANCH   1  10
TORSDOF 4
ENDMDL
MODEL 9
REMARK VINA RESULT:       0.3      2.325      4.709
REMARK  4 active torsions:
REMARK  status: ('A' for Active; 'I' for Inactive)
REMARK    1  A    between atoms: S_6  and  C_1 
REMARK    2  A    between atoms: C_7  and  S_6 
REMARK    3  A    between atoms: C_10  and  C_7 
REMARK    4  A    between atoms: C_11  and  C_10 
ROOT
ATOM      1  C   UNL d   1      33.190  22.406 -20.735  0.00  0.00     0.194 A 
ATOM      2  N   UNL d   1      33.083  21.599 -20.951  0.00  0.00    -0.220 NA
ATOM      3  N   UNL d   1      33.185  22.853 -21.430  0.00  0.00    -0.220 NA
ATOM      4  C   UNL d   1      33.016  21.562 -21.755  0.00  0.00     0.101 A 
ATOM      5  C   UNL d   1      33.080  22.353 -22.057  0.00  0.00     0.101 A 
ATOM      6  C   UNL d   1      32.904  20.953 -22.310  0.00  0.00     0.021 A 
ATOM      7  C   UNL d   1      33.032  22.490 -22.869  0.00  0.00     0.021 A 
ATOM      8  C   UNL d   1      32.921  21.858 -23.388  0.00  0.00     0.002 A 
ATOM      9  C   UNL d   1      32.858  21.093 -23.096  0.00  0.00     0.002 A 
ENDROOT
BRANCH   1  10
ATOM     10  S   UNL d   1      33.239  22.274 -19.924  0.00  0.00    -0.048 SA
BRANCH  10  11
ATOM     11  C   UNL d   1      33.179  22.902 -19.389  0.00  0.00     0.038 C 
BRANCH  11  12
ATOM     12  C   UNL d   1      32.497  22.985 -18.933  0.00  0.00     0.007 C 
BRANCH  12  13
ATOM     13  C   UNL d   1      32.542  23.413 -18.242  0.00  0.00     0.001 C 
ATOM     14  C   UNL d   1      31.840  23.660 -17.886  0.00  0.00     0.000 C 
ATOM     15  C   UNL d   1      33.127  23.701 -17.743  0.00  0.00     0.000 C 
ENDBRANCH  12  13
ENDBRANCH  11  12
ENDBRANCH  10  11
ENDBRANCH   1  10
TORSDOF 4
ENDMDL
