MODEL 1
REMARK VINA RESULT:      75.0      0.000      0.000
REMARK  5 active torsions:
REMARK  status: ('A' for Active; 'I' for Inactive)
REMARK    1  A    between atoms: O_8  and  S_1 
REMARK    2  A    between atoms: C_9  and  S_1 
REMARK    3  A    between atoms: C_7  and  C_2 
REMARK    4  A    between atoms: C_20  and  C_7 
REMARK    5  A    between atoms: C_14  and  O_8 
ROOT
ATOM      1  C   UNL d   1     -52.774  24.626  33.320  0.00  0.00     0.139 A 
ATOM      2  C   UNL d   1     -52.098  25.771  33.312  0.00  0.00     0.064 A 
ATOM      3  C   UNL d   1     -52.854  25.448  33.313  0.00  0.00     0.220 A 
ATOM      4  C   UNL d   1     -51.549  25.156  33.319  0.00  0.00     0.105 A 
ATOM      5  O   UNL d   1     -51.969  24.445  33.323  0.00  0.00    -0.304 OA
ATOM      6  C   UNL d   1     -50.752  25.326  33.319  0.00  0.00     0.050 A 
ATOM      7  C   UNL d   1     -51.841  26.554  33.306  0.00  0.00     0.007 A 
ATOM      8  C   UNL d   1     -50.494  26.108  33.314  0.00  0.00     0.116 A 
ATOM      9  O   UNL d   1     -53.568  25.860  33.307  0.00  0.00    -0.284 OA
ATOM     10  C   UNL d   1     -51.038  26.718  33.307  0.00  0.00     0.026 A 
ENDROOT
BRANCH   8  11
ATOM     11  O   UNL d   1     -49.689  26.275  33.314  0.00  0.00    -0.227 OA
BRANCH  11  12
ATOM     12  S   UNL d   1     -49.397  26.903  33.763  0.00  0.00     0.304 S 
ATOM     13  O   UNL d   1     -48.736  26.467  33.945  0.00  0.00    -0.193 OA
ATOM     14  O   UNL d   1     -50.060  27.354  33.587  0.00  0.00    -0.193 OA
BRANCH  12  15
ATOM     15  C   UNL d   1     -49.098  27.535  34.218  0.00  0.00     0.111 A 
ATOM     16  C   UNL d   1     -48.944  27.422  35.022  0.00  0.00     0.014 A 
ATOM     17  C   UNL d   1     -48.649  28.047  35.473  0.00  0.00     0.012 A 
ATOM     18  C   UNL d   1     -48.507  28.785  35.119  0.00  0.00     0.058 A 
ATOM     19  C   UNL d   1     -48.666  28.886  34.311  0.00  0.00     0.012 A 
ATOM     20 CL   UNL d   1     -48.217  29.400  35.562  0.00  0.00    -0.082 Cl
ATOM     21  C   UNL d   1     -48.962  28.259  33.864  0.00  0.00     0.014 A 
ENDBRANCH  12  15
ENDBRANCH  11  12
ENDBRANCH   8  11
BRANCH   1  22
ATOM     22  C   UNL d   1     -53.390  24.077  33.322  0.00  0.00     0.029 C 
BRANCH  22  23
ATOM     23  C   UNL d   1     -53.685  23.779  34.036  0.00  0.00     0.021 A 
ATOM     24  C   UNL d   1     -53.200  23.773  34.698  0.00  0.00     0.099 A 
ATOM     25  N   UNL d   1     -53.480  23.481  35.411  0.00  0.00    -0.242 NA
ATOM     26  C   UNL d   1     -54.259  23.189  35.462  0.00  0.00     0.099 A 
ATOM     27  C   UNL d   1     -54.744  23.197  34.793  0.00  0.00     0.021 A 
ATOM     28  C   UNL d   1     -54.449  23.495  34.079  0.00  0.00     0.003 A 
ENDBRANCH  22  23
ENDBRANCH   1  22
TORSDOF 5
ENDMDL
MODEL 2
REMARK VINA RESULT:      75.6      3.450      6.976
REMARK  5 active torsions:
REMARK  status: ('A' for Active; 'I' for Inactive)
REMARK    1  A    between atoms: O_8  and  S_1 
REMARK    2  A    between atoms: C_9  and  S_1 
REMARK    3  A    between atoms: C_7  and  C_2 
REMARK    4  A    between atoms: C_20  and  C_7 
REMARK    5  A    between atoms: C_14  and  O_8 
ROOT
ATOM      1  C   UNL d   1     -47.383  31.085  35.133  0.00  0.00     0.139 A 
ATOM      2  C   UNL d   1     -47.589  29.902  35.704  0.00  0.00     0.064 A 
ATOM      3  C   UNL d   1     -47.402  30.688  35.856  0.00  0.00     0.220 A 
ATOM      4  C   UNL d   1     -47.687  29.808  34.890  0.00  0.00     0.105 A 
ATOM      5  O   UNL d   1     -47.559  30.543  34.537  0.00  0.00    -0.304 OA
ATOM      6  C   UNL d   1     -47.877  29.075  34.588  0.00  0.00     0.050 A 
ATOM      7  C   UNL d   1     -47.683  29.257  36.208  0.00  0.00     0.007 A 
ATOM      8  C   UNL d   1     -47.971  28.430  35.092  0.00  0.00     0.116 A 
ATOM      9  O   UNL d   1     -47.257  31.027  36.594  0.00  0.00    -0.284 OA
ATOM     10  C   UNL d   1     -47.874  28.523  35.898  0.00  0.00     0.026 A 
ENDROOT
BRANCH   8  11
ATOM     11  O   UNL d   1     -48.162  27.693  34.782  0.00  0.00    -0.227 OA
BRANCH  11  12
ATOM     12  S   UNL d   1     -48.918  27.554  34.483  0.00  0.00     0.304 S 
ATOM     13  O   UNL d   1     -49.207  27.494  35.240  0.00  0.00    -0.193 OA
ATOM     14  O   UNL d   1     -48.638  27.613  33.713  0.00  0.00    -0.193 OA
BRANCH  12  15
ATOM     15  C   UNL d   1     -49.684  27.413  34.185  0.00  0.00     0.111 A 
ATOM     16  C   UNL d   1     -50.128  26.782  34.482  0.00  0.00     0.014 A 
ATOM     17  C   UNL d   1     -50.886  26.642  34.187  0.00  0.00     0.012 A 
ATOM     18  C   UNL d   1     -51.200  27.133  33.596  0.00  0.00     0.058 A 
ATOM     19  C   UNL d   1     -50.745  27.763  33.306  0.00  0.00     0.012 A 
ATOM     20 CL   UNL d   1     -51.946  26.996  33.306  0.00  0.00    -0.082 Cl
ATOM     21  C   UNL d   1     -49.987  27.900  33.603  0.00  0.00     0.014 A 
ENDBRANCH  12  15
ENDBRANCH  11  12
ENDBRANCH   8  11
BRANCH   1  22
ATOM     22  C   UNL d   1     -47.218  31.886  35.021  0.00  0.00     0.029 C 
BRANCH  22  23
ATOM     23  C   UNL d   1     -47.624  32.323  34.446  0.00  0.00     0.021 A 
ATOM     24  C   UNL d   1     -48.392  32.112  34.252  0.00  0.00     0.099 A 
ATOM     25  N   UNL d   1     -48.805  32.536  33.685  0.00  0.00    -0.242 NA
ATOM     26  C   UNL d   1     -48.442  33.184  33.306  0.00  0.00     0.099 A 
ATOM     27  C   UNL d   1     -47.667  33.392  33.505  0.00  0.00     0.021 A 
ATOM     28  C   UNL d   1     -47.262  32.955  34.079  0.00  0.00     0.003 A 
ENDBRANCH  22  23
ENDBRANCH   1  22
TORSDOF 5
ENDMDL
