MODEL 1
REMARK VINA RESULT:      90.1      0.000      0.000
REMARK  5 active torsions:
REMARK  status: ('A' for Active; 'I' for Inactive)
REMARK    1  A    between atoms: C_18  and  N_1 
REMARK    2  A    between atoms: C_13  and  C_6 
REMARK    3  A    between atoms: C_12  and  C_7 
REMARK    4  A    between atoms: C_23  and  C_14 
REMARK    5  A    between atoms: C_19  and  C_18 
ROOT
ATOM      1  C   UNL d   1     -57.749 -98.781 -46.545  0.00  0.00     0.121 A 
ATOM      2  C   UNL d   1     -58.081 -98.826 -45.787  0.00  0.00     0.058 A 
ATOM      3  N   UNL d   1     -58.370 -98.760 -47.087  0.00  0.00    -0.195 NA
ATOM      4  S   UNL d   1     -56.931 -98.765 -46.635  0.00  0.00    -0.068 SA
ATOM      5  C   UNL d   1     -56.438 -98.794 -45.972  0.00  0.00     0.026 A 
ATOM      6  C   UNL d   1     -56.770 -98.839 -45.214  0.00  0.00    -0.001 A 
ATOM      7  C   UNL d   1     -55.544 -98.798 -45.680  0.00  0.00    -0.011 A 
ATOM      8  C   UNL d   1     -56.018 -98.847 -44.885  0.00  0.00    -0.027 A 
ATOM      9  C   UNL d   1     -57.593 -98.855 -45.123  0.00  0.00     0.008 A 
ATOM     10  C   UNL d   1     -59.080 -98.792 -46.666  0.00  0.00     0.311 A 
ATOM     11  S   UNL d   1     -58.904 -98.833 -45.868  0.00  0.00    -0.024 SA
ATOM     12  C   UNL d   1     -54.774 -98.772 -45.971  0.00  0.00     0.049 A 
ATOM     13  O   UNL d   1     -59.836 -98.785 -46.997  0.00  0.00    -0.258 OA
ENDROOT
BRANCH   9  14
ATOM     14  C   UNL d   1     -57.922 -98.900 -44.373  0.00  0.00     0.001 A 
ATOM     15  C   UNL d   1     -57.456 -98.780 -43.704  0.00  0.00     0.000 A 
ATOM     16  C   UNL d   1     -57.786 -98.825 -42.950  0.00  0.00     0.000 A 
ATOM     17  C   UNL d   1     -58.587 -98.990 -42.853  0.00  0.00     0.000 A 
ATOM     18  C   UNL d   1     -59.060 -99.111 -43.525  0.00  0.00     0.000 A 
ATOM     19  C   UNL d   1     -58.730 -99.066 -44.278  0.00  0.00     0.000 A 
ENDBRANCH   9  14
BRANCH   8  20
ATOM     20  C   UNL d   1     -55.805 -98.886 -44.095  0.00  0.00     0.125 A 
ATOM     21  C   UNL d   1     -55.535 -99.387 -43.497  0.00  0.00     0.251 A 
ATOM     22  N   UNL d   1     -55.446-100.141 -43.825  0.00  0.00    -0.239 N 
ATOM     23  O   UNL d   1     -55.380 -99.176 -42.708  0.00  0.00    -0.271 OA
ATOM     24  C   UNL d   1     -55.657-100.109 -44.612  0.00  0.00     0.263 A 
ATOM     25  C   UNL d   1     -55.882 -99.325 -44.784  0.00  0.00     0.044 A 
ATOM     26  O   UNL d   1     -55.647-100.747 -45.140  0.00  0.00    -0.267 OA
BRANCH  22  27
ATOM     27  C   UNL d   1     -55.181-100.832 -43.414  0.00  0.00     0.134 C 
ATOM     28  C   UNL d   1     -55.010-100.799 -42.588  0.00  0.00     0.026 C 
BRANCH  27  29
ATOM     29  C   UNL d   1     -55.087-101.566 -43.836  0.00  0.00     0.228 C 
ATOM     30  O   UNL d   1     -55.338-101.623 -44.642  0.00  0.00    -0.643 OA
ATOM     31  O   UNL d   1     -54.744-102.228 -43.447  0.00  0.00    -0.643 OA
ENDBRANCH  27  29
ENDBRANCH  22  27
ENDBRANCH   8  20
TORSDOF 5
ENDMDL
