MODEL 1
REMARK VINA RESULT:      -6.9      0.000      0.000
REMARK  4 active torsions:
REMARK  status: ('A' for Active; 'I' for Inactive)
REMARK       I    between atoms: C_3  and  N_1 
REMARK    1  A    between atoms: C_5  and  N_2 
REMARK    2  A    between atoms: C_4  and  C_3 
REMARK    3  A    between atoms: C_7  and  C_4 
REMARK    4  A    between atoms: C_13  and  C_7 
ROOT
ATOM      1  N   UNL d   1     -47.864  11.949  23.221  0.00  0.00    -0.269 N 
ATOM      2  N   UNL d   1     -48.858  13.222  22.860  0.00  0.00    -0.301 N 
ATOM      3  C   UNL d   1     -47.380  11.312  23.402  0.00  0.00     0.265 C 
ATOM      4  C   UNL d   1     -48.693  11.877  23.310  0.00  0.00     0.102 A 
ATOM      5  C   UNL d   1     -47.547  12.660  22.951  0.00  0.00     0.102 A 
ATOM      6  C   UNL d   1     -49.189  12.515  23.129  0.00  0.00     0.100 A 
ATOM      7  C   UNL d   1     -48.037  13.298  22.770  0.00  0.00     0.100 A 
ATOM      8  O   UNL d   1     -47.696  10.606  23.670  0.00  0.00    -0.267 OA
ENDROOT
BRANCH   3   9
ATOM      9  C   UNL d   1     -46.559  11.382  23.314  0.00  0.00     0.061 C 
BRANCH   9  10
ATOM     10  C   UNL d   1     -46.052  10.848  23.691  0.00  0.00     0.005 C 
BRANCH  10  11
ATOM     11  C   UNL d   1     -45.256  10.829  23.493  0.00  0.00     0.000 A 
ATOM     12  C   UNL d   1     -44.928  11.463  23.086  0.00  0.00     0.002 A 
ATOM     13  C   UNL d   1     -44.129  11.450  22.884  0.00  0.00     0.030 A 
ATOM     14  C   UNL d   1     -43.662  10.796  23.094  0.00  0.00     0.140 A 
ATOM     15  C   UNL d   1     -44.002  10.170  23.500  0.00  0.00     0.030 A 
ATOM     16  F   UNL d   1     -42.863  10.783  22.892  0.00  0.00    -0.204 F 
ATOM     17  C   UNL d   1     -44.798  10.188  23.698  0.00  0.00     0.002 A 
ENDBRANCH  10  11
ENDBRANCH   9  10
ENDBRANCH   3   9
BRANCH   2  18
ATOM     18  C   UNL d   1     -49.349  13.863  22.678  0.00  0.00     0.065 A 
ATOM     19  C   UNL d   1     -49.331  14.542  23.149  0.00  0.00     0.029 A 
ATOM     20  C   UNL d   1     -49.819  15.182  22.971  0.00  0.00     0.059 A 
ATOM     21 CL   UNL d   1     -49.800  15.860  23.442  0.00  0.00    -0.082 Cl
ATOM     22  C   UNL d   1     -50.328  15.145  22.320  0.00  0.00     0.011 A 
ATOM     23  C   UNL d   1     -50.342  14.461  21.851  0.00  0.00     0.002 A 
ATOM     24  C   UNL d   1     -49.852  13.818  22.030  0.00  0.00     0.018 A 
ENDBRANCH   2  18
TORSDOF 4
ENDMDL
MODEL 2
REMARK VINA RESULT:      -6.6      8.771     10.309
REMARK  4 active torsions:
REMARK  status: ('A' for Active; 'I' for Inactive)
REMARK       I    between atoms: C_3  and  N_1 
REMARK    1  A    between atoms: C_5  and  N_2 
REMARK    2  A    between atoms: C_4  and  C_3 
REMARK    3  A    between atoms: C_7  and  C_4 
REMARK    4  A    between atoms: C_13  and  C_7 
ROOT
ATOM      1  N   UNL d   1     -39.767  14.535  18.711  0.00  0.00    -0.269 N 
ATOM      2  N   UNL d   1     -39.043  14.728  17.235  0.00  0.00    -0.301 N 
ATOM      3  C   UNL d   1     -40.135  14.437  19.437  0.00  0.00     0.265 C 
ATOM      4  C   UNL d   1     -40.206  14.425  18.007  0.00  0.00     0.102 A 
ATOM      5  C   UNL d   1     -38.971  14.741  18.663  0.00  0.00     0.102 A 
ATOM      6  C   UNL d   1     -39.842  14.521  17.270  0.00  0.00     0.100 A 
ATOM      7  C   UNL d   1     -38.604  14.838  17.930  0.00  0.00     0.100 A 
ATOM      8  O   UNL d   1     -40.926  14.233  19.484  0.00  0.00    -0.267 OA
ENDROOT
BRANCH   3   9
ATOM      9  C   UNL d   1     -39.701  14.546  20.135  0.00  0.00     0.061 C 
BRANCH   9  10
ATOM     10  C   UNL d   1     -40.076  14.497  20.871  0.00  0.00     0.005 C 
BRANCH  10  11
ATOM     11  C   UNL d   1     -39.645  14.613  21.559  0.00  0.00     0.000 A 
ATOM     12  C   UNL d   1     -39.520  15.378  21.831  0.00  0.00     0.002 A 
ATOM     13  C   UNL d   1     -39.087  15.501  22.522  0.00  0.00     0.030 A 
ATOM     14  C   UNL d   1     -38.781  14.850  22.937  0.00  0.00     0.140 A 
ATOM     15  C   UNL d   1     -38.912  14.092  22.655  0.00  0.00     0.030 A 
ATOM     16  F   UNL d   1     -38.348  14.974  23.627  0.00  0.00    -0.204 F 
ATOM     17  C   UNL d   1     -39.344  13.976  21.967  0.00  0.00     0.002 A 
ENDBRANCH  10  11
ENDBRANCH   9  10
ENDBRANCH   3   9
BRANCH   2  18
ATOM     18  C   UNL d   1     -38.675  14.826  16.501  0.00  0.00     0.065 A 
ATOM     19  C   UNL d   1     -38.491  14.163  16.042  0.00  0.00     0.029 A 
ATOM     20  C   UNL d   1     -38.125  14.257  15.309  0.00  0.00     0.059 A 
ATOM     21 CL   UNL d   1     -37.941  13.594  14.852  0.00  0.00    -0.082 Cl
ATOM     22  C   UNL d   1     -37.941  15.014  15.032  0.00  0.00     0.011 A 
ATOM     23  C   UNL d   1     -38.129  15.675  15.496  0.00  0.00     0.002 A 
ATOM     24  C   UNL d   1     -38.497  15.581  16.232  0.00  0.00     0.018 A 
ENDBRANCH   2  18
TORSDOF 4
ENDMDL
MODEL 3
REMARK VINA RESULT:      -6.4      1.212      1.578
REMARK  4 active torsions:
REMARK  status: ('A' for Active; 'I' for Inactive)
REMARK       I    between atoms: C_3  and  N_1 
REMARK    1  A    between atoms: C_5  and  N_2 
REMARK    2  A    between atoms: C_4  and  C_3 
REMARK    3  A    between atoms: C_7  and  C_4 
REMARK    4  A    between atoms: C_13  and  C_7 
ROOT
ATOM      1  N   UNL d   1     -47.455  12.863  23.088  0.00  0.00    -0.269 N 
ATOM      2  N   UNL d   1     -48.844  13.740  22.887  0.00  0.00    -0.301 N 
ATOM      3  C   UNL d   1     -46.772  12.422  23.194  0.00  0.00     0.265 C 
ATOM      4  C   UNL d   1     -48.163  12.625  23.464  0.00  0.00     0.102 A 
ATOM      5  C   UNL d   1     -47.455  13.539  22.617  0.00  0.00     0.102 A 
ATOM      6  C   UNL d   1     -48.858  13.065  23.362  0.00  0.00     0.100 A 
ATOM      7  C   UNL d   1     -48.144  13.980  22.513  0.00  0.00     0.100 A 
ATOM      8  O   UNL d   1     -46.773  11.751  23.663  0.00  0.00    -0.267 OA
ENDROOT
BRANCH   3   9
ATOM      9  C   UNL d   1     -46.069  12.657  22.822  0.00  0.00     0.061 C 
BRANCH   9  10
ATOM     10  C   UNL d   1     -45.388  12.193  22.887  0.00  0.00     0.005 C 
BRANCH  10  11
ATOM     11  C   UNL d   1     -44.734  12.357  22.419  0.00  0.00     0.000 A 
ATOM     12  C   UNL d   1     -44.060  11.894  22.493  0.00  0.00     0.002 A 
ATOM     13  C   UNL d   1     -43.400  12.054  22.026  0.00  0.00     0.030 A 
ATOM     14  C   UNL d   1     -43.423  12.682  21.484  0.00  0.00     0.140 A 
ATOM     15  C   UNL d   1     -44.102  13.137  21.419  0.00  0.00     0.030 A 
ATOM     16  F   UNL d   1     -42.763  12.842  21.016  0.00  0.00    -0.204 F 
ATOM     17  C   UNL d   1     -44.756  12.973  21.887  0.00  0.00     0.002 A 
ENDBRANCH  10  11
ENDBRANCH   9  10
ENDBRANCH   3   9
BRANCH   2  18
ATOM     18  C   UNL d   1     -49.535  14.183  22.783  0.00  0.00     0.065 A 
ATOM     19  C   UNL d   1     -49.692  14.824  23.280  0.00  0.00     0.029 A 
ATOM     20  C   UNL d   1     -50.379  15.268  23.179  0.00  0.00     0.059 A 
ATOM     21 CL   UNL d   1     -50.534  15.909  23.677  0.00  0.00    -0.082 Cl
ATOM     22  C   UNL d   1     -50.914  15.072  22.580  0.00  0.00     0.011 A 
ATOM     23  C   UNL d   1     -50.752  14.427  22.084  0.00  0.00     0.002 A 
ATOM     24  C   UNL d   1     -50.061  13.982  22.185  0.00  0.00     0.018 A 
ENDBRANCH   2  18
TORSDOF 4
ENDMDL
MODEL 4
REMARK VINA RESULT:      -6.3      8.620     10.064
REMARK  4 active torsions:
REMARK  status: ('A' for Active; 'I' for Inactive)
REMARK       I    between atoms: C_3  and  N_1 
REMARK    1  A    between atoms: C_5  and  N_2 
REMARK    2  A    between atoms: C_4  and  C_3 
REMARK    3  A    between atoms: C_7  and  C_4 
REMARK    4  A    between atoms: C_13  and  C_7 
ROOT
ATOM      1  N   UNL d   1     -39.849  14.558  19.772  0.00  0.00    -0.269 N 
ATOM      2  N   UNL d   1     -39.308  14.833  21.312  0.00  0.00    -0.301 N 
ATOM      3  C   UNL d   1     -40.127  14.419  19.013  0.00  0.00     0.265 C 
ATOM      4  C   UNL d   1     -40.367  14.472  20.424  0.00  0.00     0.102 A 
ATOM      5  C   UNL d   1     -39.067  14.780  19.904  0.00  0.00     0.102 A 
ATOM      6  C   UNL d   1     -40.095  14.610  21.193  0.00  0.00     0.100 A 
ATOM      7  C   UNL d   1     -38.791  14.918  20.669  0.00  0.00     0.100 A 
ATOM      8  O   UNL d   1     -40.904  14.198  18.883  0.00  0.00    -0.267 OA
ENDROOT
BRANCH   3   9
ATOM      9  C   UNL d   1     -39.615  14.503  18.367  0.00  0.00     0.061 C 
BRANCH   9  10
ATOM     10  C   UNL d   1     -39.892  14.382  17.597  0.00  0.00     0.005 C 
BRANCH  10  11
ATOM     11  C   UNL d   1     -39.404  14.540  16.956  0.00  0.00     0.000 A 
ATOM     12  C   UNL d   1     -39.298  15.318  16.714  0.00  0.00     0.002 A 
ATOM     13  C   UNL d   1     -38.810  15.484  16.072  0.00  0.00     0.030 A 
ATOM     14  C   UNL d   1     -38.428  14.863  15.674  0.00  0.00     0.140 A 
ATOM     15  C   UNL d   1     -38.542  14.091  15.925  0.00  0.00     0.030 A 
ATOM     16  F   UNL d   1     -37.940  15.029  15.032  0.00  0.00    -0.204 F 
ATOM     17  C   UNL d   1     -39.029  13.932  16.566  0.00  0.00     0.002 A 
ENDBRANCH  10  11
ENDBRANCH   9  10
ENDBRANCH   3   9
BRANCH   2  18
ATOM     18  C   UNL d   1     -39.032  14.972  22.079  0.00  0.00     0.065 A 
ATOM     19  C   UNL d   1     -38.680  14.358  22.507  0.00  0.00     0.029 A 
ATOM     20  C   UNL d   1     -38.403  14.492  23.271  0.00  0.00     0.059 A 
ATOM     21 CL   UNL d   1     -38.052  13.878  23.698  0.00  0.00    -0.082 Cl
ATOM     22  C   UNL d   1     -38.478  15.242  23.613  0.00  0.00     0.011 A 
ATOM     23  C   UNL d   1     -38.832  15.854  23.179  0.00  0.00     0.002 A 
ATOM     24  C   UNL d   1     -39.109  15.719  22.411  0.00  0.00     0.018 A 
ENDBRANCH   2  18
TORSDOF 4
ENDMDL
MODEL 5
REMARK VINA RESULT:      -6.1      2.541      5.536
REMARK  4 active torsions:
REMARK  status: ('A' for Active; 'I' for Inactive)
REMARK       I    between atoms: C_3  and  N_1 
REMARK    1  A    between atoms: C_5  and  N_2 
REMARK    2  A    between atoms: C_4  and  C_3 
REMARK    3  A    between atoms: C_7  and  C_4 
REMARK    4  A    between atoms: C_13  and  C_7 
ROOT
ATOM      1  N   UNL d   1     -47.604  11.625  23.454  0.00  0.00    -0.269 N 
ATOM      2  N   UNL d   1     -46.013  11.180  23.365  0.00  0.00    -0.301 N 
ATOM      3  C   UNL d   1     -48.395  11.835  23.499  0.00  0.00     0.265 C 
ATOM      4  C   UNL d   1     -47.388  10.818  23.500  0.00  0.00     0.102 A 
ATOM      5  C   UNL d   1     -47.017  12.196  23.364  0.00  0.00     0.102 A 
ATOM      6  C   UNL d   1     -46.591  10.597  23.456  0.00  0.00     0.100 A 
ATOM      7  C   UNL d   1     -46.223  11.981  23.319  0.00  0.00     0.100 A 
ATOM      8  O   UNL d   1     -48.978  11.267  23.588  0.00  0.00    -0.267 OA
ENDROOT
BRANCH   3   9
ATOM      9  C   UNL d   1     -48.611  12.635  23.453  0.00  0.00     0.061 C 
BRANCH   9  10
ATOM     10  C   UNL d   1     -49.402  12.859  23.547  0.00  0.00     0.005 C 
BRANCH  10  11
ATOM     11  C   UNL d   1     -49.659  13.583  23.260  0.00  0.00     0.000 A 
ATOM     12  C   UNL d   1     -50.234  13.603  22.674  0.00  0.00     0.002 A 
ATOM     13  C   UNL d   1     -50.497  14.328  22.382  0.00  0.00     0.030 A 
ATOM     14  C   UNL d   1     -50.176  15.032  22.683  0.00  0.00     0.140 A 
ATOM     15  C   UNL d   1     -49.602  14.999  23.267  0.00  0.00     0.030 A 
ATOM     16  F   UNL d   1     -50.439  15.757  22.390  0.00  0.00    -0.204 F 
ATOM     17  C   UNL d   1     -49.345  14.275  23.554  0.00  0.00     0.002 A 
ENDBRANCH  10  11
ENDBRANCH   9  10
ENDBRANCH   3   9
BRANCH   2  18
ATOM     18  C   UNL d   1     -45.215  10.964  23.320  0.00  0.00     0.065 A 
ATOM     19  C   UNL d   1     -44.685  11.435  22.896  0.00  0.00     0.029 A 
ATOM     20  C   UNL d   1     -43.890  11.223  22.849  0.00  0.00     0.059 A 
ATOM     21 CL   UNL d   1     -43.361  11.694  22.424  0.00  0.00    -0.082 Cl
ATOM     22  C   UNL d   1     -43.621  10.537  23.226  0.00  0.00     0.011 A 
ATOM     23  C   UNL d   1     -44.158  10.069  23.651  0.00  0.00     0.002 A 
ATOM     24  C   UNL d   1     -44.956  10.282  23.698  0.00  0.00     0.018 A 
ENDBRANCH   2  18
TORSDOF 4
ENDMDL
MODEL 6
REMARK VINA RESULT:      -5.1      3.310      4.282
REMARK  4 active torsions:
REMARK  status: ('A' for Active; 'I' for Inactive)
REMARK       I    between atoms: C_3  and  N_1 
REMARK    1  A    between atoms: C_5  and  N_2 
REMARK    2  A    between atoms: C_4  and  C_3 
REMARK    3  A    between atoms: C_7  and  C_4 
REMARK    4  A    between atoms: C_13  and  C_7 
ROOT
ATOM      1  N   UNL d   1     -44.290  12.769  21.985  0.00  0.00    -0.269 N 
ATOM      2  N   UNL d   1     -45.852  13.107  22.415  0.00  0.00    -0.301 N 
ATOM      3  C   UNL d   1     -43.517  12.592  21.777  0.00  0.00     0.265 C 
ATOM      4  C   UNL d   1     -44.739  12.213  22.419  0.00  0.00     0.102 A 
ATOM      5  C   UNL d   1     -44.633  13.488  21.774  0.00  0.00     0.102 A 
ATOM      6  C   UNL d   1     -45.520  12.383  22.633  0.00  0.00     0.100 A 
ATOM      7  C   UNL d   1     -45.410  13.662  21.984  0.00  0.00     0.100 A 
ATOM      8  O   UNL d   1     -43.177  11.878  21.988  0.00  0.00    -0.267 OA
ENDROOT
BRANCH   3   9
ATOM      9  C   UNL d   1     -43.071  13.143  21.347  0.00  0.00     0.061 C 
BRANCH   9  10
ATOM     10  C   UNL d   1     -42.259  13.027  21.236  0.00  0.00     0.005 C 
BRANCH  10  11
ATOM     11  C   UNL d   1     -41.801  13.623  20.907  0.00  0.00     0.000 A 
ATOM     12  C   UNL d   1     -41.715  13.659  20.091  0.00  0.00     0.002 A 
ATOM     13  C   UNL d   1     -41.256  14.255  19.754  0.00  0.00     0.030 A 
ATOM     14  C   UNL d   1     -40.886  14.814  20.243  0.00  0.00     0.140 A 
ATOM     15  C   UNL d   1     -40.979  14.767  21.056  0.00  0.00     0.030 A 
ATOM     16  F   UNL d   1     -40.427  15.411  19.906  0.00  0.00    -0.204 F 
ATOM     17  C   UNL d   1     -41.437  14.172  21.385  0.00  0.00     0.002 A 
ENDBRANCH  10  11
ENDBRANCH   9  10
ENDBRANCH   3   9
BRANCH   2  18
ATOM     18  C   UNL d   1     -46.632  13.282  22.626  0.00  0.00     0.065 A 
ATOM     19  C   UNL d   1     -47.185  12.672  22.700  0.00  0.00     0.029 A 
ATOM     20  C   UNL d   1     -47.963  12.842  22.910  0.00  0.00     0.059 A 
ATOM     21 CL   UNL d   1     -48.515  12.231  22.983  0.00  0.00    -0.082 Cl
ATOM     22  C   UNL d   1     -48.193  13.625  23.049  0.00  0.00     0.011 A 
ATOM     23  C   UNL d   1     -47.634  14.233  22.974  0.00  0.00     0.002 A 
ATOM     24  C   UNL d   1     -46.852  14.062  22.762  0.00  0.00     0.018 A 
ENDBRANCH   2  18
TORSDOF 4
ENDMDL
MODEL 7
REMARK VINA RESULT:      -4.6      2.929      5.449
REMARK  4 active torsions:
REMARK  status: ('A' for Active; 'I' for Inactive)
REMARK       I    between atoms: C_3  and  N_1 
REMARK    1  A    between atoms: C_5  and  N_2 
REMARK    2  A    between atoms: C_4  and  C_3 
REMARK    3  A    between atoms: C_7  and  C_4 
REMARK    4  A    between atoms: C_13  and  C_7 
ROOT
ATOM      1  N   UNL d   1     -46.630  13.562  22.601  0.00  0.00    -0.269 N 
ATOM      2  N   UNL d   1     -45.106  13.039  22.226  0.00  0.00    -0.301 N 
ATOM      3  C   UNL d   1     -47.383  13.831  22.784  0.00  0.00     0.265 C 
ATOM      4  C   UNL d   1     -46.045  14.107  22.355  0.00  0.00     0.102 A 
ATOM      5  C   UNL d   1     -46.440  12.763  22.654  0.00  0.00     0.102 A 
ATOM      6  C   UNL d   1     -45.283  13.844  22.168  0.00  0.00     0.100 A 
ATOM      7  C   UNL d   1     -45.683  12.496  22.469  0.00  0.00     0.100 A 
ATOM      8  O   UNL d   1     -47.570  14.626  22.730  0.00  0.00    -0.267 OA
ENDROOT
BRANCH   3   9
ATOM      9  C   UNL d   1     -47.964  13.292  23.028  0.00  0.00     0.061 C 
BRANCH   9  10
ATOM     10  C   UNL d   1     -48.765  13.494  22.982  0.00  0.00     0.005 C 
BRANCH  10  11
ATOM     11  C   UNL d   1     -49.338  12.927  23.133  0.00  0.00     0.000 A 
ATOM     12  C   UNL d   1     -49.133  12.246  23.543  0.00  0.00     0.002 A 
ATOM     13  C   UNL d   1     -49.705  11.673  23.698  0.00  0.00     0.030 A 
ATOM     14  C   UNL d   1     -50.484  11.790  23.438  0.00  0.00     0.140 A 
ATOM     15  C   UNL d   1     -50.677  12.474  23.030  0.00  0.00     0.030 A 
ATOM     16  F   UNL d   1     -51.056  11.217  23.594  0.00  0.00    -0.204 F 
ATOM     17  C   UNL d   1     -50.104  13.041  22.879  0.00  0.00     0.002 A 
ENDBRANCH  10  11
ENDBRANCH   9  10
ENDBRANCH   3   9
BRANCH   2  18
ATOM     18  C   UNL d   1     -44.345  12.772  22.039  0.00  0.00     0.065 A 
ATOM     19  C   UNL d   1     -43.887  13.185  21.490  0.00  0.00     0.029 A 
ATOM     20  C   UNL d   1     -43.129  12.922  21.301  0.00  0.00     0.059 A 
ATOM     21 CL   UNL d   1     -42.672  13.336  20.752  0.00  0.00    -0.082 Cl
ATOM     22  C   UNL d   1     -42.825  12.242  21.663  0.00  0.00     0.011 A 
ATOM     23  C   UNL d   1     -43.289  11.832  22.214  0.00  0.00     0.002 A 
ATOM     24  C   UNL d   1     -44.051  12.097  22.403  0.00  0.00     0.018 A 
ENDBRANCH   2  18
TORSDOF 4
ENDMDL
MODEL 8
REMARK VINA RESULT:      -4.3      4.420      6.684
REMARK  4 active torsions:
REMARK  status: ('A' for Active; 'I' for Inactive)
REMARK       I    between atoms: C_3  and  N_1 
REMARK    1  A    between atoms: C_5  and  N_2 
REMARK    2  A    between atoms: C_4  and  C_3 
REMARK    3  A    between atoms: C_7  and  C_4 
REMARK    4  A    between atoms: C_13  and  C_7 
ROOT
ATOM      1  N   UNL d   1     -43.370  13.063  21.588  0.00  0.00    -0.269 N 
ATOM      2  N   UNL d   1     -42.005  13.765  20.971  0.00  0.00    -0.301 N 
ATOM      3  C   UNL d   1     -44.041  12.706  21.896  0.00  0.00     0.265 C 
ATOM      4  C   UNL d   1     -42.664  12.621  21.515  0.00  0.00     0.102 A 
ATOM      5  C   UNL d   1     -43.380  13.852  21.351  0.00  0.00     0.102 A 
ATOM      6  C   UNL d   1     -41.981  12.973  21.206  0.00  0.00     0.100 A 
ATOM      7  C   UNL d   1     -42.703  14.207  21.042  0.00  0.00     0.100 A 
ATOM      8  O   UNL d   1     -44.031  11.922  22.132  0.00  0.00    -0.267 OA
ENDROOT
BRANCH   3   9
ATOM      9  C   UNL d   1     -44.742  13.143  21.969  0.00  0.00     0.061 C 
BRANCH   9  10
ATOM     10  C   UNL d   1     -45.370  12.851  22.421  0.00  0.00     0.005 C 
BRANCH  10  11
ATOM     11  C   UNL d   1     -46.068  13.279  22.478  0.00  0.00     0.000 A 
ATOM     12  C   UNL d   1     -46.751  12.983  22.132  0.00  0.00     0.002 A 
ATOM     13  C   UNL d   1     -47.455  13.409  22.186  0.00  0.00     0.030 A 
ATOM     14  C   UNL d   1     -47.466  14.134  22.590  0.00  0.00     0.140 A 
ATOM     15  C   UNL d   1     -46.778  14.420  22.930  0.00  0.00     0.030 A 
ATOM     16  F   UNL d   1     -48.170  14.560  22.643  0.00  0.00    -0.204 F 
ATOM     17  C   UNL d   1     -46.080  13.991  22.873  0.00  0.00     0.002 A 
ENDBRANCH  10  11
ENDBRANCH   9  10
ENDBRANCH   3   9
BRANCH   2  18
ATOM     18  C   UNL d   1     -41.325  14.122  20.661  0.00  0.00     0.065 A 
ATOM     19  C   UNL d   1     -41.191  14.112  19.846  0.00  0.00     0.029 A 
ATOM     20  C   UNL d   1     -40.516  14.466  19.533  0.00  0.00     0.059 A 
ATOM     21 CL   UNL d   1     -40.382  14.456  18.718  0.00  0.00    -0.082 Cl
ATOM     22  C   UNL d   1     -39.970  14.832  20.036  0.00  0.00     0.011 A 
ATOM     23  C   UNL d   1     -40.110  14.839  20.854  0.00  0.00     0.002 A 
ATOM     24  C   UNL d   1     -40.789  14.483  21.167  0.00  0.00     0.018 A 
ENDBRANCH   2  18
TORSDOF 4
ENDMDL
