MODEL 1
REMARK VINA RESULT:      47.8      0.000      0.000
REMARK  3 active torsions:
REMARK  status: ('A' for Active; 'I' for Inactive)
REMARK    1  A    between atoms: N_5  and  C_1 
REMARK    2  A    between atoms: C_8  and  C_3 
REMARK       I    between atoms: C_7  and  N_5 
REMARK    3  A    between atoms: C_13  and  C_7 
ROOT
ATOM      1  C   UNL d   1      13.427  13.450  -4.629  0.00  0.00     0.297 A 
ATOM      2  O   UNL d   1      13.525  13.474  -3.808  0.00  0.00    -0.253 OA
ATOM      3  C   UNL d   1      13.519  12.692  -3.528  0.00  0.00     0.206 A 
ATOM      4  N   UNL d   1      13.417  12.196  -4.176  0.00  0.00    -0.119 NA
ATOM      5  N   UNL d   1      13.361  12.664  -4.856  0.00  0.00    -0.101 NA
ENDROOT
BRANCH   3   6
ATOM      6  C   UNL d   1      13.601  12.462  -2.733  0.00  0.00     0.043 A 
ATOM      7  C   UNL d   1      14.337  12.522  -2.364  0.00  0.00     0.004 A 
ATOM      8  C   UNL d   1      14.418  12.296  -1.581  0.00  0.00     0.000 A 
ATOM      9  C   UNL d   1      15.159  12.359  -1.219  0.00  0.00     0.000 A 
ATOM     10  C   UNL d   1      13.765  12.011  -1.172  0.00  0.00     0.000 A 
ATOM     11  C   UNL d   1      15.247  12.136  -0.440  0.00  0.00     0.000 A 
ATOM     12  C   UNL d   1      14.597  11.846  -0.014  0.00  0.00     0.000 A 
ATOM     13  C   UNL d   1      13.855  11.780  -0.368  0.00  0.00     0.000 A 
ATOM     14  C   UNL d   1      13.038  11.947  -1.522  0.00  0.00     0.000 A 
ATOM     15  C   UNL d   1      12.947  12.171  -2.306  0.00  0.00     0.004 A 
ENDBRANCH   3   6
BRANCH   1  16
ATOM     16  N   UNL d   1      13.402  14.111  -5.127  0.00  0.00    -0.165 NA
ATOM     17  C   UNL d   1      13.565  14.857  -4.832  0.00  0.00     0.282 C 
ATOM     18  O   UNL d   1      13.758  14.962  -4.032  0.00  0.00    -0.265 OA
BRANCH  17  19
ATOM     19  C   UNL d   1      13.539  15.514  -5.333  0.00  0.00     0.058 A 
ATOM     20  C   UNL d   1      14.236  15.778  -5.684  0.00  0.00     0.005 A 
ATOM     21  C   UNL d   1      14.211  16.438  -6.187  0.00  0.00     0.000 A 
ATOM     22  C   UNL d   1      13.498  16.826  -6.333  0.00  0.00     0.000 A 
ATOM     23  C   UNL d   1      12.805  16.553  -5.977  0.00  0.00     0.000 A 
ATOM     24  C   UNL d   1      12.823  15.895  -5.475  0.00  0.00     0.005 A 
ENDBRANCH  17  19
ENDBRANCH   1  16
TORSDOF 3
ENDMDL
