MODEL 1
REMARK VINA RESULT:      45.0      0.000      0.000
REMARK  3 active torsions:
REMARK  status: ('A' for Active; 'I' for Inactive)
REMARK    1  A    between atoms: N_2  and  C_1 
REMARK    2  A    between atoms: C_4  and  C_1 
REMARK       I    between atoms: C_3  and  N_2 
REMARK       I    between atoms: N_5  and  C_3 
REMARK       I    between atoms: C_6  and  N_5 
REMARK    3  A    between atoms: C_11  and  C_6 
ROOT
ATOM      1  N   UNL d   1     -55.840-100.507 -44.174  0.00  0.00    -0.159 NA
ATOM      2  C   UNL d   1     -56.626-100.691 -43.958  0.00  0.00     0.371 C 
ATOM      3  N   UNL d   1     -57.212-100.108 -43.989  0.00  0.00    -0.152 NA
ATOM      4  C   UNL d   1     -57.020 -99.334 -44.236  0.00  0.00     0.283 C 
ATOM      5  O   UNL d   1     -56.789-101.437 -43.725  0.00  0.00    -0.243 OA
ATOM      6  O   UNL d   1     -57.595 -98.762 -44.266  0.00  0.00    -0.265 OA
ENDROOT
BRANCH   1   7
ATOM      7  C   UNL d   1     -55.253-101.087 -44.144  0.00  0.00     0.386 A 
ATOM      8  O   UNL d   1     -55.604-100.715 -43.488  0.00  0.00    -0.281 OA
ATOM      9  C   UNL d   1     -55.264-101.026 -42.809  0.00  0.00     0.147 A 
ATOM     10  C   UNL d   1     -54.713-101.579 -43.032  0.00  0.00     0.147 A 
ATOM     11  O   UNL d   1     -54.721-101.603 -43.871  0.00  0.00    -0.281 OA
BRANCH   7  12
ATOM     12  C   UNL d   1     -55.068-101.299 -44.924  0.00  0.00     0.470 C 
ATOM     13  F   UNL d   1     -55.423-102.040 -44.805  0.00  0.00    -0.164 F 
ATOM     14  F   UNL d   1     -54.715-100.550 -45.029  0.00  0.00    -0.164 F 
ATOM     15  F   UNL d   1     -54.877-101.504 -45.715  0.00  0.00    -0.164 F 
ENDBRANCH   7  12
ENDBRANCH   1   7
BRANCH   4  16
ATOM     16  C   UNL d   1     -56.253 -99.143 -44.450  0.00  0.00     0.058 A 
ATOM     17  C   UNL d   1     -55.690 -98.974 -43.871  0.00  0.00     0.005 A 
ATOM     18  C   UNL d   1     -54.916 -98.780 -44.075  0.00  0.00     0.000 A 
ATOM     19  C   UNL d   1     -54.712 -98.757 -44.880  0.00  0.00     0.000 A 
ATOM     20  C   UNL d   1     -55.272 -98.925 -45.460  0.00  0.00     0.000 A 
ATOM     21  C   UNL d   1     -56.032 -99.115 -45.247  0.00  0.00     0.005 A 
ENDBRANCH   4  16
TORSDOF 3
ENDMDL
