MODEL 1
REMARK VINA RESULT:      10.2      0.000      0.000
REMARK  6 active torsions:
REMARK  status: ('A' for Active; 'I' for Inactive)
REMARK    1  A    between atoms: N_2  and  C_1 
REMARK    2  A    between atoms: N_3  and  C_1 
REMARK       I    between atoms: C_4  and  N_2 
REMARK    3  A    between atoms: C_5  and  N_3 
REMARK    4  A    between atoms: C_14  and  C_4 
REMARK    5  A    between atoms: C_8  and  O_10 
REMARK    6  A    between atoms: O_10  and  C_14 
ROOT
ATOM      1  N   UNL d   1      46.387 -16.963  44.193  0.00  0.00    -0.177 NA
ATOM      2  C   UNL d   1      45.784 -16.691  44.693  0.00  0.00     0.306 C 
ATOM      3  O   UNL d   1      45.195 -17.250  44.953  0.00  0.00    -0.263 OA
ENDROOT
BRANCH   2   4
ATOM      4  C   UNL d   1      45.732 -15.914  44.947  0.00  0.00     0.185 C 
BRANCH   4   5
ATOM      5  O   UNL d   1      45.380 -15.330  44.497  0.00  0.00    -0.300 OA
BRANCH   5   6
ATOM      6  C   UNL d   1      45.559 -14.553  44.609  0.00  0.00     0.106 A 
ATOM      7  C   UNL d   1      44.964 -13.955  44.502  0.00  0.00     0.057 A 
ATOM      8  C   UNL d   1      45.179 -13.158  44.626  0.00  0.00     0.009 A 
ATOM      9 BR   UNL d   1      44.188 -14.177  44.279  0.00  0.00    -0.047 Br
ATOM     10  C   UNL d   1      45.902 -12.933  44.835  0.00  0.00     0.001 A 
ATOM     11  C   UNL d   1      46.502 -13.540  44.943  0.00  0.00     0.002 A 
ATOM     12  C   UNL d   1      46.097 -12.132  44.954  0.00  0.00     0.000 C 
ATOM     13  C   UNL d   1      46.297 -14.325  44.823  0.00  0.00     0.025 A 
ENDBRANCH   5   6
ENDBRANCH   4   5
ENDBRANCH   2   4
BRANCH   1  14
ATOM     14  C   UNL d   1      46.424 -17.749  43.948  0.00  0.00     0.225 C 
ATOM     15  S   UNL d   1      46.423 -18.367  44.512  0.00  0.00    -0.037 SA
BRANCH  14  16
ATOM     16  N   UNL d   1      46.463 -17.914  43.143  0.00  0.00    -0.198 NA
BRANCH  16  17
ATOM     17  C   UNL d   1      46.457 -18.710  42.885  0.00  0.00     0.165 A 
ATOM     18  N   UNL d   1      46.260 -19.339  43.416  0.00  0.00    -0.225 NA
ATOM     19  C   UNL d   1      46.256 -20.119  43.153  0.00  0.00     0.101 A 
ATOM     20  C   UNL d   1      46.447 -20.276  42.366  0.00  0.00     0.021 A 
ATOM     21  C   UNL d   1      46.639 -19.653  41.854  0.00  0.00     0.005 A 
ATOM     22  C   UNL d   1      46.644 -18.888  42.107  0.00  0.00     0.039 A 
ENDBRANCH  16  17
ENDBRANCH  14  16
ENDBRANCH   1  14
TORSDOF 6
ENDMDL
