MODEL 1
REMARK VINA RESULT:      -5.5      0.000      0.000
REMARK  2 active torsions:
REMARK  status: ('A' for Active; 'I' for Inactive)
REMARK    1  A    between atoms: C_6  and  C_1 
REMARK    2  A    between atoms: N_8  and  C_6 
ROOT
ATOM      1  C   UNL d   1      57.172   0.682  31.465  0.00  0.00     0.090 C 
ENDROOT
BRANCH   1   2
ATOM      2  C   UNL d   1      57.842   0.580  30.992  0.00  0.00     0.133 A 
ATOM      3  C   UNL d   1      58.588   0.580  31.343  0.00  0.00     0.289 A 
ATOM      4  N   UNL d   1      59.263   0.479  30.878  0.00  0.00    -0.151 NA
ATOM      5  O   UNL d   1      58.670   0.681  32.161  0.00  0.00    -0.265 OA
ATOM      6  C   UNL d   1      59.183   0.378  30.061  0.00  0.00     0.374 A 
ATOM      7  N   UNL d   1      58.436   0.378  29.709  0.00  0.00    -0.151 NA
ATOM      8  O   UNL d   1      59.857   0.277  29.595  0.00  0.00    -0.242 OA
ATOM      9  C   UNL d   1      57.758   0.481  30.186  0.00  0.00     0.289 A 
ATOM     10  O   UNL d   1      57.016   0.481  29.842  0.00  0.00    -0.265 OA
ENDBRANCH   1   2
BRANCH   1  11
ATOM     11  N   UNL d   1      56.820   0.031  31.828  0.00  0.00    -0.304 N 
ATOM     12  C   UNL d   1      56.265   0.055  32.444  0.00  0.00     0.064 A 
ATOM     13  C   UNL d   1      56.067  -0.721  32.631  0.00  0.00     0.018 A 
ATOM     14  C   UNL d   1      55.923   0.681  32.850  0.00  0.00     0.018 A 
ATOM     15  C   UNL d   1      55.518  -0.873  33.233  0.00  0.00     0.002 A 
ATOM     16  C   UNL d   1      56.489  -1.226  32.142  0.00  0.00     0.021 A 
ATOM     17  C   UNL d   1      55.176  -0.243  33.639  0.00  0.00     0.000 A 
ATOM     18  C   UNL d   1      55.380   0.534  33.446  0.00  0.00     0.002 A 
ATOM     19  C   UNL d   1      56.958  -0.768  31.641  0.00  0.00     0.080 A 
ENDBRANCH   1  11
TORSDOF 2
ENDMDL
MODEL 2
REMARK VINA RESULT:      -5.1      2.368      4.146
REMARK  2 active torsions:
REMARK  status: ('A' for Active; 'I' for Inactive)
REMARK    1  A    between atoms: C_6  and  C_1 
REMARK    2  A    between atoms: N_8  and  C_6 
ROOT
ATOM      1  C   UNL d   1      55.847   0.682  33.258  0.00  0.00     0.090 C 
ENDROOT
BRANCH   1   2
ATOM      2  C   UNL d   1      55.524   0.682  34.019  0.00  0.00     0.133 A 
ATOM      3  C   UNL d   1      56.029   0.682  34.672  0.00  0.00     0.289 A 
ATOM      4  N   UNL d   1      55.714   0.682  35.436  0.00  0.00    -0.151 NA
ATOM      5  O   UNL d   1      56.850   0.682  34.570  0.00  0.00    -0.265 OA
ATOM      6  C   UNL d   1      54.894   0.682  35.539  0.00  0.00     0.374 A 
ATOM      7  N   UNL d   1      54.389   0.682  34.886  0.00  0.00    -0.151 NA
ATOM      8  O   UNL d   1      54.579   0.682  36.302  0.00  0.00    -0.242 OA
ATOM      9  C   UNL d   1      54.714   0.682  34.116  0.00  0.00     0.289 A 
ATOM     10  O   UNL d   1      54.217   0.682  33.466  0.00  0.00    -0.265 OA
ENDBRANCH   1   2
BRANCH   1  11
ATOM     11  N   UNL d   1      56.066  -0.028  32.903  0.00  0.00    -0.304 N 
ATOM     12  C   UNL d   1      56.546  -0.113  32.231  0.00  0.00     0.064 A 
ATOM     13  C   UNL d   1      56.617  -0.917  32.075  0.00  0.00     0.018 A 
ATOM     14  C   UNL d   1      56.920   0.439  31.752  0.00  0.00     0.018 A 
ATOM     15  C   UNL d   1      57.069  -1.173  31.429  0.00  0.00     0.002 A 
ATOM     16  C   UNL d   1      56.189  -1.333  32.637  0.00  0.00     0.021 A 
ATOM     17  C   UNL d   1      57.443  -0.617  30.950  0.00  0.00     0.000 A 
ATOM     18  C   UNL d   1      57.368   0.189  31.113  0.00  0.00     0.002 A 
ATOM     19  C   UNL d   1      55.845  -0.791  33.154  0.00  0.00     0.080 A 
ENDBRANCH   1  11
TORSDOF 2
ENDMDL
MODEL 3
REMARK VINA RESULT:      -4.8      2.169      4.088
REMARK  2 active torsions:
REMARK  status: ('A' for Active; 'I' for Inactive)
REMARK    1  A    between atoms: C_6  and  C_1 
REMARK    2  A    between atoms: N_8  and  C_6 
ROOT
ATOM      1  C   UNL d   1      55.912   0.682  32.930  0.00  0.00     0.090 C 
ENDROOT
BRANCH   1   2
ATOM      2  C   UNL d   1      55.685   0.682  33.724  0.00  0.00     0.133 A 
ATOM      3  C   UNL d   1      54.881   0.682  33.914  0.00  0.00     0.289 A 
ATOM      4  N   UNL d   1      54.645   0.682  34.705  0.00  0.00    -0.151 NA
ATOM      5  O   UNL d   1      54.307   0.682  33.318  0.00  0.00    -0.265 OA
ATOM      6  C   UNL d   1      55.218   0.682  35.302  0.00  0.00     0.374 A 
ATOM      7  N   UNL d   1      56.021   0.682  35.112  0.00  0.00    -0.151 NA
ATOM      8  O   UNL d   1      54.982   0.682  36.093  0.00  0.00    -0.242 OA
ATOM      9  C   UNL d   1      56.253   0.682  34.309  0.00  0.00     0.289 A 
ATOM     10  O   UNL d   1      57.048   0.682  34.117  0.00  0.00    -0.265 OA
ENDBRANCH   1   2
BRANCH   1  11
ATOM     11  N   UNL d   1      56.198  -0.008  32.583  0.00  0.00    -0.304 N 
ATOM     12  C   UNL d   1      56.710  -0.053  31.931  0.00  0.00     0.064 A 
ATOM     13  C   UNL d   1      56.847  -0.849  31.776  0.00  0.00     0.018 A 
ATOM     14  C   UNL d   1      57.062   0.527  31.469  0.00  0.00     0.018 A 
ATOM     15  C   UNL d   1      57.343  -1.068  31.149  0.00  0.00     0.002 A 
ATOM     16  C   UNL d   1      56.429  -1.299  32.319  0.00  0.00     0.021 A 
ATOM     17  C   UNL d   1      57.695  -0.483  30.688  0.00  0.00     0.000 A 
ATOM     18  C   UNL d   1      57.553   0.314  30.849  0.00  0.00     0.002 A 
ATOM     19  C   UNL d   1      56.024  -0.787  32.823  0.00  0.00     0.080 A 
ENDBRANCH   1  11
TORSDOF 2
ENDMDL
MODEL 4
REMARK VINA RESULT:      -3.9      1.805      3.671
REMARK  2 active torsions:
REMARK  status: ('A' for Active; 'I' for Inactive)
REMARK    1  A    between atoms: C_6  and  C_1 
REMARK    2  A    between atoms: N_8  and  C_6 
ROOT
ATOM      1  C   UNL d   1      56.728   0.682  32.434  0.00  0.00     0.090 C 
ENDROOT
BRANCH   1   2
ATOM      2  C   UNL d   1      56.284   0.628  33.130  0.00  0.00     0.133 A 
ATOM      3  C   UNL d   1      56.675   0.576  33.855  0.00  0.00     0.289 A 
ATOM      4  N   UNL d   1      56.239   0.522  34.554  0.00  0.00    -0.151 NA
ATOM      5  O   UNL d   1      57.501   0.576  33.889  0.00  0.00    -0.265 OA
ATOM      6  C   UNL d   1      55.413   0.521  34.521  0.00  0.00     0.374 A 
ATOM      7  N   UNL d   1      55.022   0.574  33.796  0.00  0.00    -0.151 NA
ATOM      8  O   UNL d   1      54.977   0.468  35.220  0.00  0.00    -0.242 OA
ATOM      9  C   UNL d   1      55.469   0.628  33.092  0.00  0.00     0.289 A 
ATOM     10  O   UNL d   1      55.086   0.681  32.371  0.00  0.00    -0.265 OA
ENDBRANCH   1   2
BRANCH   1  11
ATOM     11  N   UNL d   1      56.901   0.002  32.002  0.00  0.00    -0.304 N 
ATOM     12  C   UNL d   1      57.349  -0.033  31.305  0.00  0.00     0.064 A 
ATOM     13  C   UNL d   1      57.378  -0.820  31.067  0.00  0.00     0.018 A 
ATOM     14  C   UNL d   1      57.728   0.548  30.866  0.00  0.00     0.018 A 
ATOM     15  C   UNL d   1      57.793  -1.029  30.381  0.00  0.00     0.002 A 
ATOM     16  C   UNL d   1      56.956  -1.273  31.604  0.00  0.00     0.021 A 
ATOM     17  C   UNL d   1      58.172  -0.443  29.942  0.00  0.00     0.000 A 
ATOM     18  C   UNL d   1      58.139   0.345  30.186  0.00  0.00     0.002 A 
ATOM     19  C   UNL d   1      56.656  -0.772  32.187  0.00  0.00     0.080 A 
ENDBRANCH   1  11
TORSDOF 2
ENDMDL
MODEL 5
REMARK VINA RESULT:      -3.2      1.446      2.322
REMARK  2 active torsions:
REMARK  status: ('A' for Active; 'I' for Inactive)
REMARK    1  A    between atoms: C_6  and  C_1 
REMARK    2  A    between atoms: N_8  and  C_6 
ROOT
ATOM      1  C   UNL d   1      56.748  -0.448  33.244  0.00  0.00     0.090 C 
ENDROOT
BRANCH   1   2
ATOM      2  C   UNL d   1      57.002  -0.468  32.458  0.00  0.00     0.133 A 
ATOM      3  C   UNL d   1      56.721  -1.060  31.957  0.00  0.00     0.289 A 
ATOM      4  N   UNL d   1      56.969  -1.087  31.170  0.00  0.00    -0.151 NA
ATOM      5  O   UNL d   1      56.190  -1.631  32.236  0.00  0.00    -0.265 OA
ATOM      6  C   UNL d   1      57.500  -0.518  30.891  0.00  0.00     0.374 A 
ATOM      7  N   UNL d   1      57.781   0.075  31.391  0.00  0.00    -0.151 NA
ATOM      8  O   UNL d   1      57.748  -0.544  30.104  0.00  0.00    -0.242 OA
ATOM      9  C   UNL d   1      57.526   0.096  32.187  0.00  0.00     0.289 A 
ATOM     10  O   UNL d   1      57.802   0.682  32.686  0.00  0.00    -0.265 OA
ENDBRANCH   1   2
BRANCH   1  11
ATOM     11  N   UNL d   1      56.012  -0.130  33.432  0.00  0.00    -0.304 N 
ATOM     12  C   UNL d   1      55.762   0.116  34.185  0.00  0.00     0.064 A 
ATOM     13  C   UNL d   1      54.992   0.394  34.113  0.00  0.00     0.018 A 
ATOM     14  C   UNL d   1      56.140   0.118  34.914  0.00  0.00     0.018 A 
ATOM     15  C   UNL d   1      54.593   0.680  34.780  0.00  0.00     0.002 A 
ATOM     16  C   UNL d   1      54.759   0.326  33.330  0.00  0.00     0.021 A 
ATOM     17  C   UNL d   1      54.974   0.682  35.511  0.00  0.00     0.000 A 
ATOM     18  C   UNL d   1      55.748   0.401  35.576  0.00  0.00     0.002 A 
ATOM     19  C   UNL d   1      55.385   0.002  32.901  0.00  0.00     0.080 A 
ENDBRANCH   1  11
TORSDOF 2
ENDMDL
