MODEL 1
REMARK VINA RESULT:      90.7      0.000      0.000
REMARK  5 active torsions:
REMARK  status: ('A' for Active; 'I' for Inactive)
REMARK    1  A    between atoms: C_8  and  C_1 
REMARK    2  A    between atoms: N_9  and  C_8 
REMARK    3  A    between atoms: C_15  and  C_8 
REMARK    4  A    between atoms: C_16  and  N_11 
REMARK    5  A    between atoms: C_19  and  C_16 
ROOT
ATOM      1  C   UNL d   1     -51.623  25.979  34.724  0.00  0.00     0.075 C 
ENDROOT
BRANCH   1   2
ATOM      2  C   UNL d   1     -51.934  25.295  34.376  0.00  0.00     0.106 A 
ATOM      3  C   UNL d   1     -51.492  24.673  34.039  0.00  0.00     0.290 A 
ATOM      4  N   UNL d   1     -52.022  24.106  33.759  0.00  0.00    -0.169 N 
ATOM      5  O   UNL d   1     -50.665  24.634  33.993  0.00  0.00    -0.265 OA
ATOM      6  N   UNL d   1     -52.083  23.378  33.381  0.00  0.00    -0.138 NA
ATOM      7  C   UNL d   1     -52.789  24.372  33.921  0.00  0.00     0.200 A 
ATOM      8  C   UNL d   1     -52.883  23.189  33.307  0.00  0.00     0.222 A 
ATOM      9  N   UNL d   1     -53.319  23.805  33.641  0.00  0.00    -0.197 NA
ATOM     10  S   UNL d   1     -52.737  25.102  34.300  0.00  0.00    -0.042 SA
ENDBRANCH   1   2
BRANCH   1  11
ATOM     11  N   UNL d   1     -51.629  26.053  35.545  0.00  0.00    -0.301 N 
ATOM     12  C   UNL d   1     -50.975  26.383  35.930  0.00  0.00     0.100 A 
ATOM     13  C   UNL d   1     -50.974  26.460  36.755  0.00  0.00     0.100 A 
ATOM     14  N   UNL d   1     -51.635  26.204  37.200  0.00  0.00    -0.300 N 
ATOM     15  C   UNL d   1     -52.283  25.876  36.805  0.00  0.00     0.100 A 
ATOM     16  C   UNL d   1     -52.277  25.802  35.983  0.00  0.00     0.100 A 
BRANCH  14  17
ATOM     17  C   UNL d   1     -51.637  26.279  38.014  0.00  0.00     0.080 C 
BRANCH  17  18
ATOM     18  C   UNL d   1     -52.088  25.766  38.475  0.00  0.00     0.018 A 
ATOM     19  C   UNL d   1     -51.735  25.124  38.850  0.00  0.00     0.002 A 
ATOM     20  C   UNL d   1     -52.180  24.613  39.306  0.00  0.00     0.000 A 
ATOM     21  C   UNL d   1     -52.991  24.741  39.394  0.00  0.00     0.000 A 
ATOM     22  C   UNL d   1     -53.353  25.385  39.020  0.00  0.00     0.000 A 
ATOM     23  C   UNL d   1     -52.896  25.895  38.560  0.00  0.00     0.002 A 
ENDBRANCH  17  18
ENDBRANCH  14  17
ENDBRANCH   1  11
BRANCH   1  24
ATOM     24  C   UNL d   1     -51.313  26.576  34.252  0.00  0.00     0.017 A 
ATOM     25  C   UNL d   1     -51.831  27.099  33.875  0.00  0.00     0.002 A 
ATOM     26  C   UNL d   1     -51.515  27.700  33.400  0.00  0.00     0.000 A 
ATOM     27  C   UNL d   1     -50.718  27.775  33.306  0.00  0.00     0.000 A 
ATOM     28  C   UNL d   1     -50.208  27.234  33.698  0.00  0.00     0.000 A 
ATOM     29  C   UNL d   1     -50.505  26.645  34.162  0.00  0.00     0.002 A 
ENDBRANCH   1  24
TORSDOF 5
ENDMDL
