MODEL 1
REMARK VINA RESULT:      66.3      0.000      0.000
REMARK  3 active torsions:
REMARK  status: ('A' for Active; 'I' for Inactive)
REMARK    1  A    between atoms: C_9  and  C_1 
REMARK    2  A    between atoms: C_4  and  C_9 
REMARK       I    between atoms: N_5  and  C_4 
REMARK    3  A    between atoms: C_10  and  N_8 
ROOT
ATOM      1  C   UNL d   1     -50.324  27.108  33.682  0.00  0.00     0.265 C 
ATOM      2  N   UNL d   1     -49.772  27.596  34.054  0.00  0.00    -0.269 N 
ATOM      3  N   UNL d   1     -48.652  28.572  34.806  0.00  0.00    -0.299 N 
ATOM      4  C   UNL d   1     -49.091  27.257  34.401  0.00  0.00     0.102 A 
ATOM      5  C   UNL d   1     -49.886  28.404  34.084  0.00  0.00     0.102 A 
ATOM      6  C   UNL d   1     -49.330  28.885  34.458  0.00  0.00     0.100 A 
ATOM      7  C   UNL d   1     -48.534  27.738  34.774  0.00  0.00     0.100 A 
ATOM      8  O   UNL d   1     -50.996  27.440  33.339  0.00  0.00    -0.267 OA
ENDROOT
BRANCH   1   9
ATOM      9  C   UNL d   1     -50.209  26.285  33.650  0.00  0.00     0.063 C 
BRANCH   9  10
ATOM     10  C   UNL d   1     -50.861  25.785  33.546  0.00  0.00     0.024 A 
ATOM     11  C   UNL d   1     -51.639  26.031  33.489  0.00  0.00     0.080 A 
ATOM     12  N   UNL d   1     -52.112  25.358  33.389  0.00  0.00    -0.303 N 
ATOM     13  C   UNL d   1     -52.931  25.340  33.307  0.00  0.00     0.100 C 
ATOM     14  C   UNL d   1     -51.613  24.704  33.387  0.00  0.00     0.064 A 
ATOM     15  C   UNL d   1     -50.847  24.970  33.484  0.00  0.00     0.018 A 
ATOM     16  C   UNL d   1     -51.769  23.894  33.308  0.00  0.00     0.018 A 
ATOM     17  C   UNL d   1     -50.225  24.429  33.503  0.00  0.00     0.002 A 
ATOM     18  C   UNL d   1     -50.375  23.628  33.425  0.00  0.00     0.000 A 
ATOM     19  C   UNL d   1     -51.148  23.357  33.328  0.00  0.00     0.002 A 
ENDBRANCH   9  10
ENDBRANCH   1   9
BRANCH   3  20
ATOM     20  C   UNL d   1     -48.101  29.042  35.175  0.00  0.00     0.092 A 
ATOM     21  C   UNL d   1     -48.127  29.865  35.093  0.00  0.00     0.156 A 
ATOM     22  F   UNL d   1     -48.713  30.205  34.636  0.00  0.00    -0.203 F 
ATOM     23  C   UNL d   1     -47.560  30.334  35.473  0.00  0.00     0.031 A 
ATOM     24  C   UNL d   1     -46.972  29.974  35.933  0.00  0.00     0.002 A 
ATOM     25  C   UNL d   1     -46.950  29.162  36.011  0.00  0.00     0.002 A 
ATOM     26  C   UNL d   1     -47.516  28.697  35.631  0.00  0.00     0.020 A 
ENDBRANCH   3  20
TORSDOF 3
ENDMDL
