MODEL 1
REMARK VINA RESULT:      -8.1      0.000      0.000
REMARK  3 active torsions:
REMARK  status: ('A' for Active; 'I' for Inactive)
REMARK    1  A    between atoms: C_5  and  C_1 
REMARK    2  A    between atoms: C_8  and  N_2 
REMARK    3  A    between atoms: C_10  and  C_8 
ROOT
ATOM      1  C   UNL d   1     -47.412  13.217  22.804  0.00  0.00     0.166 A 
ATOM      2  N   UNL d   1     -48.454  14.430  22.394  0.00  0.00    -0.302 N 
ATOM      3  C   UNL d   1     -48.013  13.079  22.256  0.00  0.00     0.058 A 
ATOM      4  C   UNL d   1     -47.332  13.962  23.147  0.00  0.00     0.058 A 
ATOM      5  C   UNL d   1     -47.853  14.569  22.943  0.00  0.00     0.083 A 
ATOM      6  C   UNL d   1     -48.534  13.685  22.051  0.00  0.00     0.083 A 
ATOM      7  O   UNL d   1     -46.787  13.411  23.392  0.00  0.00    -0.290 OA
ENDROOT
BRANCH   1   8
ATOM      8  C   UNL d   1     -46.892  12.611  23.008  0.00  0.00     0.036 A 
ATOM      9  C   UNL d   1     -47.153  11.986  23.501  0.00  0.00     0.003 A 
ATOM     10  C   UNL d   1     -46.626  11.388  23.698  0.00  0.00     0.000 A 
ATOM     11  C   UNL d   1     -45.845  11.399  23.416  0.00  0.00     0.000 A 
ATOM     12  C   UNL d   1     -45.589  12.007  22.935  0.00  0.00     0.000 A 
ATOM     13  C   UNL d   1     -46.111  12.622  22.726  0.00  0.00     0.003 A 
ENDBRANCH   1   8
BRANCH   2  14
ATOM     14  C   UNL d   1     -48.974  15.036  22.190  0.00  0.00     0.080 C 
BRANCH  14  15
ATOM     15  C   UNL d   1     -49.649  15.172  22.646  0.00  0.00     0.018 A 
ATOM     16  C   UNL d   1     -50.335  14.737  22.507  0.00  0.00     0.002 A 
ATOM     17  C   UNL d   1     -51.009  14.872  22.963  0.00  0.00     0.000 A 
ATOM     18  C   UNL d   1     -51.001  15.440  23.558  0.00  0.00     0.000 A 
ATOM     19  C   UNL d   1     -50.314  15.875  23.698  0.00  0.00     0.000 A 
ATOM     20  C   UNL d   1     -49.636  15.743  23.243  0.00  0.00     0.002 A 
ENDBRANCH  14  15
ENDBRANCH   2  14
TORSDOF 3
ENDMDL
MODEL 2
REMARK VINA RESULT:      -6.8      1.297      1.741
REMARK  3 active torsions:
REMARK  status: ('A' for Active; 'I' for Inactive)
REMARK    1  A    between atoms: C_5  and  C_1 
REMARK    2  A    between atoms: C_8  and  N_2 
REMARK    3  A    between atoms: C_10  and  C_8 
ROOT
ATOM      1  C   UNL d   1     -47.800  12.165  23.216  0.00  0.00     0.166 A 
ATOM      2  N   UNL d   1     -49.408  12.538  23.199  0.00  0.00    -0.302 N 
ATOM      3  C   UNL d   1     -48.331  11.691  22.799  0.00  0.00     0.058 A 
ATOM      4  C   UNL d   1     -48.074  12.827  23.625  0.00  0.00     0.058 A 
ATOM      5  C   UNL d   1     -48.878  13.014  23.617  0.00  0.00     0.083 A 
ATOM      6  C   UNL d   1     -49.135  11.877  22.790  0.00  0.00     0.083 A 
ATOM      7  O   UNL d   1     -47.272  12.700  23.674  0.00  0.00    -0.290 OA
ENDROOT
BRANCH   1   8
ATOM      8  C   UNL d   1     -46.998  11.979  23.225  0.00  0.00     0.036 A 
ATOM      9  C   UNL d   1     -46.722  11.345  23.698  0.00  0.00     0.003 A 
ATOM     10  C   UNL d   1     -45.920  11.168  23.698  0.00  0.00     0.000 A 
ATOM     11  C   UNL d   1     -45.387  11.608  23.238  0.00  0.00     0.000 A 
ATOM     12  C   UNL d   1     -45.654  12.226  22.776  0.00  0.00     0.000 A 
ATOM     13  C   UNL d   1     -46.465  12.418  22.765  0.00  0.00     0.003 A 
ENDBRANCH   1   8
BRANCH   2  14
ATOM     14  C   UNL d   1     -50.211  12.726  23.191  0.00  0.00     0.080 C 
BRANCH  14  15
ATOM     15  C   UNL d   1     -50.496  13.299  22.669  0.00  0.00     0.018 A 
ATOM     16  C   UNL d   1     -50.586  14.078  22.921  0.00  0.00     0.002 A 
ATOM     17  C   UNL d   1     -50.870  14.650  22.398  0.00  0.00     0.000 A 
ATOM     18  C   UNL d   1     -51.064  14.447  21.626  0.00  0.00     0.000 A 
ATOM     19  C   UNL d   1     -50.974  13.666  21.373  0.00  0.00     0.000 A 
ATOM     20  C   UNL d   1     -50.690  13.090  21.894  0.00  0.00     0.002 A 
ENDBRANCH  14  15
ENDBRANCH   2  14
TORSDOF 3
ENDMDL
MODEL 3
REMARK VINA RESULT:      -6.7      1.301      4.276
REMARK  3 active torsions:
REMARK  status: ('A' for Active; 'I' for Inactive)
REMARK    1  A    between atoms: C_5  and  C_1 
REMARK    2  A    between atoms: C_8  and  N_2 
REMARK    3  A    between atoms: C_10  and  C_8 
ROOT
ATOM      1  C   UNL d   1     -48.760  13.648  22.431  0.00  0.00     0.166 A 
ATOM      2  N   UNL d   1     -47.224  13.628  23.034  0.00  0.00    -0.302 N 
ATOM      3  C   UNL d   1     -48.254  14.285  22.294  0.00  0.00     0.058 A 
ATOM      4  C   UNL d   1     -48.498  13.001  22.869  0.00  0.00     0.058 A 
ATOM      5  C   UNL d   1     -47.730  12.990  23.170  0.00  0.00     0.083 A 
ATOM      6  C   UNL d   1     -47.486  14.276  22.596  0.00  0.00     0.083 A 
ATOM      7  O   UNL d   1     -49.264  12.947  22.601  0.00  0.00    -0.290 OA
ENDROOT
BRANCH   1   8
ATOM      8  C   UNL d   1     -49.527  13.659  22.130  0.00  0.00     0.036 A 
ATOM      9  C   UNL d   1     -50.117  14.118  22.507  0.00  0.00     0.003 A 
ATOM     10  C   UNL d   1     -50.878  14.121  22.198  0.00  0.00     0.000 A 
ATOM     11  C   UNL d   1     -51.064  13.676  21.523  0.00  0.00     0.000 A 
ATOM     12  C   UNL d   1     -50.491  13.228  21.153  0.00  0.00     0.000 A 
ATOM     13  C   UNL d   1     -49.714  13.214  21.454  0.00  0.00     0.003 A 
ENDBRANCH   1   8
BRANCH   2  14
ATOM     14  C   UNL d   1     -46.456  13.617  23.335  0.00  0.00     0.080 C 
BRANCH  14  15
ATOM     15  C   UNL d   1     -45.848  13.264  22.902  0.00  0.00     0.018 A 
ATOM     16  C   UNL d   1     -45.448  13.697  22.326  0.00  0.00     0.002 A 
ATOM     17  C   UNL d   1     -44.841  13.343  21.893  0.00  0.00     0.000 A 
ATOM     18  C   UNL d   1     -44.631  12.561  22.034  0.00  0.00     0.000 A 
ATOM     19  C   UNL d   1     -45.032  12.128  22.611  0.00  0.00     0.000 A 
ATOM     20  C   UNL d   1     -45.641  12.478  23.047  0.00  0.00     0.002 A 
ENDBRANCH  14  15
ENDBRANCH   2  14
TORSDOF 3
ENDMDL
MODEL 4
REMARK VINA RESULT:      -6.2      8.590      9.482
REMARK  3 active torsions:
REMARK  status: ('A' for Active; 'I' for Inactive)
REMARK    1  A    between atoms: C_5  and  C_1 
REMARK    2  A    between atoms: C_8  and  N_2 
REMARK    3  A    between atoms: C_10  and  C_8 
ROOT
ATOM      1  C   UNL d   1     -39.580  14.557  20.512  0.00  0.00     0.166 A 
ATOM      2  N   UNL d   1     -40.042  14.236  18.960  0.00  0.00    -0.302 N 
ATOM      3  C   UNL d   1     -39.011  14.408  19.933  0.00  0.00     0.058 A 
ATOM      4  C   UNL d   1     -40.380  14.545  20.315  0.00  0.00     0.058 A 
ATOM      5  C   UNL d   1     -40.612  14.385  19.539  0.00  0.00     0.083 A 
ATOM      6  C   UNL d   1     -39.242  14.248  19.158  0.00  0.00     0.083 A 
ATOM      7  O   UNL d   1     -40.221  14.710  21.095  0.00  0.00    -0.290 OA
ENDROOT
BRANCH   1   8
ATOM      8  C   UNL d   1     -39.349  14.717  21.287  0.00  0.00     0.036 A 
ATOM      9  C   UNL d   1     -39.239  15.510  21.534  0.00  0.00     0.003 A 
ATOM     10  C   UNL d   1     -39.009  15.657  22.308  0.00  0.00     0.000 A 
ATOM     11  C   UNL d   1     -38.886  15.033  22.841  0.00  0.00     0.000 A 
ATOM     12  C   UNL d   1     -38.992  14.260  22.603  0.00  0.00     0.000 A 
ATOM     13  C   UNL d   1     -39.226  14.093  21.820  0.00  0.00     0.003 A 
ENDBRANCH   1   8
BRANCH   2  14
ATOM     14  C   UNL d   1     -40.274  14.076  18.185  0.00  0.00     0.080 C 
BRANCH  14  15
ATOM     15  C   UNL d   1     -40.335  14.691  17.638  0.00  0.00     0.018 A 
ATOM     16  C   UNL d   1     -39.692  14.882  17.158  0.00  0.00     0.002 A 
ATOM     17  C   UNL d   1     -39.754  15.497  16.612  0.00  0.00     0.000 A 
ATOM     18  C   UNL d   1     -40.454  15.922  16.542  0.00  0.00     0.000 A 
ATOM     19  C   UNL d   1     -41.098  15.731  17.022  0.00  0.00     0.000 A 
ATOM     20  C   UNL d   1     -41.040  15.115  17.571  0.00  0.00     0.002 A 
ENDBRANCH  14  15
ENDBRANCH   2  14
TORSDOF 3
ENDMDL
MODEL 5
REMARK VINA RESULT:      -5.2      8.396     10.064
REMARK  3 active torsions:
REMARK  status: ('A' for Active; 'I' for Inactive)
REMARK    1  A    between atoms: C_5  and  C_1 
REMARK    2  A    between atoms: C_8  and  N_2 
REMARK    3  A    between atoms: C_10  and  C_8 
ROOT
ATOM      1  C   UNL d   1     -39.300  14.360  17.622  0.00  0.00     0.166 A 
ATOM      2  N   UNL d   1     -40.149  14.194  19.028  0.00  0.00    -0.302 N 
ATOM      3  C   UNL d   1     -40.113  14.504  17.635  0.00  0.00     0.058 A 
ATOM      4  C   UNL d   1     -38.912  14.133  18.313  0.00  0.00     0.058 A 
ATOM      5  C   UNL d   1     -39.336  14.050  19.017  0.00  0.00     0.083 A 
ATOM      6  C   UNL d   1     -40.537  14.421  18.338  0.00  0.00     0.083 A 
ATOM      7  O   UNL d   1     -38.436  14.196  17.657  0.00  0.00    -0.290 OA
ENDROOT
BRANCH   1   8
ATOM      8  C   UNL d   1     -38.877  14.443  16.920  0.00  0.00     0.036 A 
ATOM      9  C   UNL d   1     -38.696  13.767  16.460  0.00  0.00     0.003 A 
ATOM     10  C   UNL d   1     -38.274  13.862  15.762  0.00  0.00     0.000 A 
ATOM     11  C   UNL d   1     -38.028  14.614  15.513  0.00  0.00     0.000 A 
ATOM     12  C   UNL d   1     -38.203  15.275  15.960  0.00  0.00     0.000 A 
ATOM     13  C   UNL d   1     -38.631  15.196  16.670  0.00  0.00     0.003 A 
ENDBRANCH   1   8
BRANCH   2  14
ATOM     14  C   UNL d   1     -40.572  14.111  19.731  0.00  0.00     0.080 C 
BRANCH  14  15
ATOM     15  C   UNL d   1     -40.557  14.714  20.295  0.00  0.00     0.018 A 
ATOM     16  C   UNL d   1     -41.117  15.318  20.269  0.00  0.00     0.002 A 
ATOM     17  C   UNL d   1     -41.102  15.920  20.833  0.00  0.00     0.000 A 
ATOM     18  C   UNL d   1     -40.529  15.922  21.422  0.00  0.00     0.000 A 
ATOM     19  C   UNL d   1     -39.968  15.318  21.449  0.00  0.00     0.000 A 
ATOM     20  C   UNL d   1     -39.980  14.712  20.886  0.00  0.00     0.002 A 
ENDBRANCH  14  15
ENDBRANCH   2  14
TORSDOF 3
ENDMDL
