MODEL 1
REMARK VINA RESULT:      59.7      0.000      0.000
REMARK  7 active torsions:
REMARK  status: ('A' for Active; 'I' for Inactive)
REMARK    1  A    between atoms: N_3  and  C_2 
REMARK       I    between atoms: C_6  and  N_3 
REMARK    2  A    between atoms: C_11  and  C_4 
REMARK    3  A    between atoms: C_5  and  C_6 
REMARK    4  A    between atoms: C_15  and  C_11 
REMARK    5  A    between atoms: C_18  and  C_12 
REMARK    6  A    between atoms: O_17  and  C_18 
REMARK    7  A    between atoms: C_19  and  O_17 
ROOT
ATOM      1  C   UNL d   1      60.890  48.489  50.582  0.00  0.00     0.158 A 
ATOM      2  O   UNL d   1      60.068  48.507  50.621  0.00  0.00    -0.300 OA
ATOM      3  C   UNL d   1      61.171  49.228  50.815  0.00  0.00     0.032 A 
ATOM      4  C   UNL d   1      59.837  49.253  50.878  0.00  0.00     0.125 A 
ATOM      5  C   UNL d   1      60.516  49.704  51.000  0.00  0.00     0.029 A 
ENDROOT
BRANCH   1   6
ATOM      6  C   UNL d   1      61.356  47.844  50.349  0.00  0.00     0.304 C 
ATOM      7  N   UNL d   1      61.042  47.274  49.840  0.00  0.00    -0.180 NA
ATOM      8  O   UNL d   1      62.126  47.778  50.628  0.00  0.00    -0.263 OA
BRANCH   7   9
ATOM      9  C   UNL d   1      61.505  46.631  49.608  0.00  0.00     0.216 A 
ATOM     10  N   UNL d   1      61.286  45.826  49.664  0.00  0.00    -0.200 NA
ATOM     11  C   UNL d   1      61.905  45.383  49.373  0.00  0.00     0.175 A 
ATOM     12  N   UNL d   1      62.506  45.896  49.136  0.00  0.00    -0.187 NA
ATOM     13  S   UNL d   1      62.252  46.673  49.284  0.00  0.00     0.054 SA
BRANCH  11  14
ATOM     14  C   UNL d   1      61.934  44.565  49.320  0.00  0.00     0.082 C 
BRANCH  14  15
ATOM     15  C   UNL d   1      61.857  44.105  50.007  0.00  0.00     0.199 C 
ATOM     16  O   UNL d   1      61.187  44.183  50.484  0.00  0.00    -0.286 OA
ATOM     17  C   UNL d   1      62.449  43.568  50.216  0.00  0.00     0.045 C 
ENDBRANCH  14  15
ENDBRANCH  11  14
ENDBRANCH   7   9
ENDBRANCH   1   6
BRANCH   4  18
ATOM     18  C   UNL d   1      59.062  49.505  50.994  0.00  0.00     0.147 C 
BRANCH  18  19
ATOM     19  O   UNL d   1      58.552  49.566  50.346  0.00  0.00    -0.303 OA
BRANCH  19  20
ATOM     20  C   UNL d   1      57.739  49.610  50.466  0.00  0.00     0.100 A 
ATOM     21  C   UNL d   1      57.220  49.601  49.817  0.00  0.00     0.025 A 
ATOM     22  C   UNL d   1      56.407  49.645  49.937  0.00  0.00     0.002 A 
ATOM     23  C   UNL d   1      56.112  49.699  50.706  0.00  0.00     0.000 A 
ATOM     24  C   UNL d   1      56.627  49.708  51.353  0.00  0.00     0.002 A 
ATOM     25  C   UNL d   1      57.440  49.664  51.233  0.00  0.00     0.025 A 
ENDBRANCH  19  20
ENDBRANCH  18  19
ENDBRANCH   4  18
TORSDOF 7
ENDMDL
