MODEL 1
REMARK VINA RESULT:      58.9      0.000      0.000
REMARK  4 active torsions:
REMARK  status: ('A' for Active; 'I' for Inactive)
REMARK    1  A    between atoms: C_8  and  C_1 
REMARK    2  A    between atoms: C_10  and  C_7 
REMARK    3  A    between atoms: N_9  and  C_10 
REMARK    4  A    between atoms: O_23  and  C_15 
ROOT
ATOM      1  C   UNL d   1      14.348  13.097  -1.936  0.00  0.00     0.064 A 
ATOM      2  C   UNL d   1      13.646  13.984  -3.145  0.00  0.00     0.107 A 
ATOM      3  C   UNL d   1      14.511  13.903  -2.007  0.00  0.00     0.199 A 
ATOM      4  C   UNL d   1      14.161  14.351  -2.612  0.00  0.00     0.062 A 
ATOM      5  C   UNL d   1      13.827  12.727  -2.475  0.00  0.00     0.103 A 
ATOM      6  O   UNL d   1      13.475  13.174  -3.082  0.00  0.00    -0.307 OA
ATOM      7  C   UNL d   1      13.294  14.424  -3.749  0.00  0.00     0.079 A 
ATOM      8  C   UNL d   1      14.321  15.155  -2.686  0.00  0.00     0.009 A 
ATOM      9  C   UNL d   1      13.459  15.221  -3.815  0.00  0.00     0.199 A 
ATOM     10  O   UNL d   1      15.021  14.266  -1.480  0.00  0.00    -0.286 OA
ATOM     11  C   UNL d   1      13.974  15.588  -3.283  0.00  0.00     0.042 A 
ATOM     12  C   UNL d   1      13.664  11.921  -2.404  0.00  0.00     0.027 C 
ATOM     13  O   UNL d   1      13.106  15.667  -4.423  0.00  0.00    -0.286 OA
ENDROOT
BRANCH   1  14
ATOM     14  C   UNL d   1      14.700  12.658  -1.333  0.00  0.00     0.027 A 
ATOM     15  C   UNL d   1      14.251  12.416  -0.682  0.00  0.00     0.094 A 
ATOM     16  C   UNL d   1      14.610  11.977  -0.083  0.00  0.00     0.024 A 
ATOM     17  C   UNL d   1      15.410  11.781  -0.131  0.00  0.00     0.002 A 
ATOM     18  C   UNL d   1      15.855  12.025  -0.782  0.00  0.00     0.000 A 
ATOM     19  C   UNL d   1      15.504  12.464  -1.387  0.00  0.00     0.002 A 
BRANCH  15  20
ATOM     20  O   UNL d   1      13.451  12.613  -0.635  0.00  0.00    -0.328 OA
ATOM     21  C   UNL d   1      12.990  12.312  -0.018  0.00  0.00     0.181 C 
ENDBRANCH  15  20
ENDBRANCH   1  14
BRANCH   7  22
ATOM     22  C   UNL d   1      12.779  14.057  -4.281  0.00  0.00     0.086 C 
BRANCH  22  23
ATOM     23  N   UNL d   1      13.063  13.488  -4.806  0.00  0.00    -0.300 N 
ATOM     24  C   UNL d   1      13.580  13.709  -5.410  0.00  0.00     0.100 A 
ATOM     25  C   UNL d   1      13.872  13.137  -5.945  0.00  0.00     0.100 A 
ATOM     26  N   UNL d   1      13.642  12.354  -5.867  0.00  0.00    -0.299 N 
ATOM     27  C   UNL d   1      13.118  12.138  -5.253  0.00  0.00     0.100 A 
ATOM     28  C   UNL d   1      13.920  11.780  -6.385  0.00  0.00     0.100 C 
ATOM     29  C   UNL d   1      12.833  12.706  -4.728  0.00  0.00     0.100 A 
ENDBRANCH  22  23
ENDBRANCH   7  22
TORSDOF 4
ENDMDL
