MODEL 1
REMARK VINA RESULT:      47.4      0.000      0.000
REMARK  3 active torsions:
REMARK  status: ('A' for Active; 'I' for Inactive)
REMARK    1  A    between atoms: C_5  and  C_1 
REMARK    2  A    between atoms: N_6  and  C_2 
REMARK       I    between atoms: C_8  and  N_6 
REMARK    3  A    between atoms: C_9  and  C_8 
ROOT
ATOM      1  C   UNL d   1     -51.756  24.670  33.452  0.00  0.00     0.231 A 
ATOM      2  C   UNL d   1     -50.759  25.558  33.431  0.00  0.00     0.297 A 
ATOM      3  O   UNL d   1     -51.573  25.468  33.330  0.00  0.00    -0.252 OA
ATOM      4  N   UNL d   1     -51.058  24.277  33.626  0.00  0.00    -0.117 NA
ATOM      5  N   UNL d   1     -50.443  24.825  33.613  0.00  0.00    -0.101 NA
ENDROOT
BRANCH   2   6
ATOM      6  N   UNL d   1     -50.345  26.268  33.359  0.00  0.00    -0.165 NA
ATOM      7  C   UNL d   1     -50.523  26.900  33.844  0.00  0.00     0.282 C 
ATOM      8  O   UNL d   1     -51.121  26.838  34.414  0.00  0.00    -0.265 OA
BRANCH   7   9
ATOM      9  C   UNL d   1     -50.110  27.610  33.772  0.00  0.00     0.060 A 
ATOM     10  C   UNL d   1     -49.359  27.683  34.085  0.00  0.00     0.034 A 
ATOM     11  C   UNL d   1     -48.949  28.393  34.011  0.00  0.00     0.140 A 
ATOM     12  F   UNL d   1     -48.181  28.476  34.328  0.00  0.00    -0.204 F 
ATOM     13  C   UNL d   1     -49.296  29.032  33.620  0.00  0.00     0.030 A 
ATOM     14  C   UNL d   1     -50.056  28.952  33.306  0.00  0.00     0.003 A 
ATOM     15  C   UNL d   1     -50.463  28.237  33.383  0.00  0.00     0.005 A 
ENDBRANCH   7   9
ENDBRANCH   2   6
BRANCH   1  16
ATOM     16  C   UNL d   1     -52.514  24.337  33.404  0.00  0.00     0.168 A 
ATOM     17  O   UNL d   1     -52.599  23.519  33.392  0.00  0.00    -0.297 OA
ATOM     18  C   UNL d   1     -53.344  23.191  33.344  0.00  0.00     0.149 A 
ATOM     19  C   UNL d   1     -54.008  23.673  33.310  0.00  0.00     0.149 A 
ATOM     20  O   UNL d   1     -53.936  24.491  33.322  0.00  0.00    -0.299 OA
ATOM     21  C   UNL d   1     -53.187  24.822  33.369  0.00  0.00     0.151 A 
ENDBRANCH   1  16
TORSDOF 3
ENDMDL
MODEL 2
REMARK VINA RESULT:      48.4      2.175      5.115
REMARK  3 active torsions:
REMARK  status: ('A' for Active; 'I' for Inactive)
REMARK    1  A    between atoms: C_5  and  C_1 
REMARK    2  A    between atoms: N_6  and  C_2 
REMARK       I    between atoms: C_8  and  N_6 
REMARK    3  A    between atoms: C_9  and  C_8 
ROOT
ATOM      1  C   UNL d   1     -49.179  27.759  34.406  0.00  0.00     0.231 A 
ATOM      2  C   UNL d   1     -49.756  26.664  33.905  0.00  0.00     0.297 A 
ATOM      3  O   UNL d   1     -49.375  26.971  34.569  0.00  0.00    -0.252 OA
ATOM      4  N   UNL d   1     -49.439  27.929  33.648  0.00  0.00    -0.117 NA
ATOM      5  N   UNL d   1     -49.795  27.253  33.339  0.00  0.00    -0.101 NA
ENDROOT
BRANCH   2   6
ATOM      6  N   UNL d   1     -50.044  25.894  33.835  0.00  0.00    -0.165 NA
ATOM      7  C   UNL d   1     -50.819  25.762  33.616  0.00  0.00     0.282 C 
ATOM      8  O   UNL d   1     -51.327  26.398  33.462  0.00  0.00    -0.265 OA
BRANCH   7   9
ATOM      9  C   UNL d   1     -51.107  24.992  33.546  0.00  0.00     0.060 A 
ATOM     10  C   UNL d   1     -51.908  24.858  33.462  0.00  0.00     0.034 A 
ATOM     11  C   UNL d   1     -52.191  24.088  33.392  0.00  0.00     0.140 A 
ATOM     12  F   UNL d   1     -53.010  23.942  33.306  0.00  0.00    -0.204 F 
ATOM     13  C   UNL d   1     -51.667  23.451  33.406  0.00  0.00     0.030 A 
ATOM     14  C   UNL d   1     -50.858  23.594  33.491  0.00  0.00     0.003 A 
ATOM     15  C   UNL d   1     -50.578  24.369  33.561  0.00  0.00     0.005 A 
ENDBRANCH   7   9
ENDBRANCH   2   6
BRANCH   1  16
ATOM     16  C   UNL d   1     -48.789  28.276  34.924  0.00  0.00     0.168 A 
ATOM     17  O   UNL d   1     -48.364  28.911  34.622  0.00  0.00    -0.297 OA
ATOM     18  C   UNL d   1     -47.980  29.419  35.131  0.00  0.00     0.149 A 
ATOM     19  C   UNL d   1     -48.017  29.300  35.943  0.00  0.00     0.149 A 
ATOM     20  O   UNL d   1     -48.438  28.669  36.257  0.00  0.00    -0.299 OA
ATOM     21  C   UNL d   1     -48.824  28.157  35.746  0.00  0.00     0.151 A 
ENDBRANCH   1  16
TORSDOF 3
ENDMDL
MODEL 3
REMARK VINA RESULT:      49.7      1.598      2.584
REMARK  3 active torsions:
REMARK  status: ('A' for Active; 'I' for Inactive)
REMARK    1  A    between atoms: C_5  and  C_1 
REMARK    2  A    between atoms: N_6  and  C_2 
REMARK       I    between atoms: C_8  and  N_6 
REMARK    3  A    between atoms: C_9  and  C_8 
ROOT
ATOM      1  C   UNL d   1     -50.528  26.364  33.495  0.00  0.00     0.231 A 
ATOM      2  C   UNL d   1     -49.889  27.512  33.738  0.00  0.00     0.297 A 
ATOM      3  O   UNL d   1     -49.816  26.690  33.765  0.00  0.00    -0.252 OA
ATOM      4  N   UNL d   1     -51.030  26.984  33.306  0.00  0.00    -0.117 NA
ATOM      5  N   UNL d   1     -50.636  27.692  33.456  0.00  0.00    -0.101 NA
ENDROOT
BRANCH   2   6
ATOM      6  N   UNL d   1     -49.304  28.049  33.961  0.00  0.00    -0.165 NA
ATOM      7  C   UNL d   1     -49.056  28.091  34.737  0.00  0.00     0.282 C 
ATOM      8  O   UNL d   1     -49.386  27.594  35.312  0.00  0.00    -0.265 OA
BRANCH   7   9
ATOM      9  C   UNL d   1     -48.471  28.628  34.959  0.00  0.00     0.060 A 
ATOM     10  C   UNL d   1     -48.563  29.424  34.805  0.00  0.00     0.034 A 
ATOM     11  C   UNL d   1     -47.978  29.958  35.028  0.00  0.00     0.140 A 
ATOM     12  F   UNL d   1     -48.065  30.775  34.874  0.00  0.00    -0.204 F 
ATOM     13  C   UNL d   1     -47.296  29.689  35.408  0.00  0.00     0.030 A 
ATOM     14  C   UNL d   1     -47.208  28.882  35.561  0.00  0.00     0.003 A 
ATOM     15  C   UNL d   1     -47.800  28.350  35.335  0.00  0.00     0.005 A 
ENDBRANCH   7   9
ENDBRANCH   2   6
BRANCH   1  16
ATOM     16  C   UNL d   1     -50.694  25.555  33.431  0.00  0.00     0.168 A 
ATOM     17  O   UNL d   1     -51.475  25.298  33.430  0.00  0.00    -0.297 OA
ATOM     18  C   UNL d   1     -51.638  24.501  33.368  0.00  0.00     0.149 A 
ATOM     19  C   UNL d   1     -51.027  23.956  33.306  0.00  0.00     0.149 A 
ATOM     20  O   UNL d   1     -50.243  24.200  33.306  0.00  0.00    -0.299 OA
ATOM     21  C   UNL d   1     -50.078  25.001  33.369  0.00  0.00     0.151 A 
ENDBRANCH   1  16
TORSDOF 3
ENDMDL
