MODEL 1
REMARK VINA RESULT:      -5.1      0.000      0.000
REMARK  2 active torsions:
REMARK  status: ('A' for Active; 'I' for Inactive)
REMARK    1  A    between atoms: C_4  and  N_1 
REMARK    2  A    between atoms: C_3  and  C_4 
ROOT
ATOM      1  N   UNL d   1     -47.615  12.680  22.898  0.00  0.00    -0.295 N 
ATOM      2  N   UNL d   1     -49.056  12.046  23.431  0.00  0.00    -0.299 N 
ATOM      3  C   UNL d   1     -48.338  13.039  22.695  0.00  0.00     0.100 A 
ATOM      4  C   UNL d   1     -47.629  11.991  23.378  0.00  0.00     0.100 A 
ATOM      5  C   UNL d   1     -49.061  12.715  22.966  0.00  0.00     0.100 A 
ATOM      6  C   UNL d   1     -48.343  11.675  23.643  0.00  0.00     0.100 A 
ATOM      7  C   UNL d   1     -49.764  11.728  23.697  0.00  0.00     0.100 C 
ENDROOT
BRANCH   1   8
ATOM      8  C   UNL d   1     -46.910  12.997  22.633  0.00  0.00     0.152 C 
BRANCH   8   9
ATOM      9  C   UNL d   1     -46.535  13.569  23.088  0.00  0.00     0.230 C 
ATOM     10  O   UNL d   1     -46.015  13.357  23.693  0.00  0.00    -0.643 OA
ATOM     11  O   UNL d   1     -46.689  14.378  22.931  0.00  0.00    -0.643 OA
ENDBRANCH   8   9
ENDBRANCH   1   8
TORSDOF 2
ENDMDL
MODEL 2
REMARK VINA RESULT:      -4.9      1.795      2.697
REMARK  2 active torsions:
REMARK  status: ('A' for Active; 'I' for Inactive)
REMARK    1  A    between atoms: C_4  and  N_1 
REMARK    2  A    between atoms: C_3  and  C_4 
ROOT
ATOM      1  N   UNL d   1     -48.173  12.753  23.196  0.00  0.00    -0.295 N 
ATOM      2  N   UNL d   1     -46.881  13.774  22.968  0.00  0.00    -0.299 N 
ATOM      3  C   UNL d   1     -48.289  13.530  22.921  0.00  0.00     0.100 A 
ATOM      4  C   UNL d   1     -47.390  12.495  23.356  0.00  0.00     0.100 A 
ATOM      5  C   UNL d   1     -47.634  14.039  22.808  0.00  0.00     0.100 A 
ATOM      6  C   UNL d   1     -46.747  13.001  23.243  0.00  0.00     0.100 A 
ATOM      7  C   UNL d   1     -46.239  14.272  22.857  0.00  0.00     0.100 C 
ENDROOT
BRANCH   1   8
ATOM      8  C   UNL d   1     -48.812  12.256  23.307  0.00  0.00     0.152 C 
BRANCH   8   9
ATOM      9  C   UNL d   1     -49.059  11.781  22.683  0.00  0.00     0.230 C 
ATOM     10  O   UNL d   1     -48.694  11.056  22.532  0.00  0.00    -0.643 OA
ATOM     11  O   UNL d   1     -49.690  12.042  22.198  0.00  0.00    -0.643 OA
ENDBRANCH   8   9
ENDBRANCH   1   8
TORSDOF 2
ENDMDL
MODEL 3
REMARK VINA RESULT:      -4.8      1.409      1.988
REMARK  2 active torsions:
REMARK  status: ('A' for Active; 'I' for Inactive)
REMARK    1  A    between atoms: C_4  and  N_1 
REMARK    2  A    between atoms: C_3  and  C_4 
ROOT
ATOM      1  N   UNL d   1     -47.591  13.614  22.710  0.00  0.00    -0.295 N 
ATOM      2  N   UNL d   1     -48.887  14.651  22.811  0.00  0.00    -0.299 N 
ATOM      3  C   UNL d   1     -47.495  14.428  22.570  0.00  0.00     0.100 A 
ATOM      4  C   UNL d   1     -48.356  13.326  22.903  0.00  0.00     0.100 A 
ATOM      5  C   UNL d   1     -48.151  14.946  22.622  0.00  0.00     0.100 A 
ATOM      6  C   UNL d   1     -49.000  13.840  22.954  0.00  0.00     0.100 A 
ATOM      7  C   UNL d   1     -49.530  15.157  22.863  0.00  0.00     0.100 C 
ENDROOT
BRANCH   1   8
ATOM      8  C   UNL d   1     -46.950  13.110  22.658  0.00  0.00     0.152 C 
BRANCH   8   9
ATOM      9  C   UNL d   1     -46.569  12.880  23.349  0.00  0.00     0.230 C 
ATOM     10  O   UNL d   1     -45.996  13.362  23.698  0.00  0.00    -0.643 OA
ATOM     11  O   UNL d   1     -46.769  12.145  23.698  0.00  0.00    -0.643 OA
ENDBRANCH   8   9
ENDBRANCH   1   8
TORSDOF 2
ENDMDL
