MODEL 1
REMARK VINA RESULT:      -3.1      0.000      0.000
REMARK  4 active torsions:
REMARK  status: ('A' for Active; 'I' for Inactive)
REMARK    1  A    between atoms: C_3  and  N_1 
REMARK    2  A    between atoms: C_6  and  C_3 
REMARK    3  A    between atoms: C_9  and  C_3 
REMARK    4  A    between atoms: N_5  and  C_6 
ROOT
ATOM      1  C   UNL d   1      58.470   0.060  30.309  0.00  0.00     0.106 C 
ENDROOT
BRANCH   1   2
ATOM      2  N   UNL d   1      58.560  -0.541  29.749  0.00  0.00    -0.228 N 
ATOM      3  N   UNL d   1      58.784  -1.338  29.822  0.00  0.00    -0.165 NA
ATOM      4  C   UNL d   1      58.773  -1.663  29.062  0.00  0.00     0.103 A 
ATOM      5  C   UNL d   1      58.963  -2.458  28.878  0.00  0.00     0.022 C 
ATOM      6  C   UNL d   1      58.552  -1.095  28.535  0.00  0.00     0.040 A 
ATOM      7  C   UNL d   1      58.418  -0.397  28.954  0.00  0.00     0.085 A 
ATOM      8  C   UNL d   1      58.178   0.340  28.631  0.00  0.00     0.021 C 
ENDBRANCH   1   2
BRANCH   1   9
ATOM      9  C   UNL d   1      59.005   0.682  30.322  0.00  0.00     0.167 C 
BRANCH   9  10
ATOM     10  N   UNL d   1      59.713   0.633  30.745  0.00  0.00    -0.111 N 
ATOM     11  O   UNL d   1      59.711   0.672  31.572  0.00  0.00    -0.532 OA
ATOM     12  O   UNL d   1      60.424   0.544  30.333  0.00  0.00    -0.532 OA
ENDBRANCH   9  10
ENDBRANCH   1   9
BRANCH   1  13
ATOM     13  C   UNL d   1      57.842   0.020  30.846  0.00  0.00     0.019 A 
ATOM     14  C   UNL d   1      57.376   0.682  30.963  0.00  0.00     0.002 A 
ATOM     15  C   UNL d   1      56.738   0.666  31.497  0.00  0.00     0.011 A 
ATOM     16  C   UNL d   1      56.592  -0.058  31.912  0.00  0.00     0.058 A 
ATOM     17  C   UNL d   1      57.059  -0.698  31.787  0.00  0.00     0.011 A 
ATOM     18 CL   UNL d   1      55.971  -0.118  32.452  0.00  0.00    -0.082 Cl
ATOM     19  C   UNL d   1      57.678  -0.667  31.261  0.00  0.00     0.002 A 
ENDBRANCH   1  13
TORSDOF 4
ENDMDL
MODEL 2
REMARK VINA RESULT:      -2.5      0.587      1.024
REMARK  4 active torsions:
REMARK  status: ('A' for Active; 'I' for Inactive)
REMARK    1  A    between atoms: C_3  and  N_1 
REMARK    2  A    between atoms: C_6  and  C_3 
REMARK    3  A    between atoms: C_9  and  C_3 
REMARK    4  A    between atoms: N_5  and  C_6 
ROOT
ATOM      1  C   UNL d   1      58.156   0.062  30.852  0.00  0.00     0.106 C 
ENDROOT
BRANCH   1   2
ATOM      2  N   UNL d   1      58.285  -0.474  30.237  0.00  0.00    -0.228 N 
ATOM      3  N   UNL d   1      58.442  -1.290  30.235  0.00  0.00    -0.165 NA
ATOM      4  C   UNL d   1      58.519  -1.521  29.446  0.00  0.00     0.103 A 
ATOM      5  C   UNL d   1      58.680  -2.302  29.188  0.00  0.00     0.022 C 
ATOM      6  C   UNL d   1      58.415  -0.877  28.971  0.00  0.00     0.040 A 
ATOM      7  C   UNL d   1      58.270  -0.225  29.455  0.00  0.00     0.085 A 
ATOM      8  C   UNL d   1      58.129   0.562  29.200  0.00  0.00     0.021 C 
ENDBRANCH   1   2
BRANCH   1   9
ATOM      9  C   UNL d   1      58.682   0.682  30.963  0.00  0.00     0.167 C 
BRANCH   9  10
ATOM     10  N   UNL d   1      59.316   0.621  31.491  0.00  0.00    -0.111 N 
ATOM     11  O   UNL d   1      60.085   0.500  31.210  0.00  0.00    -0.532 OA
ATOM     12  O   UNL d   1      59.172   0.682  32.302  0.00  0.00    -0.532 OA
ENDBRANCH   9  10
ENDBRANCH   1   9
BRANCH   1  13
ATOM     13  C   UNL d   1      57.499  -0.040  31.344  0.00  0.00     0.019 A 
ATOM     14  C   UNL d   1      57.292  -0.794  31.583  0.00  0.00     0.002 A 
ATOM     15  C   UNL d   1      56.635  -0.921  32.077  0.00  0.00     0.011 A 
ATOM     16  C   UNL d   1      56.192  -0.241  32.322  0.00  0.00     0.058 A 
ATOM     17  C   UNL d   1      56.407   0.492  32.080  0.00  0.00     0.011 A 
ATOM     18 CL   UNL d   1      55.533  -0.321  32.812  0.00  0.00    -0.082 Cl
ATOM     19  C   UNL d   1      57.052   0.600  31.596  0.00  0.00     0.002 A 
ENDBRANCH   1  13
TORSDOF 4
ENDMDL
MODEL 3
REMARK VINA RESULT:      -2.2      1.701      3.079
REMARK  4 active torsions:
REMARK  status: ('A' for Active; 'I' for Inactive)
REMARK    1  A    between atoms: C_3  and  N_1 
REMARK    2  A    between atoms: C_6  and  C_3 
REMARK    3  A    between atoms: C_9  and  C_3 
REMARK    4  A    between atoms: N_5  and  C_6 
ROOT
ATOM      1  C   UNL d   1      59.227  -0.543  29.232  0.00  0.00     0.106 C 
ENDROOT
BRANCH   1   2
ATOM      2  N   UNL d   1      58.659  -0.218  29.735  0.00  0.00    -0.228 N 
ATOM      3  N   UNL d   1      58.480  -0.360  30.535  0.00  0.00    -0.165 NA
ATOM      4  C   UNL d   1      57.851   0.138  30.734  0.00  0.00     0.103 A 
ATOM      5  C   UNL d   1      57.492   0.177  31.490  0.00  0.00     0.022 C 
ATOM      6  C   UNL d   1      57.644   0.574  30.088  0.00  0.00     0.040 A 
ATOM      7  C   UNL d   1      58.141   0.358  29.465  0.00  0.00     0.085 A 
ATOM      8  C   UNL d   1      58.127   0.669  28.686  0.00  0.00     0.021 C 
ENDBRANCH   1   2
BRANCH   1   9
ATOM      9  C   UNL d   1      59.759  -0.048  28.850  0.00  0.00     0.167 C 
BRANCH   9  10
ATOM     10  N   UNL d   1      60.528   0.059  29.133  0.00  0.00    -0.111 N 
ATOM     11  O   UNL d   1      60.691  -0.011  29.942  0.00  0.00    -0.532 OA
ATOM     12  O   UNL d   1      61.132   0.238  28.599  0.00  0.00    -0.532 OA
ENDBRANCH   9  10
ENDBRANCH   1   9
BRANCH   1  13
ATOM     13  C   UNL d   1      59.248  -1.363  29.123  0.00  0.00     0.019 A 
ATOM     14  C   UNL d   1      58.740  -1.706  28.581  0.00  0.00     0.002 A 
ATOM     15  C   UNL d   1      58.743  -2.528  28.455  0.00  0.00     0.011 A 
ATOM     16  C   UNL d   1      59.288  -2.993  28.908  0.00  0.00     0.058 A 
ATOM     17  C   UNL d   1      59.779  -2.642  29.436  0.00  0.00     0.011 A 
ATOM     18 CL   UNL d   1      59.324  -3.812  28.815  0.00  0.00    -0.082 Cl
ATOM     19  C   UNL d   1      59.765  -1.837  29.548  0.00  0.00     0.002 A 
ENDBRANCH   1  13
TORSDOF 4
ENDMDL
MODEL 4
REMARK VINA RESULT:      -2.0      1.462      2.069
REMARK  4 active torsions:
REMARK  status: ('A' for Active; 'I' for Inactive)
REMARK    1  A    between atoms: C_3  and  N_1 
REMARK    2  A    between atoms: C_6  and  C_3 
REMARK    3  A    between atoms: C_9  and  C_3 
REMARK    4  A    between atoms: N_5  and  C_6 
ROOT
ATOM      1  C   UNL d   1      58.478  -0.447  29.881  0.00  0.00     0.106 C 
ENDROOT
BRANCH   1   2
ATOM      2  N   UNL d   1      59.206  -0.059  29.856  0.00  0.00    -0.228 N 
ATOM      3  N   UNL d   1      59.817   0.010  30.416  0.00  0.00    -0.165 NA
ATOM      4  C   UNL d   1      60.411   0.470  30.071  0.00  0.00     0.103 A 
ATOM      5  C   UNL d   1      61.132   0.679  30.443  0.00  0.00     0.022 C 
ATOM      6  C   UNL d   1      60.183   0.681  29.327  0.00  0.00     0.040 A 
ATOM      7  C   UNL d   1      59.437   0.357  29.187  0.00  0.00     0.085 A 
ATOM      8  C   UNL d   1      58.984   0.433  28.485  0.00  0.00     0.021 C 
ENDBRANCH   1   2
BRANCH   1   9
ATOM      9  C   UNL d   1      58.316  -1.036  29.332  0.00  0.00     0.167 C 
BRANCH   9  10
ATOM     10  N   UNL d   1      58.429  -1.835  29.512  0.00  0.00    -0.111 N 
ATOM     11  O   UNL d   1      59.176  -2.114  29.732  0.00  0.00    -0.532 OA
ATOM     12  O   UNL d   1      57.786  -2.352  29.468  0.00  0.00    -0.532 OA
ENDBRANCH   9  10
ENDBRANCH   1   9
BRANCH   1  13
ATOM     13  C   UNL d   1      57.926  -0.234  30.459  0.00  0.00     0.019 A 
ATOM     14  C   UNL d   1      57.485   0.447  30.356  0.00  0.00     0.002 A 
ATOM     15  C   UNL d   1      56.924   0.682  30.924  0.00  0.00     0.011 A 
ATOM     16  C   UNL d   1      56.830   0.191  31.608  0.00  0.00     0.058 A 
ATOM     17  C   UNL d   1      57.270  -0.473  31.695  0.00  0.00     0.011 A 
ATOM     18 CL   UNL d   1      56.285   0.387  32.197  0.00  0.00    -0.082 Cl
ATOM     19  C   UNL d   1      57.814  -0.690  31.131  0.00  0.00     0.002 A 
ENDBRANCH   1  13
TORSDOF 4
ENDMDL
MODEL 5
REMARK VINA RESULT:      -1.6      3.006      4.621
REMARK  4 active torsions:
REMARK  status: ('A' for Active; 'I' for Inactive)
REMARK    1  A    between atoms: C_3  and  N_1 
REMARK    2  A    between atoms: C_6  and  C_3 
REMARK    3  A    between atoms: C_9  and  C_3 
REMARK    4  A    between atoms: N_5  and  C_6 
ROOT
ATOM      1  C   UNL d   1      56.192  -0.290  33.015  0.00  0.00     0.106 C 
ENDROOT
BRANCH   1   2
ATOM      2  N   UNL d   1      56.405   0.045  33.740  0.00  0.00    -0.228 N 
ATOM      3  N   UNL d   1      57.137   0.105  34.129  0.00  0.00    -0.165 NA
ATOM      4  C   UNL d   1      57.001   0.501  34.841  0.00  0.00     0.103 A 
ATOM      5  C   UNL d   1      57.590   0.682  35.409  0.00  0.00     0.022 C 
ATOM      6  C   UNL d   1      56.217   0.682  34.897  0.00  0.00     0.040 A 
ATOM      7  C   UNL d   1      55.842   0.402  34.218  0.00  0.00     0.085 A 
ATOM      8  C   UNL d   1      55.025   0.467  34.037  0.00  0.00     0.021 C 
ENDBRANCH   1   2
BRANCH   1   9
ATOM      9  C   UNL d   1      55.572  -0.827  32.986  0.00  0.00     0.167 C 
BRANCH   9  10
ATOM     10  N   UNL d   1      55.705  -1.634  32.867  0.00  0.00    -0.111 N 
ATOM     11  O   UNL d   1      55.981  -2.109  33.486  0.00  0.00    -0.532 OA
ATOM     12  O   UNL d   1      55.559  -1.960  32.123  0.00  0.00    -0.532 OA
ENDBRANCH   9  10
ENDBRANCH   1   9
BRANCH   1  13
ATOM     13  C   UNL d   1      56.610  -0.077  32.334  0.00  0.00     0.019 A 
ATOM     14  C   UNL d   1      57.335  -0.424  32.186  0.00  0.00     0.002 A 
ATOM     15  C   UNL d   1      57.773  -0.225  31.507  0.00  0.00     0.011 A 
ATOM     16  C   UNL d   1      57.441   0.348  30.980  0.00  0.00     0.058 A 
ATOM     17  C   UNL d   1      56.728   0.680  31.138  0.00  0.00     0.011 A 
ATOM     18 CL   UNL d   1      57.841   0.574  30.295  0.00  0.00    -0.082 Cl
ATOM     19  C   UNL d   1      56.312   0.475  31.806  0.00  0.00     0.002 A 
ENDBRANCH   1  13
TORSDOF 4
ENDMDL
MODEL 6
REMARK VINA RESULT:      -1.5      1.999      3.250
REMARK  4 active torsions:
REMARK  status: ('A' for Active; 'I' for Inactive)
REMARK    1  A    between atoms: C_3  and  N_1 
REMARK    2  A    between atoms: C_6  and  C_3 
REMARK    3  A    between atoms: C_9  and  C_3 
REMARK    4  A    between atoms: N_5  and  C_6 
ROOT
ATOM      1  C   UNL d   1      57.952  -0.231  30.259  0.00  0.00     0.106 C 
ENDROOT
BRANCH   1   2
ATOM      2  N   UNL d   1      57.523  -0.416  30.940  0.00  0.00    -0.228 N 
ATOM      3  N   UNL d   1      56.962  -1.008  31.098  0.00  0.00    -0.165 NA
ATOM      4  C   UNL d   1      56.725  -0.914  31.884  0.00  0.00     0.103 A 
ATOM      5  C   UNL d   1      56.163  -1.396  32.276  0.00  0.00     0.022 C 
ATOM      6  C   UNL d   1      57.121  -0.290  32.206  0.00  0.00     0.040 A 
ATOM      7  C   UNL d   1      57.617   0.024  31.627  0.00  0.00     0.085 A 
ATOM      8  C   UNL d   1      58.133   0.680  31.714  0.00  0.00     0.021 C 
ENDBRANCH   1   2
BRANCH   1   9
ATOM      9  C   UNL d   1      57.876   0.515  29.925  0.00  0.00     0.167 C 
BRANCH   9  10
ATOM     10  N   UNL d   1      57.665   0.612  29.131  0.00  0.00    -0.111 N 
ATOM     11  O   UNL d   1      58.247   0.640  28.543  0.00  0.00    -0.532 OA
ATOM     12  O   UNL d   1      56.866   0.682  28.932  0.00  0.00    -0.532 OA
ENDBRANCH   9  10
ENDBRANCH   1   9
BRANCH   1  13
ATOM     13  C   UNL d   1      58.450  -0.802  29.928  0.00  0.00     0.019 A 
ATOM     14  C   UNL d   1      59.260  -0.692  29.960  0.00  0.00     0.002 A 
ATOM     15  C   UNL d   1      59.781  -1.253  29.635  0.00  0.00     0.011 A 
ATOM     16  C   UNL d   1      59.441  -1.939  29.271  0.00  0.00     0.058 A 
ATOM     17  C   UNL d   1      58.645  -2.033  29.247  0.00  0.00     0.011 A 
ATOM     18 CL   UNL d   1      59.921  -2.521  28.935  0.00  0.00    -0.082 Cl
ATOM     19  C   UNL d   1      58.149  -1.475  29.570  0.00  0.00     0.002 A 
ENDBRANCH   1  13
TORSDOF 4
ENDMDL
