MODEL 1
REMARK VINA RESULT:      38.2      0.000      0.000
REMARK  3 active torsions:
REMARK  status: ('A' for Active; 'I' for Inactive)
REMARK    1  A    between atoms: C_8  and  C_1 
REMARK    2  A    between atoms: N_5  and  C_2 
REMARK       I    between atoms: C_7  and  N_5 
REMARK    3  A    between atoms: C_9  and  C_7 
ROOT
ATOM      1  C   UNL d   1     -55.092-100.824 -43.800  0.00  0.00     0.229 A 
ATOM      2  C   UNL d   1     -54.963-101.688 -42.794  0.00  0.00     0.297 A 
ATOM      3  O   UNL d   1     -55.179-100.917 -42.983  0.00  0.00    -0.252 OA
ATOM      4  N   UNL d   1     -54.825-101.534 -44.104  0.00  0.00    -0.117 NA
ATOM      5  N   UNL d   1     -54.745-102.068 -43.483  0.00  0.00    -0.101 NA
ENDROOT
BRANCH   2   6
ATOM      6  N   UNL d   1     -54.969-102.011 -42.036  0.00  0.00    -0.165 NA
ATOM      7  C   UNL d   1     -55.117-101.539 -41.389  0.00  0.00     0.282 C 
ATOM      8  O   UNL d   1     -55.264-100.729 -41.480  0.00  0.00    -0.265 OA
BRANCH   7   9
ATOM      9  C   UNL d   1     -55.123-101.863 -40.632  0.00  0.00     0.058 A 
ATOM     10  C   UNL d   1     -54.717-101.481 -40.026  0.00  0.00     0.005 A 
ATOM     11  C   UNL d   1     -54.717-101.799 -39.260  0.00  0.00     0.000 A 
ATOM     12  C   UNL d   1     -55.128-102.502 -39.110  0.00  0.00     0.000 A 
ATOM     13  C   UNL d   1     -55.534-102.880 -39.723  0.00  0.00     0.000 A 
ATOM     14  C   UNL d   1     -55.139-102.833 -38.357  0.00  0.00     0.000 C 
ATOM     15  C   UNL d   1     -55.532-102.561 -40.485  0.00  0.00     0.005 A 
ENDBRANCH   7   9
ENDBRANCH   2   6
BRANCH   1  16
ATOM     16  C   UNL d   1     -55.249-100.131 -44.225  0.00  0.00     0.143 A 
ATOM     17  O   UNL d   1     -55.960 -99.934 -44.583  0.00  0.00    -0.301 OA
ATOM     18  C   UNL d   1     -55.869 -99.199 -44.941  0.00  0.00     0.123 A 
ATOM     19  C   UNL d   1     -55.096 -98.939 -44.804  0.00  0.00     0.029 A 
ATOM     20  C   UNL d   1     -54.712 -99.514 -44.361  0.00  0.00     0.030 A 
ENDBRANCH   1  16
TORSDOF 3
ENDMDL
