MODEL 1
REMARK VINA RESULT:      -3.2      0.000      0.000
REMARK  2 active torsions:
REMARK  status: ('A' for Active; 'I' for Inactive)
REMARK    1  A    between atoms: N_2  and  C_9 
REMARK    2  A    between atoms: C_11  and  C_7 
ROOT
ATOM      1  C   UNL d   1      32.025  17.226 -23.845  0.00  0.00     0.110 A 
ATOM      2  C   UNL d   1      32.429  18.361 -23.276  0.00  0.00     0.332 A 
ATOM      3  C   UNL d   1      32.832  17.296 -23.964  0.00  0.00     0.060 A 
ATOM      4  S   UNL d   1      33.083  17.992 -23.616  0.00  0.00    -0.018 SA
ATOM      5  O   UNL d   1      31.772  17.877 -23.423  0.00  0.00    -0.268 OA
ATOM      6  C   UNL d   1      31.618  16.573 -24.138  0.00  0.00     0.027 A 
ATOM      7  C   UNL d   1      33.241  16.697 -24.387  0.00  0.00     0.051 A 
ATOM      8  C   UNL d   1      32.015  15.983 -24.554  0.00  0.00     0.044 A 
ATOM      9  O   UNL d   1      32.428  19.078 -22.866  0.00  0.00    -0.251 OA
ATOM     10  C   UNL d   1      32.822  16.046 -24.677  0.00  0.00     0.196 A 
ATOM     11  O   UNL d   1      33.231  15.453 -25.097  0.00  0.00    -0.286 OA
ENDROOT
BRANCH   6  12
ATOM     12  C   UNL d   1      30.804  16.506 -24.017  0.00  0.00     0.002 A 
ATOM     13  C   UNL d   1      30.520  15.998 -23.427  0.00  0.00     0.002 A 
ATOM     14  C   UNL d   1      29.703  15.927 -23.302  0.00  0.00     0.024 A 
ATOM     15  C   UNL d   1      29.175  16.365 -23.767  0.00  0.00     0.127 A 
ATOM     16  C   UNL d   1      29.461  16.868 -24.352  0.00  0.00     0.024 A 
ATOM     17  C   UNL d   1      30.278  16.939 -24.477  0.00  0.00     0.002 A 
BRANCH  15  18
ATOM     18  N   UNL d   1      28.353  16.298 -23.646  0.00  0.00    -0.114 N 
ATOM     19  O   UNL d   1      27.950  15.639 -23.931  0.00  0.00    -0.532 OA
ATOM     20  O   UNL d   1      27.948  16.889 -23.242  0.00  0.00    -0.532 OA
ENDBRANCH  15  18
ENDBRANCH   6  12
TORSDOF 2
ENDMDL
MODEL 2
REMARK VINA RESULT:      -2.5      1.961      3.667
REMARK  2 active torsions:
REMARK  status: ('A' for Active; 'I' for Inactive)
REMARK    1  A    between atoms: N_2  and  C_9 
REMARK    2  A    between atoms: C_11  and  C_7 
ROOT
ATOM      1  C   UNL d   1      31.443  17.192 -24.474  0.00  0.00     0.110 A 
ATOM      2  C   UNL d   1      30.126  17.242 -24.673  0.00  0.00     0.332 A 
ATOM      3  C   UNL d   1      31.217  16.503 -24.855  0.00  0.00     0.060 A 
ATOM      4  S   UNL d   1      30.410  16.530 -24.978  0.00  0.00    -0.018 SA
ATOM      5  O   UNL d   1      30.777  17.650 -24.360  0.00  0.00    -0.268 OA
ATOM      6  C   UNL d   1      32.232  17.318 -24.277  0.00  0.00     0.027 A 
ATOM      7  C   UNL d   1      31.798  15.926 -25.042  0.00  0.00     0.051 A 
ATOM      8  C   UNL d   1      32.805  16.755 -24.459  0.00  0.00     0.044 A 
ATOM      9  O   UNL d   1      29.341  17.500 -24.679  0.00  0.00    -0.251 OA
ATOM     10  C   UNL d   1      32.588  16.063 -24.840  0.00  0.00     0.196 A 
ATOM     11  O   UNL d   1      33.162  15.488 -25.028  0.00  0.00    -0.286 OA
ENDROOT
BRANCH   6  12
ATOM     12  C   UNL d   1      32.455  18.014 -23.893  0.00  0.00     0.002 A 
ATOM     13  C   UNL d   1      32.755  18.647 -24.336  0.00  0.00     0.002 A 
ATOM     14  C   UNL d   1      32.980  19.348 -23.954  0.00  0.00     0.024 A 
ATOM     15  C   UNL d   1      32.905  19.411 -23.131  0.00  0.00     0.127 A 
ATOM     16  C   UNL d   1      32.608  18.781 -22.694  0.00  0.00     0.024 A 
ATOM     17  C   UNL d   1      32.382  18.080 -23.077  0.00  0.00     0.002 A 
BRANCH  15  18
ATOM     18  N   UNL d   1      33.130  20.113 -22.742  0.00  0.00    -0.114 N 
ATOM     19  O   UNL d   1      33.241  20.111 -21.926  0.00  0.00    -0.532 OA
ATOM     20  O   UNL d   1      33.241  20.805 -23.173  0.00  0.00    -0.532 OA
ENDBRANCH  15  18
ENDBRANCH   6  12
TORSDOF 2
ENDMDL
MODEL 3
REMARK VINA RESULT:      -1.2      2.312      3.694
REMARK  2 active torsions:
REMARK  status: ('A' for Active; 'I' for Inactive)
REMARK    1  A    between atoms: N_2  and  C_9 
REMARK    2  A    between atoms: C_11  and  C_7 
ROOT
ATOM      1  C   UNL d   1      32.993  19.913 -22.670  0.00  0.00     0.110 A 
ATOM      2  C   UNL d   1      33.083  20.250 -21.383  0.00  0.00     0.332 A 
ATOM      3  C   UNL d   1      33.160  20.714 -22.628  0.00  0.00     0.060 A 
ATOM      4  S   UNL d   1      33.216  20.924 -21.840  0.00  0.00    -0.018 SA
ATOM      5  O   UNL d   1      32.945  19.623 -21.908  0.00  0.00    -0.268 OA
ATOM      6  C   UNL d   1      32.905  19.545 -23.401  0.00  0.00     0.027 A 
ATOM      7  C   UNL d   1      33.240  21.157 -23.337  0.00  0.00     0.051 A 
ATOM      8  C   UNL d   1      32.983  19.976 -24.099  0.00  0.00     0.044 A 
ATOM      9  O   UNL d   1      33.088  20.207 -20.558  0.00  0.00    -0.251 OA
ATOM     10  C   UNL d   1      33.150  20.777 -24.065  0.00  0.00     0.196 A 
ATOM     11  O   UNL d   1      33.230  21.219 -24.768  0.00  0.00    -0.286 OA
ENDROOT
BRANCH   6  12
ATOM     12  C   UNL d   1      32.736  18.739 -23.439  0.00  0.00     0.002 A 
ATOM     13  C   UNL d   1      33.239  18.198 -23.062  0.00  0.00     0.002 A 
ATOM     14  C   UNL d   1      33.073  17.386 -23.099  0.00  0.00     0.024 A 
ATOM     15  C   UNL d   1      32.406  17.120 -23.511  0.00  0.00     0.127 A 
ATOM     16  C   UNL d   1      31.908  17.659 -23.883  0.00  0.00     0.024 A 
ATOM     17  C   UNL d   1      32.074  18.471 -23.847  0.00  0.00     0.002 A 
BRANCH  15  18
ATOM     18  N   UNL d   1      32.234  16.304 -23.550  0.00  0.00    -0.114 N 
ATOM     19  O   UNL d   1      31.535  16.050 -23.904  0.00  0.00    -0.532 OA
ATOM     20  O   UNL d   1      32.762  15.757 -23.237  0.00  0.00    -0.532 OA
ENDBRANCH  15  18
ENDBRANCH   6  12
TORSDOF 2
ENDMDL
MODEL 4
REMARK VINA RESULT:      -0.7      3.998      5.859
REMARK  2 active torsions:
REMARK  status: ('A' for Active; 'I' for Inactive)
REMARK    1  A    between atoms: N_2  and  C_9 
REMARK    2  A    between atoms: C_11  and  C_7 
ROOT
ATOM      1  C   UNL d   1      32.904  22.241 -21.849  0.00  0.00     0.110 A 
ATOM      2  C   UNL d   1      33.100  23.163 -22.791  0.00  0.00     0.332 A 
ATOM      3  C   UNL d   1      32.865  22.979 -21.495  0.00  0.00     0.060 A 
ATOM      4  S   UNL d   1      32.985  23.547 -22.070  0.00  0.00    -0.018 SA
ATOM      5  O   UNL d   1      33.048  22.349 -22.645  0.00  0.00    -0.268 OA
ATOM      6  C   UNL d   1      32.803  21.559 -21.400  0.00  0.00     0.027 A 
ATOM      7  C   UNL d   1      32.721  23.034 -20.670  0.00  0.00     0.051 A 
ATOM      8  C   UNL d   1      32.661  21.608 -20.589  0.00  0.00     0.044 A 
ATOM      9  O   UNL d   1      33.241  23.523 -23.522  0.00  0.00    -0.251 OA
ATOM     10  C   UNL d   1      32.621  22.342 -20.228  0.00  0.00     0.196 A 
ATOM     11  O   UNL d   1      32.478  22.399 -19.408  0.00  0.00    -0.286 OA
ENDROOT
BRANCH   6  12
ATOM     12  C   UNL d   1      32.843  20.818 -21.760  0.00  0.00     0.002 A 
ATOM     13  C   UNL d   1      33.199  20.187 -21.358  0.00  0.00     0.002 A 
ATOM     14  C   UNL d   1      33.241  19.440 -21.717  0.00  0.00     0.024 A 
ATOM     15  C   UNL d   1      32.927  19.330 -22.476  0.00  0.00     0.127 A 
ATOM     16  C   UNL d   1      32.575  19.958 -22.873  0.00  0.00     0.024 A 
ATOM     17  C   UNL d   1      32.532  20.705 -22.513  0.00  0.00     0.002 A 
BRANCH  15  18
ATOM     18  N   UNL d   1      32.966  18.581 -22.842  0.00  0.00    -0.114 N 
ATOM     19  O   UNL d   1      33.222  17.928 -22.410  0.00  0.00    -0.532 OA
ATOM     20  O   UNL d   1      32.750  18.497 -23.631  0.00  0.00    -0.532 OA
ENDBRANCH  15  18
ENDBRANCH   6  12
TORSDOF 2
ENDMDL
