MODEL 1
REMARK VINA RESULT:      27.4      0.000      0.000
REMARK  6 active torsions:
REMARK  status: ('A' for Active; 'I' for Inactive)
REMARK    1  A    between atoms: C_8  and  C_6 
REMARK    2  A    between atoms: C_10  and  C_8 
REMARK       I    between atoms: N_13  and  C_10 
REMARK    3  A    between atoms: C_11  and  C_14 
REMARK    4  A    between atoms: O_20  and  C_11 
REMARK    5  A    between atoms: C_19  and  N_13 
REMARK    6  A    between atoms: C_23  and  O_20 
ROOT
ATOM      1  C   UNL d   1      46.256 -15.107  44.497  0.00  0.00     0.280 C 
ATOM      2  N   UNL d   1      46.511 -15.847  44.763  0.00  0.00    -0.208 NA
ATOM      3  O   UNL d   1      46.402 -14.436  44.955  0.00  0.00    -0.265 OA
ENDROOT
BRANCH   1   4
ATOM      4  C   UNL d   1      45.858 -15.040  43.779  0.00  0.00     0.074 C 
BRANCH   4   5
ATOM      5  C   UNL d   1      45.530 -14.313  43.554  0.00  0.00     0.095 A 
ATOM      6  C   UNL d   1      45.828 -13.805  42.979  0.00  0.00     0.288 A 
ATOM      7  N   UNL d   1      45.333 -13.152  42.936  0.00  0.00    -0.169 N 
ATOM      8  O   UNL d   1      46.506 -13.932  42.526  0.00  0.00    -0.265 OA
ATOM      9  C   UNL d   1      44.723 -13.254  43.487  0.00  0.00     0.200 A 
ATOM     10  N   UNL d   1      45.211 -12.432  42.552  0.00  0.00    -0.138 NA
ATOM     11  N   UNL d   1      44.225 -12.597  43.444  0.00  0.00    -0.197 NA
ATOM     12  S   UNL d   1      44.845 -13.974  43.870  0.00  0.00    -0.043 SA
ATOM     13  C   UNL d   1      44.526 -12.086  42.864  0.00  0.00     0.222 A 
ENDBRANCH   4   5
ENDBRANCH   1   4
BRANCH   2  14
ATOM     14  C   UNL d   1      46.363 -16.514  44.303  0.00  0.00     0.085 A 
ATOM     15  C   UNL d   1      45.926 -17.139  44.624  0.00  0.00     0.019 A 
ATOM     16  C   UNL d   1      45.772 -17.808  44.177  0.00  0.00     0.007 A 
ATOM     17  C   UNL d   1      46.056 -17.859  43.398  0.00  0.00     0.064 A 
ATOM     18  C   UNL d   1      46.494 -17.231  43.078  0.00  0.00     0.007 A 
ATOM     19  C   UNL d   1      46.646 -16.562  43.531  0.00  0.00     0.019 A 
BRANCH  17  20
ATOM     20  C   UNL d   1      45.907 -18.525  42.943  0.00  0.00     0.300 C 
ATOM     21  O   UNL d   1      45.513 -19.174  43.278  0.00  0.00    -0.259 OA
BRANCH  20  22
ATOM     22  O   UNL d   1      46.146 -18.552  42.156  0.00  0.00    -0.271 OA
BRANCH  22  23
ATOM     23  C   UNL d   1      46.181 -19.280  41.762  0.00  0.00     0.126 C 
ATOM     24  C   UNL d   1      46.586 -19.340  41.044  0.00  0.00     0.029 C 
ENDBRANCH  22  23
ENDBRANCH  20  22
ENDBRANCH  17  20
ENDBRANCH   2  14
TORSDOF 6
ENDMDL
