MODEL 1
REMARK VINA RESULT:      68.6      0.000      0.000
REMARK  6 active torsions:
REMARK  status: ('A' for Active; 'I' for Inactive)
REMARK    1  A    between atoms: S_5  and  C_2 
REMARK    2  A    between atoms: C_16  and  S_5 
REMARK    3  A    between atoms: N_11  and  C_8 
REMARK    4  A    between atoms: C_18  and  N_11 
REMARK    5  A    between atoms: C_19  and  N_12 
REMARK    6  A    between atoms: C_27  and  C_19 
ROOT
ATOM      1  C   UNL d   1      45.922 -18.603  41.461  0.00  0.00     0.197 A 
ATOM      2  C   UNL d   1      46.038 -18.563  40.647  0.00  0.00     0.227 A 
ATOM      3  N   UNL d   1      46.296 -19.282  41.738  0.00  0.00    -0.192 N 
ATOM      4  N   UNL d   1      45.521 -18.105  41.989  0.00  0.00    -0.206 NA
ATOM      5  N   UNL d   1      46.489 -19.226  40.418  0.00  0.00    -0.115 NA
ATOM      6  N   UNL d   1      46.647 -19.670  41.101  0.00  0.00    -0.058 NA
ATOM      7  C   UNL d   1      45.492 -18.282  42.796  0.00  0.00     0.166 A 
ATOM      8  C   UNL d   1      45.870 -18.967  43.069  0.00  0.00     0.054 A 
ATOM      9  C   UNL d   1      46.270 -19.465  42.547  0.00  0.00     0.089 A 
ATOM     10  C   UNL d   1      46.646 -20.147  42.822  0.00  0.00     0.020 A 
ATOM     11  C   UNL d   1      45.846 -19.152  43.875  0.00  0.00     0.016 A 
ATOM     12  C   UNL d   1      46.220 -19.832  44.152  0.00  0.00     0.058 A 
ATOM     13  C   UNL d   1      46.621 -20.330  43.625  0.00  0.00     0.013 A 
ATOM     14 CL   UNL d   1      46.195 -20.014  44.954  0.00  0.00    -0.082 Cl
ENDROOT
BRANCH   7  15
ATOM     15  N   UNL d   1      45.093 -17.786  43.321  0.00  0.00    -0.227 NA
BRANCH  15  16
ATOM     16  C   UNL d   1      45.451 -17.096  43.590  0.00  0.00     0.086 A 
ATOM     17  C   UNL d   1      46.087 -16.771  43.176  0.00  0.00     0.038 A 
ATOM     18  C   UNL d   1      46.439 -16.083  43.450  0.00  0.00     0.082 A 
ATOM     19  N   UNL d   1      46.161 -15.711  44.140  0.00  0.00    -0.302 N 
ATOM     20  C   UNL d   1      45.526 -16.042  44.548  0.00  0.00     0.082 A 
ATOM     21  C   UNL d   1      45.173 -16.730  44.274  0.00  0.00     0.038 A 
BRANCH  19  22
ATOM     22  C   UNL d   1      46.516 -15.022  44.412  0.00  0.00     0.080 C 
BRANCH  22  23
ATOM     23  C   UNL d   1      46.127 -14.299  44.335  0.00  0.00     0.018 A 
ATOM     24  C   UNL d   1      45.431 -14.245  43.896  0.00  0.00     0.002 A 
ATOM     25  C   UNL d   1      45.039 -13.523  43.817  0.00  0.00     0.000 A 
ATOM     26  C   UNL d   1      45.348 -12.851  44.180  0.00  0.00     0.000 A 
ATOM     27  C   UNL d   1      46.049 -12.902  44.623  0.00  0.00     0.000 A 
ATOM     28  C   UNL d   1      46.435 -13.627  44.698  0.00  0.00     0.002 A 
ENDBRANCH  22  23
ENDBRANCH  19  22
ENDBRANCH  15  16
ENDBRANCH   7  15
BRANCH   2  29
ATOM     29  S   UNL d   1      45.760 -17.974  40.134  0.00  0.00     0.231 S 
ATOM     30  O   UNL d   1      46.351 -17.454  40.368  0.00  0.00    -0.215 OA
ATOM     31  O   UNL d   1      45.166 -18.501  39.901  0.00  0.00    -0.215 OA
BRANCH  29  32
ATOM     32  C   UNL d   1      45.443 -17.424  39.607  0.00  0.00     0.090 A 
ATOM     33  C   UNL d   1      45.890 -16.779  39.374  0.00  0.00     0.011 A 
ATOM     34  C   UNL d   1      45.574 -16.229  38.848  0.00  0.00     0.001 A 
ATOM     35  C   UNL d   1      44.807 -16.335  38.561  0.00  0.00     0.000 A 
ATOM     36  C   UNL d   1      44.356 -16.988  38.798  0.00  0.00     0.001 A 
ATOM     37  C   UNL d   1      44.679 -17.529  39.321  0.00  0.00     0.011 A 
ENDBRANCH  29  32
ENDBRANCH   2  29
TORSDOF 6
ENDMDL
