MODEL 1
REMARK VINA RESULT:     151.3      0.000      0.000
REMARK  3 active torsions:
REMARK  status: ('A' for Active; 'I' for Inactive)
REMARK    1  A    between atoms: C_15  and  C_3 
REMARK    2  A    between atoms: C_10  and  N_4 
REMARK    3  A    between atoms: N_6  and  C_5 
ROOT
ATOM      1  C   UNL d   1     -56.984 -99.592 -43.378  0.00  0.00     0.070 A 
ATOM      2  C   UNL d   1     -57.406 -99.485 -42.689  0.00  0.00     0.152 A 
ATOM      3  C   UNL d   1     -57.905 -99.240 -43.969  0.00  0.00     0.023 A 
ATOM      4  N   UNL d   1     -58.124 -99.241 -42.597  0.00  0.00    -0.290 N 
ATOM      5  C   UNL d   1     -56.216 -99.859 -43.349  0.00  0.00     0.153 A 
ATOM      6  C   UNL d   1     -58.260 -99.154 -43.322  0.00  0.00     0.082 A 
ATOM      7  N   UNL d   1     -57.060 -99.645 -41.970  0.00  0.00    -0.206 NA
ATOM      8  N   UNL d   1     -55.870-100.020 -42.629  0.00  0.00    -0.206 NA
ATOM      9  C   UNL d   1     -56.292 -99.912 -41.940  0.00  0.00     0.202 A 
ENDROOT
BRANCH   5  10
ATOM     10  N   UNL d   1     -55.784 -99.969 -44.061  0.00  0.00    -0.285 N 
ATOM     11  C   UNL d   1     -55.580-100.738 -44.305  0.00  0.00     0.106 A 
ATOM     12  C   UNL d   1     -55.157-100.853 -45.002  0.00  0.00     0.118 A 
ATOM     13  C   UNL d   1     -54.947-101.627 -45.255  0.00  0.00     0.028 C 
ATOM     14  O   UNL d   1     -54.928-100.186 -45.473  0.00  0.00    -0.304 OA
ATOM     15  C   UNL d   1     -55.132 -99.417 -45.229  0.00  0.00     0.118 A 
ATOM     16  C   UNL d   1     -55.562 -99.308 -44.519  0.00  0.00     0.106 A 
ATOM     17  C   UNL d   1     -54.910 -98.756 -45.687  0.00  0.00     0.028 C 
ENDBRANCH   5  10
BRANCH   3  18
ATOM     18  C   UNL d   1     -58.091 -99.132 -44.746  0.00  0.00     0.002 A 
ATOM     19  C   UNL d   1     -58.844 -99.277 -45.016  0.00  0.00     0.000 A 
ATOM     20  C   UNL d   1     -59.027 -99.167 -45.798  0.00  0.00     0.000 A 
ATOM     21  C   UNL d   1     -58.458 -98.909 -46.331  0.00  0.00     0.000 A 
ATOM     22  C   UNL d   1     -57.694 -98.764 -46.055  0.00  0.00     0.000 A 
ATOM     23  C   UNL d   1     -57.514 -98.875 -45.269  0.00  0.00     0.000 A 
ENDBRANCH   3  18
BRANCH   4  24
ATOM     24  C   UNL d   1     -58.582 -99.121 -41.917  0.00  0.00     0.066 A 
ATOM     25  C   UNL d   1     -59.416 -99.117 -41.949  0.00  0.00     0.020 A 
ATOM     26  C   UNL d   1     -59.874 -98.997 -41.269  0.00  0.00     0.031 A 
ATOM     27  C   UNL d   1     -59.503 -98.876 -40.529  0.00  0.00     0.140 A 
ATOM     28  C   UNL d   1     -58.669 -98.876 -40.476  0.00  0.00     0.031 A 
ATOM     29  F   UNL d   1     -59.961 -98.755 -39.849  0.00  0.00    -0.204 F 
ATOM     30  C   UNL d   1     -58.211 -98.999 -41.171  0.00  0.00     0.020 A 
ENDBRANCH   4  24
TORSDOF 3
ENDMDL
