MODEL 1
REMARK VINA RESULT:      -4.0      0.000      0.000
REMARK  7 active torsions:
REMARK  status: ('A' for Active; 'I' for Inactive)
REMARK    1  A    between atoms: C_3  and  N_1 
REMARK       I    between atoms: C_2  and  N_8 
REMARK    2  A    between atoms: O_16  and  C_2 
REMARK    3  A    between atoms: C_7  and  C_5 
REMARK    4  A    between atoms: C_12  and  C_7 
REMARK    5  A    between atoms: N_8  and  C_14 
REMARK    6  A    between atoms: S_11  and  C_12 
REMARK    7  A    between atoms: C_15  and  S_11 
ROOT
ATOM      1  S   UNL d   1      58.282  -0.213  29.785  0.00  0.00    -0.083 SA
ENDROOT
BRANCH   1   2
ATOM      2  C   UNL d   1      58.118  -0.232  30.590  0.00  0.00     0.077 C 
BRANCH   2   3
ATOM      3  C   UNL d   1      57.486   0.204  30.893  0.00  0.00     0.202 C 
ATOM      4  O   UNL d   1      56.981   0.604  30.383  0.00  0.00    -0.286 OA
BRANCH   3   5
ATOM      5  C   UNL d   1      57.362   0.236  31.708  0.00  0.00     0.041 A 
ATOM      6  C   UNL d   1      56.714  -0.137  32.040  0.00  0.00     0.027 A 
ATOM      7  C   UNL d   1      56.591  -0.104  32.855  0.00  0.00     0.127 A 
ATOM      8  C   UNL d   1      57.125   0.307  33.337  0.00  0.00     0.024 A 
ATOM      9  C   UNL d   1      57.777   0.682  32.999  0.00  0.00     0.002 A 
ATOM     10  C   UNL d   1      57.897   0.648  32.190  0.00  0.00     0.003 A 
BRANCH   7  11
ATOM     11  N   UNL d   1      55.938  -0.480  33.192  0.00  0.00    -0.114 N 
ATOM     12  O   UNL d   1      55.557  -0.242  33.887  0.00  0.00    -0.532 OA
ATOM     13  O   UNL d   1      55.584  -1.142  32.876  0.00  0.00    -0.532 OA
ENDBRANCH   7  11
ENDBRANCH   3   5
ENDBRANCH   2   3
ENDBRANCH   1   2
BRANCH   1  14
ATOM     14  C   UNL d   1      58.819  -0.752  29.459  0.00  0.00     0.030 A 
ATOM     15  C   UNL d   1      58.564  -1.370  28.956  0.00  0.00     0.008 A 
ATOM     16  C   UNL d   1      59.100  -1.907  28.631  0.00  0.00     0.020 A 
ATOM     17  C   UNL d   1      59.904  -1.838  28.802  0.00  0.00     0.087 A 
ATOM     18  C   UNL d   1      60.172  -1.238  29.294  0.00  0.00     0.020 A 
ATOM     19  C   UNL d   1      59.636  -0.702  29.619  0.00  0.00     0.008 A 
BRANCH  17  20
ATOM     20  N   UNL d   1      60.442  -2.378  28.476  0.00  0.00    -0.186 NA
ATOM     21  C   UNL d   1      60.598  -3.087  28.860  0.00  0.00     0.388 C 
ATOM     22  O   UNL d   1      60.219  -3.264  29.572  0.00  0.00    -0.236 OA
BRANCH  21  23
ATOM     23  O   UNL d   1      61.133  -3.623  28.535  0.00  0.00    -0.281 OA
ATOM     24  C   UNL d   1      61.107  -4.416  28.762  0.00  0.00     0.186 C 
ENDBRANCH  21  23
ENDBRANCH  17  20
ENDBRANCH   1  14
TORSDOF 7
ENDMDL
MODEL 2
REMARK VINA RESULT:      -3.4      1.065      5.304
REMARK  7 active torsions:
REMARK  status: ('A' for Active; 'I' for Inactive)
REMARK    1  A    between atoms: C_3  and  N_1 
REMARK       I    between atoms: C_2  and  N_8 
REMARK    2  A    between atoms: O_16  and  C_2 
REMARK    3  A    between atoms: C_7  and  C_5 
REMARK    4  A    between atoms: C_12  and  C_7 
REMARK    5  A    between atoms: N_8  and  C_14 
REMARK    6  A    between atoms: S_11  and  C_12 
REMARK    7  A    between atoms: C_15  and  S_11 
ROOT
ATOM      1  S   UNL d   1      58.124   0.428  30.416  0.00  0.00    -0.083 SA
ENDROOT
BRANCH   1   2
ATOM      2  C   UNL d   1      58.410  -0.302  30.170  0.00  0.00     0.077 C 
BRANCH   2   3
ATOM      3  C   UNL d   1      58.578  -0.432  29.373  0.00  0.00     0.202 C 
ATOM      4  O   UNL d   1      58.238   0.046  28.798  0.00  0.00    -0.286 OA
BRANCH   3   5
ATOM      5  C   UNL d   1      59.087  -1.044  29.154  0.00  0.00     0.041 A 
ATOM      6  C   UNL d   1      58.814  -1.815  29.130  0.00  0.00     0.027 A 
ATOM      7  C   UNL d   1      59.324  -2.426  28.912  0.00  0.00     0.127 A 
ATOM      8  C   UNL d   1      60.111  -2.257  28.718  0.00  0.00     0.024 A 
ATOM      9  C   UNL d   1      60.382  -1.479  28.743  0.00  0.00     0.002 A 
ATOM     10  C   UNL d   1      59.875  -0.875  28.960  0.00  0.00     0.003 A 
BRANCH   7  11
ATOM     11  N   UNL d   1      59.052  -3.205  28.887  0.00  0.00    -0.114 N 
ATOM     12  O   UNL d   1      59.532  -3.878  28.873  0.00  0.00    -0.532 OA
ATOM     13  O   UNL d   1      58.263  -3.408  28.873  0.00  0.00    -0.532 OA
ENDBRANCH   7  11
ENDBRANCH   3   5
ENDBRANCH   2   3
ENDBRANCH   1   2
BRANCH   1  14
ATOM     14  C   UNL d   1      57.710   0.491  31.131  0.00  0.00     0.030 A 
ATOM     15  C   UNL d   1      56.879   0.590  31.145  0.00  0.00     0.008 A 
ATOM     16  C   UNL d   1      56.467   0.653  31.857  0.00  0.00     0.020 A 
ATOM     17  C   UNL d   1      56.877   0.618  32.572  0.00  0.00     0.087 A 
ATOM     18  C   UNL d   1      57.692   0.521  32.577  0.00  0.00     0.020 A 
ATOM     19  C   UNL d   1      58.104   0.458  31.865  0.00  0.00     0.008 A 
BRANCH  17  20
ATOM     20  N   UNL d   1      56.464   0.681  33.288  0.00  0.00    -0.186 NA
ATOM     21  C   UNL d   1      55.977   0.069  33.537  0.00  0.00     0.388 C 
ATOM     22  O   UNL d   1      55.899  -0.612  33.076  0.00  0.00    -0.236 OA
BRANCH  21  23
ATOM     23  O   UNL d   1      55.565   0.132  34.249  0.00  0.00    -0.281 OA
ATOM     24  C   UNL d   1      54.766   0.337  34.244  0.00  0.00     0.186 C 
ENDBRANCH  21  23
ENDBRANCH  17  20
ENDBRANCH   1  14
TORSDOF 7
ENDMDL
MODEL 3
REMARK VINA RESULT:      -1.5      8.353      9.713
REMARK  7 active torsions:
REMARK  status: ('A' for Active; 'I' for Inactive)
REMARK    1  A    between atoms: C_3  and  N_1 
REMARK       I    between atoms: C_2  and  N_8 
REMARK    2  A    between atoms: O_16  and  C_2 
REMARK    3  A    between atoms: C_7  and  C_5 
REMARK    4  A    between atoms: C_12  and  C_7 
REMARK    5  A    between atoms: N_8  and  C_14 
REMARK    6  A    between atoms: S_11  and  C_12 
REMARK    7  A    between atoms: C_15  and  S_11 
ROOT
ATOM      1  S   UNL d   1      60.518  -9.788  32.132  0.00  0.00    -0.083 SA
ENDROOT
BRANCH   1   2
ATOM      2  C   UNL d   1      59.972  -9.604  31.546  0.00  0.00     0.077 C 
BRANCH   2   3
ATOM      3  C   UNL d   1      60.180  -9.671  30.751  0.00  0.00     0.202 C 
ATOM      4  O   UNL d   1      60.972  -9.691  30.534  0.00  0.00    -0.286 OA
BRANCH   3   5
ATOM      5  C   UNL d   1      59.592  -9.719  30.174  0.00  0.00     0.041 A 
ATOM      6  C   UNL d   1      58.803  -9.737  30.395  0.00  0.00     0.027 A 
ATOM      7  C   UNL d   1      58.215  -9.784  29.818  0.00  0.00     0.127 A 
ATOM      8  C   UNL d   1      58.424  -9.814  29.016  0.00  0.00     0.024 A 
ATOM      9  C   UNL d   1      59.219  -9.796  28.799  0.00  0.00     0.002 A 
ATOM     10  C   UNL d   1      59.801  -9.749  29.373  0.00  0.00     0.003 A 
BRANCH   7  11
ATOM     11  N   UNL d   1      57.419  -9.802  30.036  0.00  0.00    -0.114 N 
ATOM     12  O   UNL d   1      57.138  -9.813  30.813  0.00  0.00    -0.532 OA
ATOM     13  O   UNL d   1      56.805  -9.813  29.501  0.00  0.00    -0.532 OA
ENDBRANCH   7  11
ENDBRANCH   3   5
ENDBRANCH   2   3
ENDBRANCH   1   2
BRANCH   1  14
ATOM     14  C   UNL d   1      60.393  -9.534  32.910  0.00  0.00     0.030 A 
ATOM     15  C   UNL d   1      59.745  -9.816  33.360  0.00  0.00     0.008 A 
ATOM     16  C   UNL d   1      59.620  -9.563  34.136  0.00  0.00     0.020 A 
ATOM     17  C   UNL d   1      60.140  -9.023  34.479  0.00  0.00     0.087 A 
ATOM     18  C   UNL d   1      60.780  -8.736  34.053  0.00  0.00     0.020 A 
ATOM     19  C   UNL d   1      60.905  -8.989  33.277  0.00  0.00     0.008 A 
BRANCH  17  20
ATOM     20  N   UNL d   1      60.015  -8.769  35.258  0.00  0.00    -0.186 NA
ATOM     21  C   UNL d   1      59.585  -8.084  35.403  0.00  0.00     0.388 C 
ATOM     22  O   UNL d   1      59.276  -7.648  34.774  0.00  0.00    -0.236 OA
BRANCH  21  23
ATOM     23  O   UNL d   1      59.460  -7.831  36.179  0.00  0.00    -0.281 OA
ATOM     24  C   UNL d   1      59.282  -7.040  36.328  0.00  0.00     0.186 C 
ENDBRANCH  21  23
ENDBRANCH  17  20
ENDBRANCH   1  14
TORSDOF 7
ENDMDL
