MODEL 1
REMARK VINA RESULT:      -4.7      0.000      0.000
REMARK  5 active torsions:
REMARK  status: ('A' for Active; 'I' for Inactive)
REMARK    1  A    between atoms: C_2  and  S_1 
REMARK    2  A    between atoms: N_3  and  S_1 
REMARK    3  A    between atoms: C_18  and  N_7 
REMARK    4  A    between atoms: O_27  and  C_9 
REMARK    5  A    between atoms: C_17  and  C_18 
ROOT
ATOM      1  N   UNL d   1     -41.709-122.632 -50.614  0.00  0.00    -0.226 N 
ATOM      2  N   UNL d   1     -41.317-122.067 -52.119  0.00  0.00    -0.300 N 
ATOM      3  C   UNL d   1     -41.335-123.132 -51.163  0.00  0.00     0.111 A 
ATOM      4  C   UNL d   1     -41.884-121.851 -50.825  0.00  0.00     0.111 A 
ATOM      5  C   UNL d   1     -41.141-122.842 -51.915  0.00  0.00     0.100 A 
ATOM      6  C   UNL d   1     -41.691-121.568 -51.570  0.00  0.00     0.100 A 
ENDROOT
BRANCH   1   7
ATOM      7  S   UNL d   1     -41.902-122.919 -49.866  0.00  0.00     0.273 S 
ATOM      8  O   UNL d   1     -42.403-122.264 -49.751  0.00  0.00    -0.200 OA
ATOM      9  O   UNL d   1     -41.408-123.566 -49.980  0.00  0.00    -0.200 OA
BRANCH   7  10
ATOM     10  C   UNL d   1     -42.097-123.202 -49.121  0.00  0.00     0.128 A 
ATOM     11  C   UNL d   1     -41.548-123.162 -48.502  0.00  0.00     0.044 A 
ATOM     12  C   UNL d   1     -41.741-123.446 -47.752  0.00  0.00     0.141 A 
ATOM     13  F   UNL d   1     -41.195-123.405 -47.146  0.00  0.00    -0.204 F 
ATOM     14  C   UNL d   1     -42.492-123.774 -47.616  0.00  0.00     0.032 A 
ATOM     15  C   UNL d   1     -43.039-123.814 -48.231  0.00  0.00     0.027 A 
ATOM     16  C   UNL d   1     -42.848-123.530 -48.984  0.00  0.00     0.106 A 
BRANCH  16  17
ATOM     17  O   UNL d   1     -43.401-123.574 -49.594  0.00  0.00    -0.327 OA
ATOM     18  C   UNL d   1     -44.169-123.812 -49.436  0.00  0.00     0.181 C 
ENDBRANCH  16  17
ENDBRANCH   7  10
ENDBRANCH   1   7
BRANCH   2  19
ATOM     19  C   UNL d   1     -41.123-121.780 -52.868  0.00  0.00     0.080 C 
BRANCH  19  20
ATOM     20  C   UNL d   1     -41.498-122.080 -53.542  0.00  0.00     0.020 A 
ATOM     21  C   UNL d   1     -42.156-121.701 -53.853  0.00  0.00     0.028 A 
ATOM     22  C   UNL d   1     -42.529-122.001 -54.526  0.00  0.00     0.119 A 
ATOM     23  O   UNL d   1     -43.185-121.749 -54.956  0.00  0.00    -0.300 OA
ATOM     24  C   UNL d   1     -42.236-122.689 -54.888  0.00  0.00     0.119 A 
ATOM     25  C   UNL d   1     -43.299-122.276 -55.582  0.00  0.00     0.304 A 
ATOM     26  O   UNL d   1     -42.715-122.851 -55.538  0.00  0.00    -0.300 OA
ATOM     27  C   UNL d   1     -41.574-123.067 -54.574  0.00  0.00     0.026 A 
ATOM     28  C   UNL d   1     -41.204-122.767 -53.905  0.00  0.00     0.004 A 
ENDBRANCH  19  20
ENDBRANCH   2  19
TORSDOF 5
ENDMDL
