MODEL 1
REMARK VINA RESULT:      32.6      0.000      0.000
REMARK  7 active torsions:
REMARK  status: ('A' for Active; 'I' for Inactive)
REMARK    1  A    between atoms: C_3  and  C_1 
REMARK    2  A    between atoms: N_2  and  C_9 
REMARK    3  A    between atoms: C_14  and  N_2 
REMARK    4  A    between atoms: O_6  and  C_8 
REMARK    5  A    between atoms: C_10  and  O_6 
REMARK    6  A    between atoms: C_7  and  C_10 
REMARK    7  A    between atoms: C_9  and  C_7 
ROOT
ATOM      1  C   UNL d   1     -51.360  25.201  33.351  0.00  0.00     0.000 A 
ATOM      2  C   UNL d   1     -50.555  25.029  33.399  0.00  0.00     0.002 A 
ATOM      3  C   UNL d   1     -51.611  25.991  33.307  0.00  0.00     0.002 A 
ATOM      4  C   UNL d   1     -50.250  26.420  33.359  0.00  0.00     0.100 A 
ATOM      5  C   UNL d   1     -51.058  26.601  33.311  0.00  0.00     0.025 A 
ATOM      6  C   UNL d   1     -50.002  25.634  33.403  0.00  0.00     0.025 A 
ENDROOT
BRANCH   4   7
ATOM      7  O   UNL d   1     -49.697  27.030  33.363  0.00  0.00    -0.302 OA
BRANCH   7   8
ATOM      8  C   UNL d   1     -49.683  27.582  33.978  0.00  0.00     0.166 C 
BRANCH   8   9
ATOM      9  C   UNL d   1     -48.971  27.806  34.325  0.00  0.00     0.239 C 
ATOM     10  O   UNL d   1     -48.321  27.300  34.279  0.00  0.00    -0.283 OA
BRANCH   9  11
ATOM     11  C   UNL d   1     -48.908  28.530  34.715  0.00  0.00     0.143 C 
BRANCH  11  12
ATOM     12  N   UNL d   1     -48.377  28.613  35.344  0.00  0.00    -0.241 NA
BRANCH  12  13
ATOM     13  C   UNL d   1     -47.748  29.144  35.268  0.00  0.00     0.082 C 
ATOM     14  C   UNL d   1     -47.896  29.911  35.005  0.00  0.00     0.021 C 
ATOM     15  C   UNL d   1     -46.977  28.913  35.451  0.00  0.00     0.021 C 
ENDBRANCH  12  13
ENDBRANCH  11  12
ENDBRANCH   9  11
ENDBRANCH   8   9
ENDBRANCH   7   8
ENDBRANCH   4   7
BRANCH   1  16
ATOM     16  C   UNL d   1     -51.911  24.599  33.347  0.00  0.00     0.000 A 
ATOM     17  C   UNL d   1     -51.660  23.808  33.312  0.00  0.00     0.000 A 
ATOM     18  C   UNL d   1     -52.221  23.200  33.308  0.00  0.00     0.000 A 
ATOM     19  C   UNL d   1     -53.026  23.372  33.338  0.00  0.00     0.000 A 
ATOM     20  C   UNL d   1     -53.280  24.155  33.373  0.00  0.00     0.000 A 
ATOM     21  C   UNL d   1     -52.725  24.773  33.377  0.00  0.00     0.000 A 
ENDBRANCH   1  16
TORSDOF 7
ENDMDL
