MODEL 1
REMARK VINA RESULT:      -5.7      0.000      0.000
REMARK  1 active torsions:
REMARK  status: ('A' for Active; 'I' for Inactive)
REMARK    1  A    between atoms: C_7  and  C_1 
ROOT
ATOM      1  C   UNL d   1     -41.598-122.517 -54.015  0.00  0.00     0.102 A 
ATOM      2  C   UNL d   1     -41.442-123.327 -53.958  0.00  0.00     0.303 A 
ATOM      3  C   UNL d   1     -41.594-122.053 -53.329  0.00  0.00     0.011 A 
ATOM      4  O   UNL d   1     -41.282-123.674 -53.214  0.00  0.00    -0.273 OA
ATOM      5  C   UNL d   1     -41.438-122.386 -52.600  0.00  0.00     0.023 A 
ATOM      6  C   UNL d   1     -41.282-123.196 -52.542  0.00  0.00     0.103 A 
ATOM      7  O   UNL d   1     -41.445-123.808 -54.654  0.00  0.00    -0.259 OA
ATOM      8  C   UNL d   1     -41.435-121.923 -51.926  0.00  0.00     0.002 A 
ATOM      9  C   UNL d   1     -41.123-123.544 -51.811  0.00  0.00     0.025 A 
ATOM     10  C   UNL d   1     -41.279-122.256 -51.201  0.00  0.00     0.000 A 
ATOM     11  C   UNL d   1     -41.123-123.067 -51.144  0.00  0.00     0.002 A 
ENDROOT
BRANCH   1  12
ATOM     12  C   UNL d   1     -41.757-122.187 -54.769  0.00  0.00     0.201 C 
ATOM     13  O   UNL d   1     -41.123-121.964 -55.250  0.00  0.00    -0.286 OA
ATOM     14  C   UNL d   1     -42.524-122.082 -55.033  0.00  0.00     0.045 C 
ENDBRANCH   1  12
TORSDOF 1
ENDMDL
MODEL 2
REMARK VINA RESULT:      -4.9      1.060      2.818
REMARK  1 active torsions:
REMARK  status: ('A' for Active; 'I' for Inactive)
REMARK    1  A    between atoms: C_7  and  C_1 
ROOT
ATOM      1  C   UNL d   1     -41.606-122.380 -52.090  0.00  0.00     0.102 A 
ATOM      2  C   UNL d   1     -41.313-123.152 -52.125  0.00  0.00     0.303 A 
ATOM      3  C   UNL d   1     -41.789-121.982 -52.793  0.00  0.00     0.011 A 
ATOM      4  O   UNL d   1     -41.203-123.528 -52.864  0.00  0.00    -0.273 OA
ATOM      5  C   UNL d   1     -41.685-122.344 -53.518  0.00  0.00     0.023 A 
ATOM      6  C   UNL d   1     -41.392-123.117 -53.553  0.00  0.00     0.103 A 
ATOM      7  O   UNL d   1     -41.123-123.564 -51.411  0.00  0.00    -0.259 OA
ATOM      8  C   UNL d   1     -41.868-121.947 -54.208  0.00  0.00     0.002 A 
ATOM      9  C   UNL d   1     -41.281-123.493 -54.279  0.00  0.00     0.025 A 
ATOM     10  C   UNL d   1     -41.763-122.309 -54.928  0.00  0.00     0.000 A 
ATOM     11  C   UNL d   1     -41.470-123.082 -54.964  0.00  0.00     0.002 A 
ENDROOT
BRANCH   1  12
ATOM     12  C   UNL d   1     -41.709-122.018 -51.341  0.00  0.00     0.201 C 
ATOM     13  O   UNL d   1     -42.417-122.140 -50.932  0.00  0.00    -0.286 OA
ATOM     14  C   UNL d   1     -41.124-121.551 -51.010  0.00  0.00     0.045 C 
ENDBRANCH   1  12
TORSDOF 1
ENDMDL
MODEL 3
REMARK VINA RESULT:      -4.6      0.903      1.586
REMARK  1 active torsions:
REMARK  status: ('A' for Active; 'I' for Inactive)
REMARK    1  A    between atoms: C_7  and  C_1 
ROOT
ATOM      1  C   UNL d   1     -41.513-122.792 -53.351  0.00  0.00     0.102 A 
ATOM      2  C   UNL d   1     -41.530-122.000 -53.113  0.00  0.00     0.303 A 
ATOM      3  C   UNL d   1     -41.405-123.385 -52.782  0.00  0.00     0.011 A 
ATOM      4  O   UNL d   1     -41.440-121.800 -52.306  0.00  0.00    -0.273 OA
ATOM      5  C   UNL d   1     -41.317-123.196 -51.992  0.00  0.00     0.023 A 
ATOM      6  C   UNL d   1     -41.334-122.404 -51.755  0.00  0.00     0.103 A 
ATOM      7  O   UNL d   1     -41.640-121.390 -53.688  0.00  0.00    -0.259 OA
ATOM      8  C   UNL d   1     -41.211-123.785 -51.436  0.00  0.00     0.002 A 
ATOM      9  C   UNL d   1     -41.245-122.200 -50.960  0.00  0.00     0.025 A 
ATOM     10  C   UNL d   1     -41.123-123.595 -50.651  0.00  0.00     0.000 A 
ATOM     11  C   UNL d   1     -41.140-122.803 -50.413  0.00  0.00     0.002 A 
ENDROOT
BRANCH   1  12
ATOM     12  C   UNL d   1     -41.605-122.974 -54.164  0.00  0.00     0.201 C 
ATOM     13  O   UNL d   1     -42.186-123.518 -54.390  0.00  0.00    -0.286 OA
ATOM     14  C   UNL d   1     -41.132-122.625 -54.733  0.00  0.00     0.045 C 
ENDBRANCH   1  12
TORSDOF 1
ENDMDL
MODEL 4
REMARK VINA RESULT:      -4.5      2.534      3.811
REMARK  1 active torsions:
REMARK  status: ('A' for Active; 'I' for Inactive)
REMARK    1  A    between atoms: C_7  and  C_1 
ROOT
ATOM      1  C   UNL d   1     -41.780-122.713 -50.476  0.00  0.00     0.102 A 
ATOM      2  C   UNL d   1     -42.520-122.422 -50.250  0.00  0.00     0.303 A 
ATOM      3  C   UNL d   1     -41.323-123.131 -49.925  0.00  0.00     0.011 A 
ATOM      4  O   UNL d   1     -42.804-122.548 -49.474  0.00  0.00    -0.273 OA
ATOM      5  C   UNL d   1     -41.594-123.258 -49.165  0.00  0.00     0.023 A 
ATOM      6  C   UNL d   1     -42.335-122.966 -48.940  0.00  0.00     0.103 A 
ATOM      7  O   UNL d   1     -42.993-121.994 -50.806  0.00  0.00    -0.259 OA
ATOM      8  C   UNL d   1     -41.139-123.670 -48.627  0.00  0.00     0.002 A 
ATOM      9  C   UNL d   1     -42.621-123.088 -48.175  0.00  0.00     0.025 A 
ATOM     10  C   UNL d   1     -41.411-123.795 -47.872  0.00  0.00     0.000 A 
ATOM     11  C   UNL d   1     -42.152-123.504 -47.646  0.00  0.00     0.002 A 
ENDROOT
BRANCH   1  12
ATOM     12  C   UNL d   1     -41.511-122.577 -51.258  0.00  0.00     0.201 C 
ATOM     13  O   UNL d   1     -41.644-123.156 -51.833  0.00  0.00    -0.286 OA
ATOM     14  C   UNL d   1     -41.123-121.886 -51.459  0.00  0.00     0.045 C 
ENDBRANCH   1  12
TORSDOF 1
ENDMDL
MODEL 5
REMARK VINA RESULT:      -4.5      1.430      3.269
REMARK  1 active torsions:
REMARK  status: ('A' for Active; 'I' for Inactive)
REMARK    1  A    between atoms: C_7  and  C_1 
ROOT
ATOM      1  C   UNL d   1     -41.688-122.965 -51.352  0.00  0.00     0.102 A 
ATOM      2  C   UNL d   1     -41.817-122.173 -51.552  0.00  0.00     0.303 A 
ATOM      3  C   UNL d   1     -41.483-123.505 -51.945  0.00  0.00     0.011 A 
ATOM      4  O   UNL d   1     -41.739-121.920 -52.346  0.00  0.00    -0.273 OA
ATOM      5  C   UNL d   1     -41.405-123.265 -52.722  0.00  0.00     0.023 A 
ATOM      6  C   UNL d   1     -41.533-122.473 -52.922  0.00  0.00     0.103 A 
ATOM      7  O   UNL d   1     -42.027-121.615 -50.952  0.00  0.00    -0.259 OA
ATOM      8  C   UNL d   1     -41.202-123.803 -53.303  0.00  0.00     0.002 A 
ATOM      9  C   UNL d   1     -41.458-122.217 -53.703  0.00  0.00     0.025 A 
ATOM     10  C   UNL d   1     -41.125-123.561 -54.075  0.00  0.00     0.000 A 
ATOM     11  C   UNL d   1     -41.254-122.769 -54.275  0.00  0.00     0.002 A 
ENDROOT
BRANCH   1  12
ATOM     12  C   UNL d   1     -41.771-123.200 -50.552  0.00  0.00     0.201 C 
ATOM     13  O   UNL d   1     -42.523-123.390 -50.266  0.00  0.00    -0.286 OA
ATOM     14  C   UNL d   1     -41.123-123.244 -50.054  0.00  0.00     0.045 C 
ENDBRANCH   1  12
TORSDOF 1
ENDMDL
MODEL 6
REMARK VINA RESULT:      -3.3      2.819      4.657
REMARK  1 active torsions:
REMARK  status: ('A' for Active; 'I' for Inactive)
REMARK    1  A    between atoms: C_7  and  C_1 
ROOT
ATOM      1  C   UNL d   1     -42.164-123.327 -49.024  0.00  0.00     0.102 A 
ATOM      2  C   UNL d   1     -42.585-122.637 -49.200  0.00  0.00     0.303 A 
ATOM      3  C   UNL d   1     -41.693-123.676 -49.609  0.00  0.00     0.011 A 
ATOM      4  O   UNL d   1     -42.535-122.295 -49.961  0.00  0.00    -0.273 OA
ATOM      5  C   UNL d   1     -41.640-123.347 -50.355  0.00  0.00     0.023 A 
ATOM      6  C   UNL d   1     -42.060-122.657 -50.531  0.00  0.00     0.103 A 
ATOM      7  O   UNL d   1     -43.068-122.275 -48.607  0.00  0.00    -0.259 OA
ATOM      8  C   UNL d   1     -41.174-123.696 -50.928  0.00  0.00     0.002 A 
ATOM      9  C   UNL d   1     -42.015-122.315 -51.280  0.00  0.00     0.025 A 
ATOM     10  C   UNL d   1     -41.123-123.367 -51.670  0.00  0.00     0.000 A 
ATOM     11  C   UNL d   1     -41.543-122.677 -51.846  0.00  0.00     0.002 A 
ENDROOT
BRANCH   1  12
ATOM     12  C   UNL d   1     -42.226-123.656 -48.255  0.00  0.00     0.201 C 
ATOM     13  O   UNL d   1     -42.977-123.817 -47.948  0.00  0.00    -0.286 OA
ATOM     14  C   UNL d   1     -41.561-123.817 -47.808  0.00  0.00     0.045 C 
ENDBRANCH   1  12
TORSDOF 1
ENDMDL
