MODEL 1
REMARK VINA RESULT:      46.6      0.000      0.000
REMARK  1 active torsions:
REMARK  status: ('A' for Active; 'I' for Inactive)
REMARK    1  A    between atoms: N_2  and  C_1 
ROOT
ATOM      1  C   UNL d   1     -54.717-101.792 -41.075  0.00  0.00     0.110 A 
ATOM      2  C   UNL d   1     -54.715-101.242 -40.441  0.00  0.00     0.212 A 
ATOM      3  C   UNL d   1     -54.721-102.605 -40.915  0.00  0.00     0.056 A 
ATOM      4  C   UNL d   1     -54.715-101.514 -39.667  0.00  0.00     0.046 A 
ATOM      5  S   UNL d   1     -54.721-102.870 -40.120  0.00  0.00    -0.085 SA
ATOM      6  C   UNL d   1     -54.718-102.326 -39.500  0.00  0.00     0.033 A 
ATOM      7  O   UNL d   1     -54.711-100.436 -40.601  0.00  0.00    -0.285 OA
ATOM      8  C   UNL d   1     -54.712-100.977 -39.042  0.00  0.00     0.004 A 
ATOM      9  C   UNL d   1     -54.719-102.594 -38.723  0.00  0.00     0.007 A 
ATOM     10  C   UNL d   1     -54.713-101.238 -38.264  0.00  0.00     0.000 A 
ATOM     11  C   UNL d   1     -54.716-102.051 -38.104  0.00  0.00     0.001 A 
ENDROOT
BRANCH   1  12
ATOM     12  N   UNL d   1     -54.717-101.526 -41.858  0.00  0.00    -0.301 N 
ATOM     13  C   UNL d   1     -54.720-102.061 -42.472  0.00  0.00     0.080 A 
ATOM     14  C   UNL d   1     -54.720-101.798 -43.259  0.00  0.00     0.018 A 
ATOM     15  C   UNL d   1     -54.723-102.338 -43.876  0.00  0.00     0.002 A 
ATOM     16  C   UNL d   1     -54.716-100.992 -43.418  0.00  0.00     0.003 A 
ATOM     17  C   UNL d   1     -54.723-102.074 -44.659  0.00  0.00     0.000 A 
ATOM     18  C   UNL d   1     -54.719-101.265 -44.819  0.00  0.00     0.000 A 
ATOM     19  C   UNL d   1     -54.716-100.721 -44.195  0.00  0.00     0.000 A 
ATOM     20  C   UNL d   1     -54.713-100.437 -42.793  0.00  0.00     0.019 A 
ATOM     21  C   UNL d   1     -54.713-100.712 -42.019  0.00  0.00     0.080 A 
ENDBRANCH   1  12
TORSDOF 1
ENDMDL
