MODEL 1
REMARK VINA RESULT:      41.9      0.000      0.000
REMARK  4 active torsions:
REMARK  status: ('A' for Active; 'I' for Inactive)
REMARK    1  A    between atoms: C_10  and  N_3 
REMARK    2  A    between atoms: C_12  and  N_7 
REMARK    3  A    between atoms: C_19  and  C_12 
REMARK    4  A    between atoms: C_20  and  C_19 
ROOT
ATOM      1  C   UNL d   1     -54.732-101.427 -41.927  0.00  0.00     0.172 A 
ATOM      2  C   UNL d   1     -54.742-101.700 -42.706  0.00  0.00     0.113 A 
ATOM      3  N   UNL d   1     -54.738-102.092 -41.431  0.00  0.00    -0.212 N 
ATOM      4  N   UNL d   1     -54.720-100.621 -41.772  0.00  0.00    -0.206 NA
ATOM      5  C   UNL d   1     -54.740-101.167 -43.329  0.00  0.00     0.270 A 
ATOM      6  N   UNL d   1     -54.750-102.758 -41.907  0.00  0.00    -0.162 NA
ATOM      7  N   UNL d   1     -54.728-100.353 -43.178  0.00  0.00    -0.255 N 
ATOM      8  C   UNL d   1     -54.753-102.529 -42.677  0.00  0.00     0.129 A 
ATOM      9  C   UNL d   1     -54.718-100.080 -42.399  0.00  0.00     0.187 A 
ATOM     10  O   UNL d   1     -54.750-101.440 -44.108  0.00  0.00    -0.266 OA
ENDROOT
BRANCH   3  11
ATOM     11  C   UNL d   1     -54.731-102.122 -40.618  0.00  0.00     0.085 A 
ATOM     12  C   UNL d   1     -54.727-102.852 -40.231  0.00  0.00     0.021 A 
ATOM     13  C   UNL d   1     -54.721-102.879 -39.409  0.00  0.00     0.031 A 
ATOM     14  C   UNL d   1     -54.719-102.199 -38.965  0.00  0.00     0.140 A 
ATOM     15  C   UNL d   1     -54.723-101.454 -39.357  0.00  0.00     0.031 A 
ATOM     16  F   UNL d   1     -54.713-102.246 -38.127  0.00  0.00    -0.204 F 
ATOM     17  C   UNL d   1     -54.729-101.417 -40.174  0.00  0.00     0.021 A 
ENDBRANCH   3  11
BRANCH   7  18
ATOM     18  C   UNL d   1     -54.725 -99.804 -43.807  0.00  0.00     0.085 C 
BRANCH  18  19
ATOM     19  C   UNL d   1     -55.158 -99.962 -44.499  0.00  0.00     0.019 C 
BRANCH  19  20
ATOM     20  C   UNL d   1     -55.556 -99.340 -44.881  0.00  0.00     0.002 C 
ATOM     21  C   UNL d   1     -56.226 -99.016 -44.526  0.00  0.00     0.000 C 
ATOM     22  C   UNL d   1     -55.285 -99.055 -45.597  0.00  0.00     0.000 C 
ENDBRANCH  19  20
ENDBRANCH  18  19
ENDBRANCH   7  18
TORSDOF 4
ENDMDL
