MODEL 1
REMARK VINA RESULT:      84.6      0.000      0.000
REMARK  4 active torsions:
REMARK  status: ('A' for Active; 'I' for Inactive)
REMARK    1  A    between atoms: N_10  and  C_5 
REMARK    2  A    between atoms: C_12  and  N_6 
REMARK    3  A    between atoms: C_19  and  N_11 
REMARK    4  A    between atoms: C_20  and  C_12 
ROOT
ATOM      1  C   UNL d   1      45.873 -18.945  42.597  0.00  0.00     0.191 A 
ATOM      2  C   UNL d   1      46.143 -18.206  42.868  0.00  0.00     0.173 A 
ATOM      3  N   UNL d   1      45.678 -18.849  41.799  0.00  0.00    -0.042 NA
ATOM      4  N   UNL d   1      45.846 -19.610  43.129  0.00  0.00    -0.240 N 
ATOM      5  C   UNL d   1      45.828 -18.038  41.571  0.00  0.00     0.722 A 
ATOM      6  N   UNL d   1      46.110 -17.684  42.252  0.00  0.00    -0.133 N 
ATOM      7  N   UNL d   1      46.343 -18.797  44.151  0.00  0.00    -0.223 N 
ATOM      8  C   UNL d   1      46.073 -19.553  43.893  0.00  0.00     0.343 A 
ATOM      9  C   UNL d   1      46.375 -18.149  43.652  0.00  0.00     0.288 A 
ATOM     10  O   UNL d   1      46.046 -20.205  44.415  0.00  0.00    -0.245 OA
ATOM     11  O   UNL d   1      46.647 -17.420  43.939  0.00  0.00    -0.265 OA
ATOM     12  C   UNL d   1      45.580 -20.329  42.854  0.00  0.00     0.105 C 
ATOM     13  C   UNL d   1      46.594 -18.685  44.950  0.00  0.00     0.107 C 
ENDROOT
BRANCH   5  14
ATOM     14  N   UNL d   1      45.722 -17.654  40.825  0.00  0.00    -0.136 N 
ATOM     15  C   UNL d   1      44.951 -17.594  40.504  0.00  0.00     0.117 A 
ATOM     16  C   UNL d   1      44.845 -17.213  39.764  0.00  0.00     0.100 A 
ATOM     17  N   UNL d   1      45.506 -16.895  39.350  0.00  0.00    -0.301 N 
ATOM     18  C   UNL d   1      46.272 -16.964  39.686  0.00  0.00     0.100 A 
ATOM     19  C   UNL d   1      46.387 -17.342  40.422  0.00  0.00     0.117 A 
BRANCH  17  20
ATOM     20  C   UNL d   1      45.323 -16.534  38.625  0.00  0.00     0.064 A 
ATOM     21  C   UNL d   1      44.568 -16.625  38.293  0.00  0.00     0.018 A 
ATOM     22  C   UNL d   1      44.395 -16.263  37.572  0.00  0.00     0.002 A 
ATOM     23  C   UNL d   1      44.971 -15.809  37.182  0.00  0.00     0.000 A 
ATOM     24  C   UNL d   1      45.730 -15.717  37.516  0.00  0.00     0.002 A 
ATOM     25  C   UNL d   1      45.904 -16.080  38.237  0.00  0.00     0.018 A 
ENDBRANCH  17  20
ENDBRANCH   5  14
BRANCH   6  26
ATOM     26  C   UNL d   1      46.369 -16.962  42.503  0.00  0.00     0.098 C 
BRANCH  26  27
ATOM     27  C   UNL d   1      45.894 -16.505  42.960  0.00  0.00     0.018 A 
ATOM     28  C   UNL d   1      46.167 -15.824  43.245  0.00  0.00     0.002 A 
ATOM     29  C   UNL d   1      45.697 -15.363  43.702  0.00  0.00     0.000 A 
ATOM     30  C   UNL d   1      45.786 -14.650  44.080  0.00  0.00     0.000 C 
ATOM     31  C   UNL d   1      44.945 -15.591  43.872  0.00  0.00     0.000 A 
ATOM     32  C   UNL d   1      44.673 -16.296  43.572  0.00  0.00     0.000 A 
ATOM     33  C   UNL d   1      45.141 -16.746  43.123  0.00  0.00     0.002 A 
ENDBRANCH  26  27
ENDBRANCH   6  26
TORSDOF 4
ENDMDL
