MODEL 1
REMARK VINA RESULT:      -8.4      0.000      0.000
REMARK  4 active torsions:
REMARK  status: ('A' for Active; 'I' for Inactive)
REMARK    1  A    between atoms: C_14  and  N_1 
REMARK    2  A    between atoms: S_12  and  C_2 
REMARK    3  A    between atoms: C_9  and  C_17 
REMARK    4  A    between atoms: C_17  and  S_12 
ROOT
ATOM      1  S   UNL d   1      52.992  33.190  53.703  0.00  0.00    -0.045 SA
ENDROOT
BRANCH   1   2
ATOM      2  C   UNL d   1      53.038  33.977  53.930  0.00  0.00     0.219 A 
ATOM      3  N   UNL d   1      52.530  34.568  53.697  0.00  0.00    -0.186 N 
ATOM      4  N   UNL d   1      52.772  35.262  54.047  0.00  0.00    -0.038 NA
ATOM      5  N   UNL d   1      53.435  35.102  54.500  0.00  0.00    -0.022 NA
ATOM      6  N   UNL d   1      53.600  34.295  54.425  0.00  0.00    -0.101 NA
BRANCH   3   7
ATOM      7  C   UNL d   1      51.883  34.482  53.195  0.00  0.00     0.087 A 
ATOM      8  C   UNL d   1      51.989  34.499  52.380  0.00  0.00     0.019 A 
ATOM      9  C   UNL d   1      51.346  34.413  51.881  0.00  0.00     0.002 A 
ATOM     10  C   UNL d   1      50.590  34.308  52.193  0.00  0.00     0.000 A 
ATOM     11  C   UNL d   1      50.485  34.290  53.009  0.00  0.00     0.002 A 
ATOM     12  C   UNL d   1      51.132  34.377  53.510  0.00  0.00     0.019 A 
ENDBRANCH   3   7
ENDBRANCH   1   2
BRANCH   1  13
ATOM     13  C   UNL d   1      53.528  32.666  53.988  0.00  0.00     0.059 C 
BRANCH  13  14
ATOM     14  C   UNL d   1      53.420  31.871  53.852  0.00  0.00     0.107 A 
ATOM     15  N   UNL d   1      53.259  31.530  53.105  0.00  0.00    -0.226 NA
ATOM     16  C   UNL d   1      53.190  30.685  53.230  0.00  0.00     0.148 A 
ATOM     17  C   UNL d   1      53.033  30.057  52.694  0.00  0.00     0.037 A 
ATOM     18  N   UNL d   1      53.309  30.529  54.045  0.00  0.00    -0.289 N 
ATOM     19  C   UNL d   1      52.999  29.275  52.988  0.00  0.00     0.005 A 
ATOM     20  C   UNL d   1      53.118  29.119  53.803  0.00  0.00     0.018 A 
ATOM     21  C   UNL d   1      53.273  29.744  54.329  0.00  0.00     0.066 A 
ATOM     22  C   UNL d   1      53.391  29.589  55.135  0.00  0.00     0.019 C 
ATOM     23  C   UNL d   1      53.454  31.275  54.433  0.00  0.00     0.101 A 
ENDBRANCH  13  14
ENDBRANCH   1  13
TORSDOF 4
ENDMDL
MODEL 2
REMARK VINA RESULT:      -7.8      1.324      4.172
REMARK  4 active torsions:
REMARK  status: ('A' for Active; 'I' for Inactive)
REMARK    1  A    between atoms: C_14  and  N_1 
REMARK    2  A    between atoms: S_12  and  C_2 
REMARK    3  A    between atoms: C_9  and  C_17 
REMARK    4  A    between atoms: C_17  and  S_12 
ROOT
ATOM      1  S   UNL d   1      52.896  33.892  53.885  0.00  0.00    -0.045 SA
ENDROOT
BRANCH   1   2
ATOM      2  C   UNL d   1      53.551  33.919  54.379  0.00  0.00     0.219 A 
ATOM      3  N   UNL d   1      54.051  33.297  54.537  0.00  0.00    -0.186 N 
ATOM      4  N   UNL d   1      54.625  33.559  55.051  0.00  0.00    -0.038 NA
ATOM      5  N   UNL d   1      54.482  34.348  55.214  0.00  0.00    -0.022 NA
ATOM      6  N   UNL d   1      53.807  34.572  54.790  0.00  0.00    -0.101 NA
BRANCH   3   7
ATOM      7  C   UNL d   1      53.988  32.535  54.232  0.00  0.00     0.087 A 
ATOM      8  C   UNL d   1      54.348  32.347  53.517  0.00  0.00     0.019 A 
ATOM      9  C   UNL d   1      54.286  31.589  53.213  0.00  0.00     0.002 A 
ATOM     10  C   UNL d   1      53.861  31.012  53.622  0.00  0.00     0.000 A 
ATOM     11  C   UNL d   1      53.501  31.202  54.336  0.00  0.00     0.002 A 
ATOM     12  C   UNL d   1      53.564  31.963  54.642  0.00  0.00     0.019 A 
ENDBRANCH   3   7
ENDBRANCH   1   2
BRANCH   1  13
ATOM     13  C   UNL d   1      52.494  34.568  53.728  0.00  0.00     0.059 C 
BRANCH  13  14
ATOM     14  C   UNL d   1      51.828  34.537  53.261  0.00  0.00     0.107 A 
ATOM     15  N   UNL d   1      51.807  34.255  52.474  0.00  0.00    -0.226 NA
ATOM     16  C   UNL d   1      50.995  34.327  52.208  0.00  0.00     0.148 A 
ATOM     17  C   UNL d   1      50.635  34.135  51.473  0.00  0.00     0.037 A 
ATOM     18  N   UNL d   1      50.541  34.650  52.833  0.00  0.00    -0.289 N 
ATOM     19  C   UNL d   1      49.815  34.272  51.379  0.00  0.00     0.005 A 
ATOM     20  C   UNL d   1      49.361  34.595  52.005  0.00  0.00     0.018 A 
ATOM     21  C   UNL d   1      49.723  34.783  52.729  0.00  0.00     0.066 A 
ATOM     22  C   UNL d   1      49.273  35.103  53.348  0.00  0.00     0.019 C 
ATOM     23  C   UNL d   1      51.067  34.781  53.494  0.00  0.00     0.101 A 
ENDBRANCH  13  14
ENDBRANCH   1  13
TORSDOF 4
ENDMDL
MODEL 3
REMARK VINA RESULT:      -7.7      1.780      4.585
REMARK  4 active torsions:
REMARK  status: ('A' for Active; 'I' for Inactive)
REMARK    1  A    between atoms: C_14  and  N_1 
REMARK    2  A    between atoms: S_12  and  C_2 
REMARK    3  A    between atoms: C_9  and  C_17 
REMARK    4  A    between atoms: C_17  and  S_12 
ROOT
ATOM      1  S   UNL d   1      52.573  32.755  53.173  0.00  0.00    -0.045 SA
ENDROOT
BRANCH   1   2
ATOM      2  C   UNL d   1      52.977  32.043  53.221  0.00  0.00     0.219 A 
ATOM      3  N   UNL d   1      53.658  31.912  53.649  0.00  0.00    -0.186 N 
ATOM      4  N   UNL d   1      53.875  31.134  53.547  0.00  0.00    -0.038 NA
ATOM      5  N   UNL d   1      53.326  30.778  53.053  0.00  0.00    -0.022 NA
ATOM      6  N   UNL d   1      52.764  31.351  52.851  0.00  0.00    -0.101 NA
BRANCH   3   7
ATOM      7  C   UNL d   1      54.058  32.468  54.104  0.00  0.00     0.087 A 
ATOM      8  C   UNL d   1      53.872  32.559  54.900  0.00  0.00     0.019 A 
ATOM      9  C   UNL d   1      54.270  33.113  55.354  0.00  0.00     0.002 A 
ATOM     10  C   UNL d   1      54.858  33.580  55.015  0.00  0.00     0.000 A 
ATOM     11  C   UNL d   1      55.044  33.489  54.219  0.00  0.00     0.002 A 
ATOM     12  C   UNL d   1      54.644  32.932  53.763  0.00  0.00     0.019 A 
ENDBRANCH   3   7
ENDBRANCH   1   2
BRANCH   1  13
ATOM     13  C   UNL d   1      52.104  32.898  52.539  0.00  0.00     0.059 C 
BRANCH  13  14
ATOM     14  C   UNL d   1      51.475  33.409  52.615  0.00  0.00     0.107 A 
ATOM     15  N   UNL d   1      51.275  33.822  53.314  0.00  0.00    -0.226 NA
ATOM     16  C   UNL d   1      50.578  34.289  53.134  0.00  0.00     0.148 A 
ATOM     17  C   UNL d   1      50.125  34.813  53.610  0.00  0.00     0.037 A 
ATOM     18  N   UNL d   1      50.369  34.151  52.335  0.00  0.00    -0.289 N 
ATOM     19  C   UNL d   1      49.463  35.194  53.270  0.00  0.00     0.005 A 
ATOM     20  C   UNL d   1      49.254  35.057  52.471  0.00  0.00     0.018 A 
ATOM     21  C   UNL d   1      49.706  34.537  52.005  0.00  0.00     0.066 A 
ATOM     22  C   UNL d   1      49.499  34.402  51.214  0.00  0.00     0.019 C 
ATOM     23  C   UNL d   1      50.934  33.598  52.011  0.00  0.00     0.101 A 
ENDBRANCH  13  14
ENDBRANCH   1  13
TORSDOF 4
ENDMDL
MODEL 4
REMARK VINA RESULT:      -6.8      2.507      5.017
REMARK  4 active torsions:
REMARK  status: ('A' for Active; 'I' for Inactive)
REMARK    1  A    between atoms: C_14  and  N_1 
REMARK    2  A    between atoms: S_12  and  C_2 
REMARK    3  A    between atoms: C_9  and  C_17 
REMARK    4  A    between atoms: C_17  and  S_12 
ROOT
ATOM      1  S   UNL d   1      51.308  33.914  52.939  0.00  0.00    -0.045 SA
ENDROOT
BRANCH   1   2
ATOM      2  C   UNL d   1      51.951  33.408  52.889  0.00  0.00     0.219 A 
ATOM      3  N   UNL d   1      52.669  33.515  53.258  0.00  0.00    -0.186 N 
ATOM      4  N   UNL d   1      53.149  32.888  53.064  0.00  0.00    -0.038 NA
ATOM      5  N   UNL d   1      52.729  32.386  52.571  0.00  0.00    -0.022 NA
ATOM      6  N   UNL d   1      51.977  32.715  52.463  0.00  0.00    -0.101 NA
BRANCH   3   7
ATOM      7  C   UNL d   1      52.874  34.148  53.743  0.00  0.00     0.087 A 
ATOM      8  C   UNL d   1      53.037  34.883  53.414  0.00  0.00     0.019 A 
ATOM      9  C   UNL d   1      53.242  35.512  53.896  0.00  0.00     0.002 A 
ATOM     10  C   UNL d   1      53.284  35.412  54.713  0.00  0.00     0.000 A 
ATOM     11  C   UNL d   1      53.121  34.676  55.042  0.00  0.00     0.002 A 
ATOM     12  C   UNL d   1      52.916  34.043  54.557  0.00  0.00     0.019 A 
ENDBRANCH   3   7
ENDBRANCH   1   2
BRANCH   1  13
ATOM     13  C   UNL d   1      50.596  33.675  52.657  0.00  0.00     0.059 C 
BRANCH  13  14
ATOM     14  C   UNL d   1      49.982  34.207  52.621  0.00  0.00     0.107 A 
ATOM     15  N   UNL d   1      49.756  34.722  53.241  0.00  0.00    -0.226 NA
ATOM     16  C   UNL d   1      49.088  35.176  52.953  0.00  0.00     0.148 A 
ATOM     17  C   UNL d   1      48.626  35.774  53.321  0.00  0.00     0.037 A 
ATOM     18  N   UNL d   1      48.921  34.931  52.170  0.00  0.00    -0.289 N 
ATOM     19  C   UNL d   1      47.998  36.120  52.890  0.00  0.00     0.005 A 
ATOM     20  C   UNL d   1      47.831  35.875  52.106  0.00  0.00     0.018 A 
ATOM     21  C   UNL d   1      48.291  35.282  51.748  0.00  0.00     0.066 A 
ATOM     22  C   UNL d   1      48.126  35.040  50.972  0.00  0.00     0.019 C 
ATOM     23  C   UNL d   1      49.484  34.322  51.963  0.00  0.00     0.101 A 
ENDBRANCH  13  14
ENDBRANCH   1  13
TORSDOF 4
ENDMDL
MODEL 5
REMARK VINA RESULT:      -6.1      1.314      2.107
REMARK  4 active torsions:
REMARK  status: ('A' for Active; 'I' for Inactive)
REMARK    1  A    between atoms: C_14  and  N_1 
REMARK    2  A    between atoms: S_12  and  C_2 
REMARK    3  A    between atoms: C_9  and  C_17 
REMARK    4  A    between atoms: C_17  and  S_12 
ROOT
ATOM      1  S   UNL d   1      52.075  33.152  53.129  0.00  0.00    -0.045 SA
ENDROOT
BRANCH   1   2
ATOM      2  C   UNL d   1      51.521  33.747  53.022  0.00  0.00     0.219 A 
ATOM      3  N   UNL d   1      51.600  34.518  53.273  0.00  0.00    -0.186 N 
ATOM      4  N   UNL d   1      50.928  34.923  53.056  0.00  0.00    -0.038 NA
ATOM      5  N   UNL d   1      50.428  34.403  52.669  0.00  0.00    -0.022 NA
ATOM      6  N   UNL d   1      50.803  33.665  52.649  0.00  0.00    -0.101 NA
BRANCH   3   7
ATOM      7  C   UNL d   1      52.245  34.833  53.674  0.00  0.00     0.087 A 
ATOM      8  C   UNL d   1      52.255  34.838  54.497  0.00  0.00     0.019 A 
ATOM      9  C   UNL d   1      52.897  35.152  54.897  0.00  0.00     0.002 A 
ATOM     10  C   UNL d   1      53.535  35.464  54.477  0.00  0.00     0.000 A 
ATOM     11  C   UNL d   1      53.523  35.458  53.655  0.00  0.00     0.002 A 
ATOM     12  C   UNL d   1      52.878  35.143  53.253  0.00  0.00     0.019 A 
ENDBRANCH   3   7
ENDBRANCH   1   2
BRANCH   1  13
ATOM     13  C   UNL d   1      52.010  32.474  52.706  0.00  0.00     0.059 C 
BRANCH  13  14
ATOM     14  C   UNL d   1      52.424  31.814  52.942  0.00  0.00     0.107 A 
ATOM     15  N   UNL d   1      53.248  31.790  53.084  0.00  0.00    -0.226 NA
ATOM     16  C   UNL d   1      53.435  30.987  53.320  0.00  0.00     0.148 A 
ATOM     17  C   UNL d   1      54.164  30.628  53.531  0.00  0.00     0.037 A 
ATOM     18  N   UNL d   1      52.725  30.541  53.318  0.00  0.00    -0.289 N 
ATOM     19  C   UNL d   1      54.169  29.818  53.739  0.00  0.00     0.005 A 
ATOM     20  C   UNL d   1      53.460  29.372  53.737  0.00  0.00     0.018 A 
ATOM     21  C   UNL d   1      52.741  29.732  53.527  0.00  0.00     0.066 A 
ATOM     22  C   UNL d   1      52.039  29.291  53.525  0.00  0.00     0.019 C 
ATOM     23  C   UNL d   1      52.092  31.063  53.080  0.00  0.00     0.101 A 
ENDBRANCH  13  14
ENDBRANCH   1  13
TORSDOF 4
ENDMDL
