MODEL 1
REMARK VINA RESULT:      77.1      0.000      0.000
REMARK  4 active torsions:
REMARK  status: ('A' for Active; 'I' for Inactive)
REMARK    1  A    between atoms: N_5  and  C_1 
REMARK    2  A    between atoms: C_8  and  C_2 
REMARK       I    between atoms: C_7  and  N_5 
REMARK    3  A    between atoms: C_10  and  C_7 
REMARK    4  A    between atoms: N_9  and  C_8 
ROOT
ATOM      1  C   UNL d   1     -51.104  26.581  35.381  0.00  0.00     0.115 A 
ATOM      2  C   UNL d   1     -51.314  26.491  34.591  0.00  0.00     0.042 A 
ATOM      3  S   UNL d   1     -50.414  27.055  35.410  0.00  0.00    -0.068 SA
ATOM      4  C   UNL d   1     -50.759  26.905  34.130  0.00  0.00     0.009 A 
ATOM      5  C   UNL d   1     -50.212  27.246  34.650  0.00  0.00     0.031 A 
ATOM      6  C   UNL d   1     -50.748  26.970  33.306  0.00  0.00     0.001 C 
ATOM      7  C   UNL d   1     -49.560  27.711  34.436  0.00  0.00     0.007 C 
ENDROOT
BRANCH   1   8
ATOM      8  N   UNL d   1     -51.558  26.227  35.972  0.00  0.00    -0.201 NA
ATOM      9  C   UNL d   1     -51.383  26.363  36.765  0.00  0.00     0.280 C 
ATOM     10  O   UNL d   1     -50.752  26.853  36.966  0.00  0.00    -0.265 OA
BRANCH   9  11
ATOM     11  C   UNL d   1     -51.837  26.009  37.356  0.00  0.00     0.058 A 
ATOM     12  C   UNL d   1     -51.590  26.042  38.140  0.00  0.00     0.007 A 
ATOM     13  C   UNL d   1     -52.049  25.685  38.738  0.00  0.00     0.030 A 
ATOM     14  C   UNL d   1     -52.749  25.298  38.544  0.00  0.00     0.140 A 
ATOM     15  C   UNL d   1     -52.996  25.264  37.759  0.00  0.00     0.030 A 
ATOM     16  F   UNL d   1     -53.203  24.944  39.135  0.00  0.00    -0.204 F 
ATOM     17  C   UNL d   1     -52.537  25.622  37.161  0.00  0.00     0.007 A 
ENDBRANCH   9  11
ENDBRANCH   1   8
BRANCH   2  18
ATOM     18  C   UNL d   1     -51.967  26.060  34.302  0.00  0.00     0.082 C 
BRANCH  18  19
ATOM     19  N   UNL d   1     -51.859  25.301  33.996  0.00  0.00    -0.302 N 
ATOM     20  C   UNL d   1     -52.576  24.900  33.909  0.00  0.00     0.080 A 
ATOM     21  C   UNL d   1     -52.709  24.143  33.628  0.00  0.00     0.019 A 
ATOM     22  C   UNL d   1     -52.160  23.589  33.359  0.00  0.00     0.002 A 
ATOM     23  C   UNL d   1     -51.340  23.657  33.306  0.00  0.00     0.002 A 
ATOM     24  C   UNL d   1     -50.866  24.304  33.512  0.00  0.00     0.019 A 
ATOM     25  C   UNL d   1     -51.095  25.032  33.818  0.00  0.00     0.080 A 
ENDBRANCH  18  19
ENDBRANCH   2  18
TORSDOF 4
ENDMDL
