MODEL 1
REMARK VINA RESULT:      -8.5      0.000      0.000
REMARK  3 active torsions:
REMARK  status: ('A' for Active; 'I' for Inactive)
REMARK    1  A    between atoms: S_10  and  C_6 
REMARK    2  A    between atoms: C_14  and  S_10 
REMARK    3  A    between atoms: C_15  and  C_14 
ROOT
ATOM      1  C   UNL d   1      53.377  33.006  54.071  0.00  0.00     0.141 A 
ATOM      2  O   UNL d   1      52.830  32.779  53.496  0.00  0.00    -0.303 OA
ATOM      3  C   UNL d   1      53.814  32.340  54.285  0.00  0.00     0.110 A 
ATOM      4  C   UNL d   1      53.537  31.701  53.842  0.00  0.00     0.043 A 
ATOM      5  C   UNL d   1      52.929  31.972  53.354  0.00  0.00     0.102 A 
ATOM      6  C   UNL d   1      53.533  33.734  54.428  0.00  0.00     0.137 A 
ATOM      7  N   UNL d   1      54.126  33.794  54.998  0.00  0.00    -0.215 NA
ATOM      8  N   UNL d   1      54.406  32.400  54.855  0.00  0.00    -0.222 NA
ATOM      9  C   UNL d   1      54.563  33.128  55.212  0.00  0.00     0.200 A 
ATOM     10  C   UNL d   1      53.760  30.907  53.819  0.00  0.00     0.004 A 
ATOM     11  C   UNL d   1      52.545  31.450  52.844  0.00  0.00     0.025 A 
ATOM     12  C   UNL d   1      53.375  30.384  53.309  0.00  0.00     0.000 A 
ATOM     13  C   UNL d   1      52.768  30.656  52.822  0.00  0.00     0.002 A 
ENDROOT
BRANCH   6  14
ATOM     14  S   UNL d   1      53.097  34.400  54.214  0.00  0.00    -0.062 SA
BRANCH  14  15
ATOM     15  C   UNL d   1      53.213  35.114  54.611  0.00  0.00     0.082 C 
BRANCH  15  16
ATOM     16  C   UNL d   1      52.744  35.768  54.427  0.00  0.00     0.241 C 
ATOM     17  O   UNL d   1      52.881  36.490  54.801  0.00  0.00    -0.283 OA
ENDBRANCH  15  16
ENDBRANCH  14  15
ENDBRANCH   6  14
TORSDOF 3
ENDMDL
MODEL 2
REMARK VINA RESULT:      -8.5      1.882      3.622
REMARK  3 active torsions:
REMARK  status: ('A' for Active; 'I' for Inactive)
REMARK    1  A    between atoms: S_10  and  C_6 
REMARK    2  A    between atoms: C_14  and  S_10 
REMARK    3  A    between atoms: C_15  and  C_14 
ROOT
ATOM      1  C   UNL d   1      52.853  32.300  53.284  0.00  0.00     0.141 A 
ATOM      2  O   UNL d   1      52.055  32.365  53.082  0.00  0.00    -0.303 OA
ATOM      3  C   UNL d   1      53.154  33.060  53.385  0.00  0.00     0.110 A 
ATOM      4  C   UNL d   1      52.543  33.597  53.245  0.00  0.00     0.043 A 
ATOM      5  C   UNL d   1      51.864  33.167  53.058  0.00  0.00     0.102 A 
ATOM      6  C   UNL d   1      53.344  31.644  53.389  0.00  0.00     0.137 A 
ATOM      7  N   UNL d   1      54.135  31.751  53.595  0.00  0.00    -0.215 NA
ATOM      8  N   UNL d   1      53.946  33.167  53.590  0.00  0.00    -0.222 NA
ATOM      9  C   UNL d   1      54.436  32.512  53.695  0.00  0.00     0.200 A 
ATOM     10  C   UNL d   1      52.516  34.421  53.264  0.00  0.00     0.004 A 
ATOM     11  C   UNL d   1      51.159  33.562  52.891  0.00  0.00     0.025 A 
ATOM     12  C   UNL d   1      51.812  34.816  53.096  0.00  0.00     0.000 A 
ATOM     13  C   UNL d   1      51.133  34.386  52.910  0.00  0.00     0.002 A 
ENDROOT
BRANCH   6  14
ATOM     14  S   UNL d   1      53.042  30.883  53.289  0.00  0.00    -0.062 SA
BRANCH  14  15
ATOM     15  C   UNL d   1      53.402  30.244  53.667  0.00  0.00     0.082 C 
BRANCH  15  16
ATOM     16  C   UNL d   1      53.056  29.495  53.630  0.00  0.00     0.241 C 
ATOM     17  O   UNL d   1      53.197  28.947  54.229  0.00  0.00    -0.283 OA
ENDBRANCH  15  16
ENDBRANCH  14  15
ENDBRANCH   6  14
TORSDOF 3
ENDMDL
MODEL 3
REMARK VINA RESULT:      -8.4      1.333      1.735
REMARK  3 active torsions:
REMARK  status: ('A' for Active; 'I' for Inactive)
REMARK    1  A    between atoms: S_10  and  C_6 
REMARK    2  A    between atoms: C_14  and  S_10 
REMARK    3  A    between atoms: C_15  and  C_14 
ROOT
ATOM      1  C   UNL d   1      52.879  33.053  53.504  0.00  0.00     0.141 A 
ATOM      2  O   UNL d   1      53.427  32.612  53.936  0.00  0.00    -0.303 OA
ATOM      3  C   UNL d   1      52.485  32.541  52.993  0.00  0.00     0.110 A 
ATOM      4  C   UNL d   1      52.789  31.782  53.108  0.00  0.00     0.043 A 
ATOM      5  C   UNL d   1      53.371  31.826  53.691  0.00  0.00     0.102 A 
ATOM      6  C   UNL d   1      52.689  33.856  53.512  0.00  0.00     0.137 A 
ATOM      7  N   UNL d   1      52.104  34.146  53.007  0.00  0.00    -0.215 NA
ATOM      8  N   UNL d   1      51.901  32.830  52.488  0.00  0.00    -0.222 NA
ATOM      9  C   UNL d   1      51.710  33.633  52.495  0.00  0.00     0.200 A 
ATOM     10  C   UNL d   1      52.611  31.057  52.758  0.00  0.00     0.004 A 
ATOM     11  C   UNL d   1      53.775  31.145  53.924  0.00  0.00     0.025 A 
ATOM     12  C   UNL d   1      53.015  30.376  52.990  0.00  0.00     0.000 A 
ATOM     13  C   UNL d   1      53.596  30.420  53.573  0.00  0.00     0.002 A 
ENDROOT
BRANCH   6  14
ATOM     14  S   UNL d   1      53.083  34.369  54.023  0.00  0.00    -0.062 SA
BRANCH  14  15
ATOM     15  C   UNL d   1      52.851  35.159  54.075  0.00  0.00     0.082 C 
BRANCH  15  16
ATOM     16  C   UNL d   1      53.227  35.665  54.609  0.00  0.00     0.241 C 
ATOM     17  O   UNL d   1      52.871  36.378  54.820  0.00  0.00    -0.283 OA
ENDBRANCH  15  16
ENDBRANCH  14  15
ENDBRANCH   6  14
TORSDOF 3
ENDMDL
MODEL 4
REMARK VINA RESULT:      -8.3      1.799      3.832
REMARK  3 active torsions:
REMARK  status: ('A' for Active; 'I' for Inactive)
REMARK    1  A    between atoms: S_10  and  C_6 
REMARK    2  A    between atoms: C_14  and  S_10 
REMARK    3  A    between atoms: C_15  and  C_14 
ROOT
ATOM      1  C   UNL d   1      53.446  32.334  53.713  0.00  0.00     0.141 A 
ATOM      2  O   UNL d   1      54.083  32.249  54.230  0.00  0.00    -0.303 OA
ATOM      3  C   UNL d   1      53.192  33.118  53.748  0.00  0.00     0.110 A 
ATOM      4  C   UNL d   1      53.673  33.518  54.286  0.00  0.00     0.043 A 
ATOM      5  C   UNL d   1      54.224  32.981  54.584  0.00  0.00     0.102 A 
ATOM      6  C   UNL d   1      53.063  31.799  53.215  0.00  0.00     0.137 A 
ATOM      7  N   UNL d   1      52.428  32.048  52.752  0.00  0.00    -0.215 NA
ATOM      8  N   UNL d   1      52.557  33.368  53.285  0.00  0.00    -0.222 NA
ATOM      9  C   UNL d   1      52.174  32.832  52.787  0.00  0.00     0.200 A 
ATOM     10  C   UNL d   1      53.681  34.302  54.544  0.00  0.00     0.004 A 
ATOM     11  C   UNL d   1      54.782  33.227  55.140  0.00  0.00     0.025 A 
ATOM     12  C   UNL d   1      54.239  34.548  55.099  0.00  0.00     0.000 A 
ATOM     13  C   UNL d   1      54.789  34.011  55.397  0.00  0.00     0.002 A 
ENDROOT
BRANCH   6  14
ATOM     14  S   UNL d   1      53.316  31.015  53.180  0.00  0.00    -0.062 SA
BRANCH  14  15
ATOM     15  C   UNL d   1      52.767  30.408  53.072  0.00  0.00     0.082 C 
BRANCH  15  16
ATOM     16  C   UNL d   1      53.013  29.620  53.101  0.00  0.00     0.241 C 
ATOM     17  O   UNL d   1      52.543  29.057  53.476  0.00  0.00    -0.283 OA
ENDBRANCH  15  16
ENDBRANCH  14  15
ENDBRANCH   6  14
TORSDOF 3
ENDMDL
MODEL 5
REMARK VINA RESULT:      -8.0      1.979      2.964
REMARK  3 active torsions:
REMARK  status: ('A' for Active; 'I' for Inactive)
REMARK    1  A    between atoms: S_10  and  C_6 
REMARK    2  A    between atoms: C_14  and  S_10 
REMARK    3  A    between atoms: C_15  and  C_14 
ROOT
ATOM      1  C   UNL d   1      52.631  33.547  53.597  0.00  0.00     0.141 A 
ATOM      2  O   UNL d   1      52.844  34.163  54.103  0.00  0.00    -0.303 OA
ATOM      3  C   UNL d   1      53.193  32.948  53.673  0.00  0.00     0.110 A 
ATOM      4  C   UNL d   1      53.755  33.194  54.225  0.00  0.00     0.043 A 
ATOM      5  C   UNL d   1      53.539  33.945  54.491  0.00  0.00     0.102 A 
ATOM      6  C   UNL d   1      51.996  33.454  53.078  0.00  0.00     0.137 A 
ATOM      7  N   UNL d   1      51.924  32.762  52.635  0.00  0.00    -0.215 NA
ATOM      8  N   UNL d   1      53.121  32.257  53.229  0.00  0.00    -0.222 NA
ATOM      9  C   UNL d   1      52.486  32.164  52.710  0.00  0.00     0.200 A 
ATOM     10  C   UNL d   1      54.434  32.832  54.520  0.00  0.00     0.004 A 
ATOM     11  C   UNL d   1      54.003  34.333  55.051  0.00  0.00     0.025 A 
ATOM     12  C   UNL d   1      54.899  33.220  55.081  0.00  0.00     0.000 A 
ATOM     13  C   UNL d   1      54.683  33.970  55.346  0.00  0.00     0.002 A 
ENDROOT
BRANCH   6  14
ATOM     14  S   UNL d   1      51.433  34.052  53.003  0.00  0.00    -0.062 SA
BRANCH  14  15
ATOM     15  C   UNL d   1      50.735  33.912  52.586  0.00  0.00     0.082 C 
BRANCH  15  16
ATOM     16  C   UNL d   1      50.118  34.460  52.619  0.00  0.00     0.241 C 
ATOM     17  O   UNL d   1      49.553  34.480  52.020  0.00  0.00    -0.283 OA
ENDBRANCH  15  16
ENDBRANCH  14  15
ENDBRANCH   6  14
TORSDOF 3
ENDMDL
MODEL 6
REMARK VINA RESULT:      -7.9      1.777      1.956
REMARK  3 active torsions:
REMARK  status: ('A' for Active; 'I' for Inactive)
REMARK    1  A    between atoms: S_10  and  C_6 
REMARK    2  A    between atoms: C_14  and  S_10 
REMARK    3  A    between atoms: C_15  and  C_14 
ROOT
ATOM      1  C   UNL d   1      52.413  32.810  53.123  0.00  0.00     0.141 A 
ATOM      2  O   UNL d   1      52.123  32.100  52.819  0.00  0.00    -0.303 OA
ATOM      3  C   UNL d   1      53.112  32.648  53.529  0.00  0.00     0.110 A 
ATOM      4  C   UNL d   1      53.255  31.837  53.477  0.00  0.00     0.043 A 
ATOM      5  C   UNL d   1      52.643  31.498  53.039  0.00  0.00     0.102 A 
ATOM      6  C   UNL d   1      52.130  33.585  53.081  0.00  0.00     0.137 A 
ATOM      7  N   UNL d   1      52.546  34.196  53.446  0.00  0.00    -0.215 NA
ATOM      8  N   UNL d   1      53.529  33.260  53.894  0.00  0.00    -0.222 NA
ATOM      9  C   UNL d   1      53.245  34.034  53.852  0.00  0.00     0.200 A 
ATOM     10  C   UNL d   1      53.862  31.363  53.772  0.00  0.00     0.004 A 
ATOM     11  C   UNL d   1      52.640  30.686  52.895  0.00  0.00     0.025 A 
ATOM     12  C   UNL d   1      53.859  30.551  53.629  0.00  0.00     0.000 A 
ATOM     13  C   UNL d   1      53.248  30.212  53.191  0.00  0.00     0.002 A 
ENDROOT
BRANCH   6  14
ATOM     14  S   UNL d   1      51.431  33.747  52.675  0.00  0.00    -0.062 SA
BRANCH  14  15
ATOM     15  C   UNL d   1      50.930  34.348  52.938  0.00  0.00     0.082 C 
BRANCH  15  16
ATOM     16  C   UNL d   1      50.213  34.486  52.553  0.00  0.00     0.241 C 
ATOM     17  O   UNL d   1      49.603  34.874  52.947  0.00  0.00    -0.283 OA
ENDBRANCH  15  16
ENDBRANCH  14  15
ENDBRANCH   6  14
TORSDOF 3
ENDMDL
MODEL 7
REMARK VINA RESULT:      -7.6      2.001      2.882
REMARK  3 active torsions:
REMARK  status: ('A' for Active; 'I' for Inactive)
REMARK    1  A    between atoms: S_10  and  C_6 
REMARK    2  A    between atoms: C_14  and  S_10 
REMARK    3  A    between atoms: C_15  and  C_14 
ROOT
ATOM      1  C   UNL d   1      52.744  33.282  53.711  0.00  0.00     0.141 A 
ATOM      2  O   UNL d   1      52.321  33.956  53.930  0.00  0.00    -0.303 OA
ATOM      3  C   UNL d   1      52.377  32.955  53.049  0.00  0.00     0.110 A 
ATOM      4  C   UNL d   1      51.727  33.425  52.858  0.00  0.00     0.043 A 
ATOM      5  C   UNL d   1      51.692  34.045  53.403  0.00  0.00     0.102 A 
ATOM      6  C   UNL d   1      53.417  32.925  54.029  0.00  0.00     0.137 A 
ATOM      7  N   UNL d   1      53.722  32.241  53.684  0.00  0.00    -0.215 NA
ATOM      8  N   UNL d   1      52.682  32.270  52.704  0.00  0.00    -0.222 NA
ATOM      9  C   UNL d   1      53.355  31.913  53.022  0.00  0.00     0.200 A 
ATOM     10  C   UNL d   1      51.162  33.371  52.260  0.00  0.00     0.004 A 
ATOM     11  C   UNL d   1      51.092  34.609  53.349  0.00  0.00     0.025 A 
ATOM     12  C   UNL d   1      50.562  33.935  52.206  0.00  0.00     0.000 A 
ATOM     13  C   UNL d   1      50.528  34.553  52.750  0.00  0.00     0.002 A 
ENDROOT
BRANCH   6  14
ATOM     14  S   UNL d   1      53.783  33.253  54.691  0.00  0.00    -0.062 SA
BRANCH  14  15
ATOM     15  C   UNL d   1      54.606  33.241  54.755  0.00  0.00     0.082 C 
BRANCH  15  16
ATOM     16  C   UNL d   1      54.973  33.570  55.417  0.00  0.00     0.241 C 
ATOM     17  O   UNL d   1      55.607  34.087  55.322  0.00  0.00    -0.283 OA
ENDBRANCH  15  16
ENDBRANCH  14  15
ENDBRANCH   6  14
TORSDOF 3
ENDMDL
