MODEL 1
REMARK VINA RESULT:      18.7      0.000      0.000
REMARK  3 active torsions:
REMARK  status: ('A' for Active; 'I' for Inactive)
REMARK    1  A    between atoms: N_7  and  C_1 
REMARK    2  A    between atoms: N_10  and  N_7 
REMARK    3  A    between atoms: C_17  and  N_10 
ROOT
ATOM      1  N   UNL d   1     -54.727-102.702 -36.711  0.00  0.00    -0.148 NA
ENDROOT
BRANCH   1   2
ATOM      2  N   UNL d   1     -54.714-102.798 -37.542  0.00  0.00    -0.138 NA
BRANCH   2   3
ATOM      3  C   UNL d   1     -55.409-102.817 -37.943  0.00  0.00     0.218 A 
ATOM      4  C   UNL d   1     -55.434-102.799 -38.735  0.00  0.00     0.307 A 
ATOM      5  N   UNL d   1     -56.149-102.820 -39.123  0.00  0.00    -0.150 NA
ATOM      6  O   UNL d   1     -54.716-102.758 -39.165  0.00  0.00    -0.263 OA
ATOM      7  C   UNL d   1     -56.827-102.857 -38.754  0.00  0.00     0.374 A 
ATOM      8  N   UNL d   1     -56.822-102.878 -37.924  0.00  0.00    -0.150 NA
ATOM      9  O   UNL d   1     -57.546-102.877 -39.197  0.00  0.00    -0.242 OA
ATOM     10  C   UNL d   1     -56.126-102.858 -37.512  0.00  0.00     0.307 A 
ATOM     11  O   UNL d   1     -56.132-102.879 -36.680  0.00  0.00    -0.263 OA
ENDBRANCH   2   3
ENDBRANCH   1   2
BRANCH   1  12
ATOM     12  C   UNL d   1     -54.726-101.930 -36.397  0.00  0.00     0.105 A 
ATOM     13  C   UNL d   1     -54.722-101.331 -36.949  0.00  0.00     0.048 A 
ATOM     14  C   UNL d   1     -54.721-100.548 -36.687  0.00  0.00     0.124 A 
ATOM     15  O   UNL d   1     -54.717 -99.948 -37.239  0.00  0.00    -0.301 OA
ATOM     16  C   UNL d   1     -54.725-100.376 -35.865  0.00  0.00     0.123 A 
ATOM     17  C   UNL d   1     -54.716 -99.165 -36.977  0.00  0.00     0.149 A 
ATOM     18  C   UNL d   1     -54.720 -98.993 -36.155  0.00  0.00     0.149 A 
ATOM     19  O   UNL d   1     -54.724 -99.605 -35.606  0.00  0.00    -0.301 OA
ATOM     20  C   UNL d   1     -54.729-100.988 -35.316  0.00  0.00     0.028 A 
ATOM     21  C   UNL d   1     -54.730-101.758 -35.575  0.00  0.00     0.023 A 
ENDBRANCH   1  12
TORSDOF 3
ENDMDL
