MODEL 1
REMARK VINA RESULT:      -5.6      0.000      0.000
REMARK  6 active torsions:
REMARK  status: ('A' for Active; 'I' for Inactive)
REMARK       I    between atoms: N_2  and  C_1 
REMARK    1  A    between atoms: C_3  and  C_1 
REMARK    2  A    between atoms: C_5  and  N_2 
REMARK    3  A    between atoms: C_6  and  C_3 
REMARK    4  A    between atoms: C_8  and  C_5 
REMARK    5  A    between atoms: O_7  and  C_6 
REMARK    6  A    between atoms: C_9  and  O_7 
ROOT
ATOM      1  C   UNL d   1     -41.177-122.571 -52.368  0.00  0.00     0.330 C 
ATOM      2  N   UNL d   1     -41.284-122.876 -53.119  0.00  0.00    -0.362 NA
ATOM      3  O   UNL d   1     -41.123-121.765 -52.258  0.00  0.00    -0.251 OA
ENDROOT
BRANCH   1   4
ATOM      4  C   UNL d   1     -41.124-123.076 -51.732  0.00  0.00     0.103 C 
BRANCH   4   5
ATOM      5  C   UNL d   1     -41.530-122.890 -51.031  0.00  0.00     0.129 C 
BRANCH   5   6
ATOM      6  O   UNL d   1     -41.813-123.504 -50.542  0.00  0.00    -0.305 OA
BRANCH   6   7
ATOM      7  C   UNL d   1     -41.996-123.353 -49.750  0.00  0.00     0.100 A 
ATOM      8  C   UNL d   1     -42.727-123.072 -49.550  0.00  0.00     0.025 A 
ATOM      9  C   UNL d   1     -42.922-122.916 -48.751  0.00  0.00     0.002 A 
ATOM     10  C   UNL d   1     -42.346-123.058 -48.171  0.00  0.00     0.000 A 
ATOM     11  C   UNL d   1     -41.615-123.340 -48.370  0.00  0.00     0.002 A 
ATOM     12  C   UNL d   1     -41.430-123.490 -49.158  0.00  0.00     0.025 A 
ENDBRANCH   6   7
ENDBRANCH   5   6
ENDBRANCH   4   5
ENDBRANCH   1   4
BRANCH   2  13
ATOM     13  C   UNL d   1     -41.392-123.199 -53.868  0.00  0.00     0.165 C 
BRANCH  13  14
ATOM     14  C   UNL d   1     -41.657-122.740 -54.496  0.00  0.00     0.032 A 
ATOM     15  C   UNL d   1     -42.461-122.567 -54.566  0.00  0.00     0.003 A 
ATOM     16  C   UNL d   1     -42.730-122.102 -55.203  0.00  0.00     0.000 A 
ATOM     17  C   UNL d   1     -42.192-121.815 -55.762  0.00  0.00     0.000 A 
ATOM     18  C   UNL d   1     -41.395-121.991 -55.686  0.00  0.00     0.000 A 
ATOM     19  C   UNL d   1     -41.126-122.456 -55.049  0.00  0.00     0.003 A 
ENDBRANCH  13  14
ENDBRANCH   2  13
TORSDOF 6
ENDMDL
MODEL 2
REMARK VINA RESULT:      -5.5      0.860      5.296
REMARK  6 active torsions:
REMARK  status: ('A' for Active; 'I' for Inactive)
REMARK       I    between atoms: N_2  and  C_1 
REMARK    1  A    between atoms: C_3  and  C_1 
REMARK    2  A    between atoms: C_5  and  N_2 
REMARK    3  A    between atoms: C_6  and  C_3 
REMARK    4  A    between atoms: C_8  and  C_5 
REMARK    5  A    between atoms: O_7  and  C_6 
REMARK    6  A    between atoms: C_9  and  O_7 
ROOT
ATOM      1  C   UNL d   1     -41.470-122.475 -51.327  0.00  0.00     0.330 C 
ATOM      2  N   UNL d   1     -41.783-122.994 -50.778  0.00  0.00    -0.362 NA
ATOM      3  O   UNL d   1     -41.421-121.678 -51.155  0.00  0.00    -0.251 OA
ENDROOT
BRANCH   1   4
ATOM      4  C   UNL d   1     -41.209-122.756 -52.045  0.00  0.00     0.103 C 
BRANCH   4   5
ATOM      5  C   UNL d   1     -41.505-122.420 -52.745  0.00  0.00     0.129 C 
BRANCH   5   6
ATOM      6  O   UNL d   1     -41.542-122.878 -53.441  0.00  0.00    -0.305 OA
BRANCH   6   7
ATOM      7  C   UNL d   1     -41.740-122.525 -54.162  0.00  0.00     0.100 A 
ATOM      8  C   UNL d   1     -42.389-122.047 -54.213  0.00  0.00     0.025 A 
ATOM      9  C   UNL d   1     -42.597-121.686 -54.939  0.00  0.00     0.002 A 
ATOM     10  C   UNL d   1     -42.119-121.830 -55.602  0.00  0.00     0.000 A 
ATOM     11  C   UNL d   1     -41.469-122.307 -55.550  0.00  0.00     0.002 A 
ATOM     12  C   UNL d   1     -41.271-122.660 -54.834  0.00  0.00     0.025 A 
ENDBRANCH   6   7
ENDBRANCH   5   6
ENDBRANCH   4   5
ENDBRANCH   1   4
BRANCH   2  13
ATOM     13  C   UNL d   1     -42.095-123.529 -50.236  0.00  0.00     0.165 C 
BRANCH  13  14
ATOM     14  C   UNL d   1     -42.103-123.365 -49.432  0.00  0.00     0.032 A 
ATOM     15  C   UNL d   1     -41.448-123.553 -48.968  0.00  0.00     0.003 A 
ATOM     16  C   UNL d   1     -41.456-123.387 -48.152  0.00  0.00     0.000 A 
ATOM     17  C   UNL d   1     -42.121-123.035 -47.808  0.00  0.00     0.000 A 
ATOM     18  C   UNL d   1     -42.769-122.850 -48.275  0.00  0.00     0.000 A 
ATOM     19  C   UNL d   1     -42.761-123.017 -49.091  0.00  0.00     0.003 A 
ENDBRANCH  13  14
ENDBRANCH   2  13
TORSDOF 6
ENDMDL
MODEL 3
REMARK VINA RESULT:      -4.9      0.948      1.464
REMARK  6 active torsions:
REMARK  status: ('A' for Active; 'I' for Inactive)
REMARK       I    between atoms: N_2  and  C_1 
REMARK    1  A    between atoms: C_3  and  C_1 
REMARK    2  A    between atoms: C_5  and  N_2 
REMARK    3  A    between atoms: C_6  and  C_3 
REMARK    4  A    between atoms: C_8  and  C_5 
REMARK    5  A    between atoms: O_7  and  C_6 
REMARK    6  A    between atoms: C_9  and  O_7 
ROOT
ATOM      1  C   UNL d   1     -42.055-122.441 -51.284  0.00  0.00     0.330 C 
ATOM      2  N   UNL d   1     -41.594-122.335 -51.952  0.00  0.00    -0.362 NA
ATOM      3  O   UNL d   1     -42.618-121.885 -51.084  0.00  0.00    -0.251 OA
ENDROOT
BRANCH   1   4
ATOM      4  C   UNL d   1     -41.948-123.102 -50.821  0.00  0.00     0.103 C 
BRANCH   4   5
ATOM      5  C   UNL d   1     -41.969-123.026 -49.994  0.00  0.00     0.129 C 
BRANCH   5   6
ATOM      6  O   UNL d   1     -41.848-123.697 -49.514  0.00  0.00    -0.305 OA
BRANCH   6   7
ATOM      7  C   UNL d   1     -41.840-123.623 -48.690  0.00  0.00     0.100 A 
ATOM      8  C   UNL d   1     -41.156-123.426 -48.308  0.00  0.00     0.025 A 
ATOM      9  C   UNL d   1     -41.139-123.350 -47.475  0.00  0.00     0.002 A 
ATOM     10  C   UNL d   1     -41.841-123.481 -47.053  0.00  0.00     0.000 A 
ATOM     11  C   UNL d   1     -42.525-123.678 -47.435  0.00  0.00     0.002 A 
ATOM     12  C   UNL d   1     -42.536-123.752 -48.254  0.00  0.00     0.025 A 
ENDBRANCH   6   7
ENDBRANCH   5   6
ENDBRANCH   4   5
ENDBRANCH   1   4
BRANCH   2  13
ATOM     13  C   UNL d   1     -41.123-122.244 -52.620  0.00  0.00     0.165 C 
BRANCH  13  14
ATOM     14  C   UNL d   1     -41.402-122.434 -53.368  0.00  0.00     0.032 A 
ATOM     15  C   UNL d   1     -41.890-121.904 -53.770  0.00  0.00     0.003 A 
ATOM     16  C   UNL d   1     -42.173-122.097 -54.529  0.00  0.00     0.000 A 
ATOM     17  C   UNL d   1     -41.966-122.818 -54.878  0.00  0.00     0.000 A 
ATOM     18  C   UNL d   1     -41.481-123.340 -54.472  0.00  0.00     0.000 A 
ATOM     19  C   UNL d   1     -41.198-123.147 -53.713  0.00  0.00     0.003 A 
ENDBRANCH  13  14
ENDBRANCH   2  13
TORSDOF 6
ENDMDL
