MODEL 1
REMARK VINA RESULT:      -5.7      0.000      0.000
REMARK  9 active torsions:
REMARK  status: ('A' for Active; 'I' for Inactive)
REMARK       I    between atoms: C_9  and  N_1 
REMARK       I    between atoms: N_2  and  C_10 
REMARK    1  A    between atoms: C_17  and  C_9 
REMARK    2  A    between atoms: C_10  and  C_18 
REMARK    3  A    between atoms: C_21  and  C_17 
REMARK    4  A    between atoms: C_18  and  C_22 
REMARK    5  A    between atoms: C_24  and  C_21 
REMARK    6  A    between atoms: C_22  and  C_23 
REMARK    7  A    between atoms: C_23  and  C_26 
REMARK    8  A    between atoms: C_25  and  C_24 
REMARK    9  A    between atoms: C_26  and  C_25 
ROOT
ATOM      1  C   UNL d   1     -43.803  12.964  21.395  0.00  0.00     0.000 C 
ENDROOT
BRANCH   1   2
ATOM      2  C   UNL d   1     -44.300  12.764  22.032  0.00  0.00     0.000 C 
BRANCH   2   3
ATOM      3  C   UNL d   1     -45.071  13.051  22.056  0.00  0.00     0.005 C 
BRANCH   3   4
ATOM      4  C   UNL d   1     -45.617  12.728  22.582  0.00  0.00     0.063 C 
BRANCH   4   5
ATOM      5  C   UNL d   1     -46.404  12.974  22.560  0.00  0.00     0.280 C 
ATOM      6  N   UNL d   1     -46.981  12.550  22.966  0.00  0.00    -0.195 N 
ATOM      7  N   UNL d   1     -47.767  12.793  22.946  0.00  0.00    -0.163 NA
ATOM      8  C   UNL d   1     -46.943  11.872  23.433  0.00  0.00     0.088 A 
ATOM      9  C   UNL d   1     -48.213  12.270  23.397  0.00  0.00     0.103 A 
ATOM     10  C   UNL d   1     -49.031  12.309  23.525  0.00  0.00     0.022 C 
ATOM     11  C   UNL d   1     -47.698  11.700  23.697  0.00  0.00     0.040 A 
ATOM     12  C   UNL d   1     -46.260  11.441  23.604  0.00  0.00     0.021 C 
ATOM     13  O   UNL d   1     -46.624  13.647  22.132  0.00  0.00    -0.265 OA
ENDBRANCH   4   5
ENDBRANCH   3   4
ENDBRANCH   2   3
ENDBRANCH   1   2
BRANCH   1  14
ATOM     14  C   UNL d   1     -42.985  12.964  21.501  0.00  0.00     0.000 C 
BRANCH  14  15
ATOM     15  C   UNL d   1     -42.489  13.303  20.926  0.00  0.00     0.000 C 
BRANCH  15  16
ATOM     16  C   UNL d   1     -41.776  13.653  21.145  0.00  0.00     0.005 C 
BRANCH  16  17
ATOM     17  C   UNL d   1     -41.302  14.015  20.575  0.00  0.00     0.063 C 
BRANCH  17  18
ATOM     18  C   UNL d   1     -40.617  14.411  20.797  0.00  0.00     0.280 C 
ATOM     19  N   UNL d   1     -40.147  14.781  20.229  0.00  0.00    -0.195 N 
ATOM     20  N   UNL d   1     -39.449  15.197  20.365  0.00  0.00    -0.163 NA
ATOM     21  C   UNL d   1     -40.291  14.802  19.411  0.00  0.00     0.088 A 
ATOM     22  C   UNL d   1     -39.163  15.473  19.642  0.00  0.00     0.103 A 
ATOM     23  C   UNL d   1     -38.474  15.916  19.532  0.00  0.00     0.022 C 
ATOM     24  C   UNL d   1     -39.688  15.226  19.052  0.00  0.00     0.040 A 
ATOM     25  C   UNL d   1     -40.939  14.451  19.026  0.00  0.00     0.021 C 
ATOM     26  O   UNL d   1     -40.398  14.439  21.594  0.00  0.00    -0.265 OA
ENDBRANCH  17  18
ENDBRANCH  16  17
ENDBRANCH  15  16
ENDBRANCH  14  15
ENDBRANCH   1  14
TORSDOF 9
ENDMDL
MODEL 2
REMARK VINA RESULT:      -5.6      0.118      7.524
REMARK  9 active torsions:
REMARK  status: ('A' for Active; 'I' for Inactive)
REMARK       I    between atoms: C_9  and  N_1 
REMARK       I    between atoms: N_2  and  C_10 
REMARK    1  A    between atoms: C_17  and  C_9 
REMARK    2  A    between atoms: C_10  and  C_18 
REMARK    3  A    between atoms: C_21  and  C_17 
REMARK    4  A    between atoms: C_18  and  C_22 
REMARK    5  A    between atoms: C_24  and  C_21 
REMARK    6  A    between atoms: C_22  and  C_23 
REMARK    7  A    between atoms: C_23  and  C_26 
REMARK    8  A    between atoms: C_25  and  C_24 
REMARK    9  A    between atoms: C_26  and  C_25 
ROOT
ATOM      1  C   UNL d   1     -43.036  13.062  21.550  0.00  0.00     0.000 C 
ENDROOT
BRANCH   1   2
ATOM      2  C   UNL d   1     -42.513  13.281  20.941  0.00  0.00     0.000 C 
BRANCH   2   3
ATOM      3  C   UNL d   1     -41.808  13.664  21.125  0.00  0.00     0.005 C 
BRANCH   3   4
ATOM      4  C   UNL d   1     -41.347  13.993  20.525  0.00  0.00     0.063 C 
BRANCH   4   5
ATOM      5  C   UNL d   1     -40.672  14.427  20.717  0.00  0.00     0.280 C 
ATOM      6  N   UNL d   1     -40.200  14.741  20.121  0.00  0.00    -0.195 N 
ATOM      7  N   UNL d   1     -39.526  15.175  20.309  0.00  0.00    -0.163 NA
ATOM      8  C   UNL d   1     -40.257  14.716  19.298  0.00  0.00     0.088 A 
ATOM      9  C   UNL d   1     -39.168  15.417  19.609  0.00  0.00     0.103 A 
ATOM     10  C   UNL d   1     -38.475  15.866  19.545  0.00  0.00     0.022 C 
ATOM     11  C   UNL d   1     -39.625  15.130  18.985  0.00  0.00     0.040 A 
ATOM     12  C   UNL d   1     -40.850  14.337  18.867  0.00  0.00     0.021 C 
ATOM     13  O   UNL d   1     -40.461  14.552  21.507  0.00  0.00    -0.265 OA
ENDBRANCH   4   5
ENDBRANCH   3   4
ENDBRANCH   2   3
ENDBRANCH   1   2
BRANCH   1  14
ATOM     14  C   UNL d   1     -43.850  13.100  21.421  0.00  0.00     0.000 C 
BRANCH  14  15
ATOM     15  C   UNL d   1     -44.379  12.870  22.020  0.00  0.00     0.000 C 
BRANCH  15  16
ATOM     16  C   UNL d   1     -45.178  13.063  21.966  0.00  0.00     0.005 C 
BRANCH  16  17
ATOM     17  C   UNL d   1     -45.711  12.773  22.525  0.00  0.00     0.063 C 
BRANCH  17  18
ATOM     18  C   UNL d   1     -46.487  13.041  22.535  0.00  0.00     0.280 C 
ATOM     19  N   UNL d   1     -47.068  12.624  22.947  0.00  0.00    -0.195 N 
ATOM     20  N   UNL d   1     -47.864  12.822  23.008  0.00  0.00    -0.163 NA
ATOM     21  C   UNL d   1     -46.954  11.922  23.378  0.00  0.00     0.088 A 
ATOM     22  C   UNL d   1     -48.242  12.252  23.470  0.00  0.00     0.103 A 
ATOM     23  C   UNL d   1     -49.045  12.244  23.667  0.00  0.00     0.022 C 
ATOM     24  C   UNL d   1     -47.674  11.695  23.698  0.00  0.00     0.040 A 
ATOM     25  C   UNL d   1     -46.231  11.522  23.466  0.00  0.00     0.021 C 
ATOM     26  O   UNL d   1     -46.688  13.734  22.131  0.00  0.00    -0.265 OA
ENDBRANCH  17  18
ENDBRANCH  16  17
ENDBRANCH  15  16
ENDBRANCH  14  15
ENDBRANCH   1  14
TORSDOF 9
ENDMDL
MODEL 3
REMARK VINA RESULT:      -5.1      1.582      7.491
REMARK  9 active torsions:
REMARK  status: ('A' for Active; 'I' for Inactive)
REMARK       I    between atoms: C_9  and  N_1 
REMARK       I    between atoms: N_2  and  C_10 
REMARK    1  A    between atoms: C_17  and  C_9 
REMARK    2  A    between atoms: C_10  and  C_18 
REMARK    3  A    between atoms: C_21  and  C_17 
REMARK    4  A    between atoms: C_18  and  C_22 
REMARK    5  A    between atoms: C_24  and  C_21 
REMARK    6  A    between atoms: C_22  and  C_23 
REMARK    7  A    between atoms: C_23  and  C_26 
REMARK    8  A    between atoms: C_25  and  C_24 
REMARK    9  A    between atoms: C_26  and  C_25 
ROOT
ATOM      1  C   UNL d   1     -41.764  13.914  20.882  0.00  0.00     0.000 C 
ENDROOT
BRANCH   1   2
ATOM      2  C   UNL d   1     -41.138  13.837  20.339  0.00  0.00     0.000 C 
BRANCH   2   3
ATOM      3  C   UNL d   1     -40.854  14.501  19.945  0.00  0.00     0.005 C 
BRANCH   3   4
ATOM      4  C   UNL d   1     -40.444  14.416  19.234  0.00  0.00     0.063 C 
BRANCH   4   5
ATOM      5  C   UNL d   1     -40.292  15.078  18.766  0.00  0.00     0.280 C 
ATOM      6  N   UNL d   1     -39.880  14.998  18.058  0.00  0.00    -0.195 N 
ATOM      7  N   UNL d   1     -39.727  15.656  17.588  0.00  0.00    -0.163 NA
ATOM      8  C   UNL d   1     -39.557  14.341  17.677  0.00  0.00     0.088 A 
ATOM      9  C   UNL d   1     -39.312  15.411  16.923  0.00  0.00     0.103 A 
ATOM     10  C   UNL d   1     -39.047  15.897  16.306  0.00  0.00     0.022 C 
ATOM     11  C   UNL d   1     -39.208  14.595  16.982  0.00  0.00     0.040 A 
ATOM     12  C   UNL d   1     -39.581  13.564  17.952  0.00  0.00     0.021 C 
ATOM     13  O   UNL d   1     -40.549  15.828  19.000  0.00  0.00    -0.265 OA
ENDBRANCH   4   5
ENDBRANCH   3   4
ENDBRANCH   2   3
ENDBRANCH   1   2
BRANCH   1  14
ATOM     14  C   UNL d   1     -42.337  13.323  20.930  0.00  0.00     0.000 C 
BRANCH  14  15
ATOM     15  C   UNL d   1     -43.026  13.444  21.380  0.00  0.00     0.000 C 
BRANCH  15  16
ATOM     16  C   UNL d   1     -43.428  12.804  21.707  0.00  0.00     0.005 C 
BRANCH  16  17
ATOM     17  C   UNL d   1     -44.220  12.881  21.924  0.00  0.00     0.063 C 
BRANCH  17  18
ATOM     18  C   UNL d   1     -44.580  12.308  22.389  0.00  0.00     0.280 C 
ATOM     19  N   UNL d   1     -45.354  12.412  22.655  0.00  0.00    -0.195 N 
ATOM     20  N   UNL d   1     -45.787  11.890  23.121  0.00  0.00    -0.163 NA
ATOM     21  C   UNL d   1     -45.842  13.067  22.499  0.00  0.00     0.088 A 
ATOM     22  C   UNL d   1     -46.534  12.214  23.255  0.00  0.00     0.103 A 
ATOM     23  C   UNL d   1     -47.139  11.867  23.698  0.00  0.00     0.022 C 
ATOM     24  C   UNL d   1     -46.565  12.945  22.867  0.00  0.00     0.040 A 
ATOM     25  C   UNL d   1     -45.629  13.730  22.046  0.00  0.00     0.021 C 
ATOM     26  O   UNL d   1     -44.165  11.622  22.592  0.00  0.00    -0.265 OA
ENDBRANCH  17  18
ENDBRANCH  16  17
ENDBRANCH  15  16
ENDBRANCH  14  15
ENDBRANCH   1  14
TORSDOF 9
ENDMDL
MODEL 4
REMARK VINA RESULT:      -5.0      1.625      2.220
REMARK  9 active torsions:
REMARK  status: ('A' for Active; 'I' for Inactive)
REMARK       I    between atoms: C_9  and  N_1 
REMARK       I    between atoms: N_2  and  C_10 
REMARK    1  A    between atoms: C_17  and  C_9 
REMARK    2  A    between atoms: C_10  and  C_18 
REMARK    3  A    between atoms: C_21  and  C_17 
REMARK    4  A    between atoms: C_18  and  C_22 
REMARK    5  A    between atoms: C_24  and  C_21 
REMARK    6  A    between atoms: C_22  and  C_23 
REMARK    7  A    between atoms: C_23  and  C_26 
REMARK    8  A    between atoms: C_25  and  C_24 
REMARK    9  A    between atoms: C_26  and  C_25 
ROOT
ATOM      1  C   UNL d   1     -42.297  13.359  20.908  0.00  0.00     0.000 C 
ENDROOT
BRANCH   1   2
ATOM      2  C   UNL d   1     -42.911  13.425  21.466  0.00  0.00     0.000 C 
BRANCH   2   3
ATOM      3  C   UNL d   1     -43.492  12.844  21.506  0.00  0.00     0.005 C 
BRANCH   3   4
ATOM      4  C   UNL d   1     -44.229  13.017  21.835  0.00  0.00     0.063 C 
BRANCH   4   5
ATOM      5  C   UNL d   1     -44.627  12.446  22.277  0.00  0.00     0.280 C 
ATOM      6  N   UNL d   1     -45.382  12.598  22.565  0.00  0.00    -0.195 N 
ATOM      7  N   UNL d   1     -45.782  12.030  23.006  0.00  0.00    -0.163 NA
ATOM      8  C   UNL d   1     -45.875  13.257  22.504  0.00  0.00     0.088 A 
ATOM      9  C   UNL d   1     -46.516  12.334  23.218  0.00  0.00     0.103 A 
ATOM     10  C   UNL d   1     -47.095  11.944  23.665  0.00  0.00     0.022 C 
ATOM     11  C   UNL d   1     -46.570  13.094  22.905  0.00  0.00     0.040 A 
ATOM     12  C   UNL d   1     -45.696  13.958  22.108  0.00  0.00     0.021 C 
ATOM     13  O   UNL d   1     -44.274  11.715  22.436  0.00  0.00    -0.265 OA
ENDBRANCH   4   5
ENDBRANCH   3   4
ENDBRANCH   2   3
ENDBRANCH   1   2
BRANCH   1  14
ATOM     14  C   UNL d   1     -41.777  13.990  20.798  0.00  0.00     0.000 C 
BRANCH  14  15
ATOM     15  C   UNL d   1     -41.177  13.941  20.224  0.00  0.00     0.000 C 
BRANCH  15  16
ATOM     16  C   UNL d   1     -41.014  14.583  19.736  0.00  0.00     0.005 C 
BRANCH  16  17
ATOM     17  C   UNL d   1     -40.483  14.503  19.109  0.00  0.00     0.063 C 
BRANCH  17  18
ATOM     18  C   UNL d   1     -40.332  15.137  18.610  0.00  0.00     0.280 C 
ATOM     19  N   UNL d   1     -39.851  15.040  17.947  0.00  0.00    -0.195 N 
ATOM     20  N   UNL d   1     -39.650  15.619  17.397  0.00  0.00    -0.163 NA
ATOM     21  C   UNL d   1     -39.478  14.335  17.710  0.00  0.00     0.088 A 
ATOM     22  C   UNL d   1     -39.159  15.281  16.827  0.00  0.00     0.103 A 
ATOM     23  C   UNL d   1     -38.832  15.673  16.176  0.00  0.00     0.022 C 
ATOM     24  C   UNL d   1     -39.055  14.484  17.024  0.00  0.00     0.040 A 
ATOM     25  C   UNL d   1     -39.530  13.606  18.106  0.00  0.00     0.021 C 
ATOM     26  O   UNL d   1     -40.665  15.876  18.771  0.00  0.00    -0.265 OA
ENDBRANCH  17  18
ENDBRANCH  16  17
ENDBRANCH  15  16
ENDBRANCH  14  15
ENDBRANCH   1  14
TORSDOF 9
ENDMDL
