MODEL 1
REMARK VINA RESULT:      -0.5      0.000      0.000
REMARK  7 active torsions:
REMARK  status: ('A' for Active; 'I' for Inactive)
REMARK    1  A    between atoms: C_8  and  C_2 
REMARK    2  A    between atoms: C_12  and  N_3 
REMARK    3  A    between atoms: C_6  and  C_4 
REMARK       I    between atoms: C_7  and  N_13 
REMARK    4  A    between atoms: C_9  and  C_7 
REMARK    5  A    between atoms: N_13  and  C_8 
REMARK    6  A    between atoms: C_11  and  C_9 
REMARK    7  A    between atoms: C_10  and  C_11 
ROOT
ATOM      1  N   UNL d   1      33.241  18.239 -22.718  0.00  0.00    -0.165 NA
ATOM      2  C   UNL d   1      32.411  18.297 -23.868  0.00  0.00     0.071 A 
ATOM      3  N   UNL d   1      32.669  19.479 -23.108  0.00  0.00    -0.228 N 
ATOM      4  C   UNL d   1      32.877  17.870 -23.356  0.00  0.00     0.105 A 
ATOM      5  C   UNL d   1      32.304  19.110 -23.746  0.00  0.00     0.105 A 
ENDROOT
BRANCH   2   6
ATOM      6  C   UNL d   1      32.047  17.928 -24.506  0.00  0.00     0.168 C 
BRANCH   6   7
ATOM      7  N   UNL d   1      31.236  18.046 -24.652  0.00  0.00    -0.362 NA
ATOM      8  C   UNL d   1      30.418  18.161 -24.798  0.00  0.00     0.329 C 
ATOM      9  O   UNL d   1      30.142  18.896 -25.085  0.00  0.00    -0.251 OA
BRANCH   8  10
ATOM     10  C   UNL d   1      29.873  17.538 -24.656  0.00  0.00     0.082 C 
BRANCH  10  11
ATOM     11  C   UNL d   1      29.097  17.713 -24.380  0.00  0.00     0.076 C 
BRANCH  11  12
ATOM     12  C   UNL d   1      28.672  17.147 -23.940  0.00  0.00     0.211 C 
ATOM     13  O   UNL d   1      28.949  16.359 -23.919  0.00  0.00    -0.644 OA
ATOM     14  O   UNL d   1      27.987  17.376 -23.532  0.00  0.00    -0.644 OA
ENDBRANCH  11  12
ENDBRANCH  10  11
ENDBRANCH   8  10
ENDBRANCH   6   7
ENDBRANCH   2   6
BRANCH   4  15
ATOM     15  C   UNL d   1      32.989  17.056 -23.471  0.00  0.00     0.020 A 
ATOM     16  C   UNL d   1      33.037  16.757 -24.221  0.00  0.00     0.008 A 
ATOM     17  C   UNL d   1      33.148  15.952 -24.333  0.00  0.00     0.035 A 
ATOM     18 BR   UNL d   1      33.197  15.644 -25.088  0.00  0.00    -0.049 Br
ATOM     19  C   UNL d   1      33.211  15.453 -23.669  0.00  0.00     0.007 A 
ATOM     20  C   UNL d   1      33.162  15.757 -22.910  0.00  0.00     0.001 A 
ATOM     21  C   UNL d   1      33.051  16.559 -22.810  0.00  0.00     0.002 A 
ENDBRANCH   4  15
BRANCH   3  22
ATOM     22  C   UNL d   1      32.694  20.242 -22.816  0.00  0.00     0.083 A 
ATOM     23  C   UNL d   1      32.490  20.375 -22.032  0.00  0.00     0.019 A 
ATOM     24  C   UNL d   1      32.515  21.147 -21.736  0.00  0.00     0.002 A 
ATOM     25  C   UNL d   1      32.742  21.772 -22.225  0.00  0.00     0.000 A 
ATOM     26  C   UNL d   1      32.944  21.626 -23.012  0.00  0.00     0.002 A 
ATOM     27  C   UNL d   1      32.919  20.860 -23.302  0.00  0.00     0.019 A 
ENDBRANCH   3  22
TORSDOF 7
ENDMDL
MODEL 2
REMARK VINA RESULT:       0.3      3.009      5.540
REMARK  7 active torsions:
REMARK  status: ('A' for Active; 'I' for Inactive)
REMARK    1  A    between atoms: C_8  and  C_2 
REMARK    2  A    between atoms: C_12  and  N_3 
REMARK    3  A    between atoms: C_6  and  C_4 
REMARK       I    between atoms: C_7  and  N_13 
REMARK    4  A    between atoms: C_9  and  C_7 
REMARK    5  A    between atoms: N_13  and  C_8 
REMARK    6  A    between atoms: C_11  and  C_9 
REMARK    7  A    between atoms: C_10  and  C_11 
ROOT
ATOM      1  N   UNL d   1      32.437  20.520 -24.735  0.00  0.00    -0.165 NA
ATOM      2  C   UNL d   1      32.963  20.744 -23.436  0.00  0.00     0.071 A 
ATOM      3  N   UNL d   1      32.660  19.417 -23.868  0.00  0.00    -0.228 N 
ATOM      4  C   UNL d   1      32.714  21.032 -24.155  0.00  0.00     0.105 A 
ATOM      5  C   UNL d   1      32.937  19.930 -23.288  0.00  0.00     0.105 A 
ENDROOT
BRANCH   2   6
ATOM      6  C   UNL d   1      33.241  21.257 -22.857  0.00  0.00     0.168 C 
BRANCH   6   7
ATOM      7  N   UNL d   1      33.205  21.040 -22.053  0.00  0.00    -0.362 NA
ATOM      8  C   UNL d   1      33.170  20.827 -21.243  0.00  0.00     0.329 C 
ATOM      9  O   UNL d   1      33.071  20.026 -21.024  0.00  0.00    -0.251 OA
BRANCH   8  10
ATOM     10  C   UNL d   1      33.235  21.417 -20.648  0.00  0.00     0.082 C 
BRANCH  10  11
ATOM     11  C   UNL d   1      32.540  21.747 -20.308  0.00  0.00     0.076 C 
BRANCH  11  12
ATOM     12  C   UNL d   1      32.600  22.353 -19.739  0.00  0.00     0.211 C 
ATOM     13  O   UNL d   1      32.186  23.069 -19.864  0.00  0.00    -0.644 OA
ATOM     14  O   UNL d   1      33.066  22.236 -19.064  0.00  0.00    -0.644 OA
ENDBRANCH  11  12
ENDBRANCH  10  11
ENDBRANCH   8  10
ENDBRANCH   6   7
ENDBRANCH   2   6
BRANCH   4  15
ATOM     15  C   UNL d   1      32.737  21.847 -24.312  0.00  0.00     0.020 A 
ATOM     16  C   UNL d   1      32.300  22.357 -23.860  0.00  0.00     0.008 A 
ATOM     17  C   UNL d   1      32.324  23.162 -24.017  0.00  0.00     0.035 A 
ATOM     18 BR   UNL d   1      31.886  23.683 -23.565  0.00  0.00    -0.049 Br
ATOM     19  C   UNL d   1      32.800  23.442 -24.640  0.00  0.00     0.007 A 
ATOM     20  C   UNL d   1      33.241  22.924 -25.097  0.00  0.00     0.001 A 
ATOM     21  C   UNL d   1      33.210  22.126 -24.933  0.00  0.00     0.002 A 
ENDBRANCH   4  15
BRANCH   3  22
ATOM     22  C   UNL d   1      32.555  18.609 -23.926  0.00  0.00     0.083 A 
ATOM     23  C   UNL d   1      32.002  18.317 -24.459  0.00  0.00     0.019 A 
ATOM     24  C   UNL d   1      31.896  17.498 -24.517  0.00  0.00     0.002 A 
ATOM     25  C   UNL d   1      32.339  16.987 -24.046  0.00  0.00     0.000 A 
ATOM     26  C   UNL d   1      32.891  17.292 -23.514  0.00  0.00     0.002 A 
ATOM     27  C   UNL d   1      32.995  18.103 -23.457  0.00  0.00     0.019 A 
ENDBRANCH   3  22
TORSDOF 7
ENDMDL
