MODEL 1
REMARK VINA RESULT:      34.6      0.000      0.000
REMARK  7 active torsions:
REMARK  status: ('A' for Active; 'I' for Inactive)
REMARK    1  A    between atoms: C_11  and  C_3 
REMARK    2  A    between atoms: C_10  and  C_4 
REMARK    3  A    between atoms: O_16  and  C_10 
REMARK    4  A    between atoms: N_15  and  C_11 
REMARK    5  A    between atoms: C_21  and  N_15 
REMARK    6  A    between atoms: C_23  and  O_16 
REMARK    7  A    between atoms: C_18  and  C_21 
ROOT
ATOM      1  C   UNL d   1      46.496 -18.393  42.325  0.00  0.00     0.035 A 
ATOM      2  C   UNL d   1      46.553 -19.182  42.555  0.00  0.00     0.100 A 
ATOM      3  C   UNL d   1      46.454 -17.793  42.890  0.00  0.00     0.060 A 
ATOM      4  C   UNL d   1      46.494 -18.372  41.495  0.00  0.00     0.088 A 
ATOM      5  O   UNL d   1      46.584 -19.639  41.877  0.00  0.00    -0.307 OA
ATOM      6  C   UNL d   1      46.548 -19.141  41.258  0.00  0.00     0.105 A 
ATOM      7  C   UNL d   1      46.468 -17.977  43.691  0.00  0.00     0.197 A 
ATOM      8  C   UNL d   1      46.566 -19.360  43.355  0.00  0.00     0.026 A 
ATOM      9  C   UNL d   1      46.524 -18.760  43.920  0.00  0.00     0.041 A 
ATOM     10  O   UNL d   1      46.426 -17.381  44.253  0.00  0.00    -0.286 OA
ATOM     11  C   UNL d   1      46.565 -19.384  40.447  0.00  0.00     0.027 C 
ATOM     12  C   UNL d   1      46.623 -20.153  43.589  0.00  0.00     0.002 A 
ATOM     13  C   UNL d   1      46.538 -18.947  44.726  0.00  0.00     0.003 A 
ATOM     14  C   UNL d   1      46.594 -19.730  44.955  0.00  0.00     0.000 A 
ATOM     15  C   UNL d   1      46.636 -20.330  44.390  0.00  0.00     0.000 A 
ENDROOT
BRANCH   3  16
ATOM     16  C   UNL d   1      46.396 -16.975  42.662  0.00  0.00     0.102 C 
BRANCH  16  17
ATOM     17  N   UNL d   1      46.369 -16.367  43.234  0.00  0.00    -0.241 NA
BRANCH  17  18
ATOM     18  C   UNL d   1      45.649 -16.134  43.538  0.00  0.00     0.118 C 
BRANCH  18  19
ATOM     19  C   UNL d   1      45.575 -15.376  43.890  0.00  0.00     0.101 A 
ATOM     20  N   UNL d   1      44.894 -15.167  44.296  0.00  0.00    -0.242 NA
ATOM     21  C   UNL d   1      44.822 -14.421  44.642  0.00  0.00     0.099 A 
ATOM     22  C   UNL d   1      45.430 -13.877  44.586  0.00  0.00     0.021 A 
ATOM     23  C   UNL d   1      46.116 -14.082  44.181  0.00  0.00     0.003 A 
ATOM     24  C   UNL d   1      46.188 -14.827  43.834  0.00  0.00     0.021 A 
ENDBRANCH  18  19
ENDBRANCH  17  18
ENDBRANCH  16  17
ENDBRANCH   3  16
BRANCH   4  25
ATOM     25  C   UNL d   1      46.445 -17.699  40.973  0.00  0.00     0.302 C 
ATOM     26  O   UNL d   1      46.633 -16.953  41.266  0.00  0.00    -0.259 OA
BRANCH  25  27
ATOM     27  O   UNL d   1      46.222 -17.797  40.215  0.00  0.00    -0.271 OA
BRANCH  27  28
ATOM     28  C   UNL d   1      46.020 -17.152  39.746  0.00  0.00     0.126 C 
ATOM     29  C   UNL d   1      45.602 -17.261  39.035  0.00  0.00     0.029 C 
ENDBRANCH  27  28
ENDBRANCH  25  27
ENDBRANCH   4  25
TORSDOF 7
ENDMDL
