MODEL 1
REMARK VINA RESULT:      -8.3      0.000      0.000
REMARK  7 active torsions:
REMARK  status: ('A' for Active; 'I' for Inactive)
REMARK    1  A    between atoms: C_3  and  C_1 
REMARK    2  A    between atoms: C_4  and  C_1 
REMARK    3  A    between atoms: C_2  and  C_5 
REMARK    4  A    between atoms: O_14  and  C_2 
REMARK    5  A    between atoms: C_6  and  C_3 
REMARK    6  A    between atoms: C_13  and  C_4 
REMARK    7  A    between atoms: O_20  and  C_15 
ROOT
ATOM      1  C   UNL d   1      52.457  32.515  52.957  0.00  0.00     0.042 C 
ENDROOT
BRANCH   1   2
ATOM      2  C   UNL d   1      53.186  32.173  53.143  0.00  0.00     0.196 C 
ATOM      3  O   UNL d   1      53.878  32.619  53.111  0.00  0.00    -0.287 OA
BRANCH   2   4
ATOM      4  C   UNL d   1      53.216  31.380  53.360  0.00  0.00     0.039 A 
ATOM      5  C   UNL d   1      52.863  30.802  52.877  0.00  0.00     0.005 A 
ATOM      6  C   UNL d   1      52.894  30.006  53.097  0.00  0.00     0.024 A 
ATOM      7  C   UNL d   1      53.277  29.792  53.798  0.00  0.00     0.094 A 
ATOM      8  C   UNL d   1      53.626  30.365  54.277  0.00  0.00     0.024 A 
ATOM      9  C   UNL d   1      53.596  31.158  54.059  0.00  0.00     0.005 A 
BRANCH   7  10
ATOM     10  O   UNL d   1      53.306  29.000  54.016  0.00  0.00    -0.328 OA
ATOM     11  C   UNL d   1      53.299  28.788  54.817  0.00  0.00     0.181 C 
ENDBRANCH   7  10
ENDBRANCH   2   4
ENDBRANCH   1   2
BRANCH   1  12
ATOM     12  C   UNL d   1      52.375  33.340  52.976  0.00  0.00     0.003 C 
BRANCH  12  13
ATOM     13  C   UNL d   1      51.652  33.687  52.794  0.00  0.00     0.000 A 
ATOM     14  C   UNL d   1      51.551  34.049  52.069  0.00  0.00     0.000 A 
ATOM     15  C   UNL d   1      50.828  34.399  51.879  0.00  0.00     0.005 A 
ATOM     16  C   UNL d   1      50.203  34.383  52.429  0.00  0.00     0.063 A 
ATOM     17  C   UNL d   1      50.312  34.016  53.159  0.00  0.00     0.005 A 
ATOM     18  C   UNL d   1      51.034  33.669  53.342  0.00  0.00     0.000 A 
BRANCH  16  19
ATOM     19  C   UNL d   1      49.480  34.730  52.246  0.00  0.00     0.296 C 
ATOM     20  O   UNL d   1      49.111  35.226  52.791  0.00  0.00    -0.259 OA
BRANCH  19  21
ATOM     21  O   UNL d   1      49.126  34.581  51.518  0.00  0.00    -0.296 OA
ATOM     22  C   UNL d   1      48.382  34.890  51.343  0.00  0.00     0.185 C 
ENDBRANCH  19  21
ENDBRANCH  16  19
ENDBRANCH  12  13
ENDBRANCH   1  12
TORSDOF 7
ENDMDL
MODEL 2
REMARK VINA RESULT:      -7.8      0.779      5.291
REMARK  7 active torsions:
REMARK  status: ('A' for Active; 'I' for Inactive)
REMARK    1  A    between atoms: C_3  and  C_1 
REMARK    2  A    between atoms: C_4  and  C_1 
REMARK    3  A    between atoms: C_2  and  C_5 
REMARK    4  A    between atoms: O_14  and  C_2 
REMARK    5  A    between atoms: C_6  and  C_3 
REMARK    6  A    between atoms: C_13  and  C_4 
REMARK    7  A    between atoms: O_20  and  C_15 
ROOT
ATOM      1  C   UNL d   1      52.008  33.260  52.927  0.00  0.00     0.042 C 
ENDROOT
BRANCH   1   2
ATOM      2  C   UNL d   1      51.829  34.044  52.739  0.00  0.00     0.196 C 
ATOM      3  O   UNL d   1      52.407  34.629  52.786  0.00  0.00    -0.287 OA
BRANCH   2   4
ATOM      4  C   UNL d   1      51.064  34.237  52.504  0.00  0.00     0.039 A 
ATOM      5  C   UNL d   1      50.501  34.473  53.069  0.00  0.00     0.005 A 
ATOM      6  C   UNL d   1      49.735  34.667  52.831  0.00  0.00     0.024 A 
ATOM      7  C   UNL d   1      49.534  34.624  52.030  0.00  0.00     0.094 A 
ATOM      8  C   UNL d   1      50.091  34.390  51.470  0.00  0.00     0.024 A 
ATOM      9  C   UNL d   1      50.855  34.197  51.706  0.00  0.00     0.005 A 
BRANCH   7  10
ATOM     10  O   UNL d   1      48.770  34.818  51.795  0.00  0.00    -0.328 OA
ATOM     11  C   UNL d   1      48.542  34.726  51.003  0.00  0.00     0.181 C 
ENDBRANCH   7  10
ENDBRANCH   2   4
ENDBRANCH   1   2
BRANCH   1  12
ATOM     12  C   UNL d   1      52.801  33.028  53.003  0.00  0.00     0.003 C 
BRANCH  12  13
ATOM     13  C   UNL d   1      52.987  32.252  53.205  0.00  0.00     0.000 A 
ATOM     14  C   UNL d   1      53.532  32.111  53.796  0.00  0.00     0.000 A 
ATOM     15  C   UNL d   1      53.723  31.335  54.005  0.00  0.00     0.005 A 
ATOM     16  C   UNL d   1      53.358  30.699  53.610  0.00  0.00     0.063 A 
ATOM     17  C   UNL d   1      52.809  30.849  53.015  0.00  0.00     0.005 A 
ATOM     18  C   UNL d   1      52.623  31.624  52.812  0.00  0.00     0.000 A 
BRANCH  16  19
ATOM     19  C   UNL d   1      53.544  29.924  53.813  0.00  0.00     0.296 C 
ATOM     20  O   UNL d   1      54.219  29.567  53.503  0.00  0.00    -0.259 OA
BRANCH  19  21
ATOM     21  O   UNL d   1      53.055  29.505  54.326  0.00  0.00    -0.296 OA
ATOM     22  C   UNL d   1      53.313  28.803  54.671  0.00  0.00     0.185 C 
ENDBRANCH  19  21
ENDBRANCH  16  19
ENDBRANCH  12  13
ENDBRANCH   1  12
TORSDOF 7
ENDMDL
MODEL 3
REMARK VINA RESULT:      -7.2      2.191      5.879
REMARK  7 active torsions:
REMARK  status: ('A' for Active; 'I' for Inactive)
REMARK    1  A    between atoms: C_3  and  C_1 
REMARK    2  A    between atoms: C_4  and  C_1 
REMARK    3  A    between atoms: C_2  and  C_5 
REMARK    4  A    between atoms: O_14  and  C_2 
REMARK    5  A    between atoms: C_6  and  C_3 
REMARK    6  A    between atoms: C_13  and  C_4 
REMARK    7  A    between atoms: O_20  and  C_15 
ROOT
ATOM      1  C   UNL d   1      50.003  34.624  52.597  0.00  0.00     0.042 C 
ENDROOT
BRANCH   1   2
ATOM      2  C   UNL d   1      49.346  34.721  52.105  0.00  0.00     0.196 C 
ATOM      3  O   UNL d   1      49.301  34.326  51.383  0.00  0.00    -0.287 OA
BRANCH   2   4
ATOM      4  C   UNL d   1      48.734  35.217  52.342  0.00  0.00     0.039 A 
ATOM      5  C   UNL d   1      48.719  35.520  53.117  0.00  0.00     0.005 A 
ATOM      6  C   UNL d   1      48.104  36.018  53.353  0.00  0.00     0.024 A 
ATOM      7  C   UNL d   1      47.507  36.211  52.815  0.00  0.00     0.094 A 
ATOM      8  C   UNL d   1      47.522  35.912  52.048  0.00  0.00     0.024 A 
ATOM      9  C   UNL d   1      48.133  35.416  51.811  0.00  0.00     0.005 A 
BRANCH   7  10
ATOM     10  O   UNL d   1      46.896  36.707  53.052  0.00  0.00    -0.328 OA
ATOM     11  C   UNL d   1      46.205  36.387  53.382  0.00  0.00     0.181 C 
ENDBRANCH   7  10
ENDBRANCH   2   4
ENDBRANCH   1   2
BRANCH   1  12
ATOM     12  C   UNL d   1      50.662  34.203  52.322  0.00  0.00     0.003 C 
BRANCH  12  13
ATOM     13  C   UNL d   1      51.320  34.103  52.807  0.00  0.00     0.000 A 
ATOM     14  C   UNL d   1      51.366  33.448  53.290  0.00  0.00     0.000 A 
ATOM     15  C   UNL d   1      52.023  33.341  53.779  0.00  0.00     0.005 A 
ATOM     16  C   UNL d   1      52.637  33.904  53.776  0.00  0.00     0.063 A 
ATOM     17  C   UNL d   1      52.583  34.563  53.285  0.00  0.00     0.005 A 
ATOM     18  C   UNL d   1      51.926  34.664  52.801  0.00  0.00     0.000 A 
BRANCH  16  19
ATOM     19  C   UNL d   1      53.294  33.804  54.261  0.00  0.00     0.296 C 
ATOM     20  O   UNL d   1      53.344  34.207  54.978  0.00  0.00    -0.259 OA
BRANCH  19  21
ATOM     21  O   UNL d   1      53.902  33.301  54.028  0.00  0.00    -0.296 OA
ATOM     22  C   UNL d   1      54.553  33.174  54.518  0.00  0.00     0.185 C 
ENDBRANCH  19  21
ENDBRANCH  16  19
ENDBRANCH  12  13
ENDBRANCH   1  12
TORSDOF 7
ENDMDL
MODEL 4
REMARK VINA RESULT:      -7.1      2.526      3.279
REMARK  7 active torsions:
REMARK  status: ('A' for Active; 'I' for Inactive)
REMARK    1  A    between atoms: C_3  and  C_1 
REMARK    2  A    between atoms: C_4  and  C_1 
REMARK    3  A    between atoms: C_2  and  C_5 
REMARK    4  A    between atoms: O_14  and  C_2 
REMARK    5  A    between atoms: C_6  and  C_3 
REMARK    6  A    between atoms: C_13  and  C_4 
REMARK    7  A    between atoms: O_20  and  C_15 
ROOT
ATOM      1  C   UNL d   1      50.822  34.392  52.691  0.00  0.00     0.042 C 
ENDROOT
BRANCH   1   2
ATOM      2  C   UNL d   1      51.572  34.051  52.628  0.00  0.00     0.196 C 
ATOM      3  O   UNL d   1      51.775  33.605  51.965  0.00  0.00    -0.287 OA
BRANCH   2   4
ATOM      4  C   UNL d   1      52.117  34.159  53.234  0.00  0.00     0.039 A 
ATOM      5  C   UNL d   1      52.521  34.883  53.307  0.00  0.00     0.005 A 
ATOM      6  C   UNL d   1      53.068  34.990  53.917  0.00  0.00     0.024 A 
ATOM      7  C   UNL d   1      53.209  34.375  54.451  0.00  0.00     0.094 A 
ATOM      8  C   UNL d   1      52.808  33.658  54.379  0.00  0.00     0.024 A 
ATOM      9  C   UNL d   1      52.263  33.550  53.772  0.00  0.00     0.005 A 
BRANCH   7  10
ATOM     10  O   UNL d   1      53.753  34.484  55.056  0.00  0.00    -0.328 OA
ATOM     11  C   UNL d   1      54.403  33.973  55.129  0.00  0.00     0.181 C 
ENDBRANCH   7  10
ENDBRANCH   2   4
ENDBRANCH   1   2
BRANCH   1  12
ATOM     12  C   UNL d   1      50.219  34.156  52.173  0.00  0.00     0.003 C 
BRANCH  12  13
ATOM     13  C   UNL d   1      49.524  34.593  52.121  0.00  0.00     0.000 A 
ATOM     14  C   UNL d   1      49.100  34.592  51.424  0.00  0.00     0.000 A 
ATOM     15  C   UNL d   1      48.401  35.028  51.366  0.00  0.00     0.005 A 
ATOM     16  C   UNL d   1      48.131  35.468  52.020  0.00  0.00     0.063 A 
ATOM     17  C   UNL d   1      48.565  35.463  52.720  0.00  0.00     0.005 A 
ATOM     18  C   UNL d   1      49.260  35.027  52.772  0.00  0.00     0.000 A 
BRANCH  16  19
ATOM     19  C   UNL d   1      47.436  35.905  51.968  0.00  0.00     0.296 C 
ATOM     20  O   UNL d   1      47.419  36.685  52.231  0.00  0.00    -0.259 OA
BRANCH  19  21
ATOM     21  O   UNL d   1      46.758  35.560  51.654  0.00  0.00    -0.296 OA
ATOM     22  C   UNL d   1      46.043  35.970  51.650  0.00  0.00     0.185 C 
ENDBRANCH  19  21
ENDBRANCH  16  19
ENDBRANCH  12  13
ENDBRANCH   1  12
TORSDOF 7
ENDMDL
MODEL 5
REMARK VINA RESULT:      -6.9      2.061      2.704
REMARK  7 active torsions:
REMARK  status: ('A' for Active; 'I' for Inactive)
REMARK    1  A    between atoms: C_3  and  C_1 
REMARK    2  A    between atoms: C_4  and  C_1 
REMARK    3  A    between atoms: C_2  and  C_5 
REMARK    4  A    between atoms: O_14  and  C_2 
REMARK    5  A    between atoms: C_6  and  C_3 
REMARK    6  A    between atoms: C_13  and  C_4 
REMARK    7  A    between atoms: O_20  and  C_15 
ROOT
ATOM      1  C   UNL d   1      52.891  32.013  53.262  0.00  0.00     0.042 C 
ENDROOT
BRANCH   1   2
ATOM      2  C   UNL d   1      52.817  31.293  52.865  0.00  0.00     0.196 C 
ATOM      3  O   UNL d   1      52.619  31.274  52.065  0.00  0.00    -0.287 OA
BRANCH   2   4
ATOM      4  C   UNL d   1      52.942  30.591  53.275  0.00  0.00     0.039 A 
ATOM      5  C   UNL d   1      53.678  30.444  53.635  0.00  0.00     0.005 A 
ATOM      6  C   UNL d   1      53.802  29.739  54.046  0.00  0.00     0.024 A 
ATOM      7  C   UNL d   1      53.191  29.184  54.097  0.00  0.00     0.094 A 
ATOM      8  C   UNL d   1      52.462  29.330  53.742  0.00  0.00     0.024 A 
ATOM      9  C   UNL d   1      52.337  30.032  53.331  0.00  0.00     0.005 A 
BRANCH   7  10
ATOM     10  O   UNL d   1      53.316  28.483  54.508  0.00  0.00    -0.328 OA
ATOM     11  C   UNL d   1      53.435  28.496  55.328  0.00  0.00     0.181 C 
ENDBRANCH   7  10
ENDBRANCH   2   4
ENDBRANCH   1   2
BRANCH   1  12
ATOM     12  C   UNL d   1      52.599  32.707  52.912  0.00  0.00     0.003 C 
BRANCH  12  13
ATOM     13  C   UNL d   1      52.733  33.437  53.267  0.00  0.00     0.000 A 
ATOM     14  C   UNL d   1      53.241  33.487  53.904  0.00  0.00     0.000 A 
ATOM     15  C   UNL d   1      53.380  34.216  54.265  0.00  0.00     0.005 A 
ATOM     16  C   UNL d   1      53.000  34.899  53.977  0.00  0.00     0.063 A 
ATOM     17  C   UNL d   1      52.489  34.841  53.334  0.00  0.00     0.005 A 
ATOM     18  C   UNL d   1      52.354  34.112  52.979  0.00  0.00     0.000 A 
BRANCH  16  19
ATOM     19  C   UNL d   1      53.134  35.629  54.332  0.00  0.00     0.296 C 
ATOM     20  O   UNL d   1      53.852  36.018  54.219  0.00  0.00    -0.259 OA
BRANCH  19  21
ATOM     21  O   UNL d   1      52.551  35.971  54.801  0.00  0.00    -0.296 OA
ATOM     22  C   UNL d   1      52.697  36.670  55.211  0.00  0.00     0.185 C 
ENDBRANCH  19  21
ENDBRANCH  16  19
ENDBRANCH  12  13
ENDBRANCH   1  12
TORSDOF 7
ENDMDL
