MODEL 1
REMARK VINA RESULT:       3.5      0.000      0.000
REMARK  1 active torsions:
REMARK  status: ('A' for Active; 'I' for Inactive)
REMARK    1  A    between atoms: C_4  and  C_1 
REMARK       I    between atoms: N_5  and  C_1 
ROOT
ATOM      1  N   UNL d   1     -50.536  24.108  33.306  0.00  0.00    -0.242 NA
ATOM      2  C   UNL d   1     -52.184  24.263  33.324  0.00  0.00     0.062 A 
ATOM      3  C   UNL d   1     -50.887  24.856  33.306  0.00  0.00     0.099 A 
ATOM      4  C   UNL d   1     -51.020  23.436  33.315  0.00  0.00     0.099 A 
ATOM      5  C   UNL d   1     -51.842  23.512  33.324  0.00  0.00     0.025 A 
ATOM      6  C   UNL d   1     -51.709  24.933  33.315  0.00  0.00     0.025 A 
ENDROOT
BRANCH   2   7
ATOM      7  C   UNL d   1     -52.626  24.378  33.328  0.00  0.00     0.298 C 
ATOM      8  O   UNL d   1     -52.949  25.031  33.345  0.00  0.00    -0.264 OA
ATOM      9  N   UNL d   1     -53.161  23.831  33.317  0.00  0.00    -0.085 NA
ATOM     10  N   UNL d   1     -52.836  23.403  33.306  0.00  0.00    -0.019 N 
ENDBRANCH   2   7
TORSDOF 1
ENDMDL
MODEL 2
REMARK VINA RESULT:       3.9      0.983      1.320
REMARK  1 active torsions:
REMARK  status: ('A' for Active; 'I' for Inactive)
REMARK    1  A    between atoms: C_4  and  C_1 
REMARK       I    between atoms: N_5  and  C_1 
ROOT
ATOM      1  N   UNL d   1     -51.531  25.806  33.361  0.00  0.00    -0.242 NA
ATOM      2  C   UNL d   1     -52.112  24.257  33.328  0.00  0.00     0.062 A 
ATOM      3  C   UNL d   1     -52.344  25.663  33.383  0.00  0.00     0.099 A 
ATOM      4  C   UNL d   1     -51.009  25.164  33.322  0.00  0.00     0.099 A 
ATOM      5  C   UNL d   1     -51.298  24.391  33.306  0.00  0.00     0.025 A 
ATOM      6  C   UNL d   1     -52.634  24.891  33.367  0.00  0.00     0.025 A 
ENDROOT
BRANCH   2   7
ATOM      7  C   UNL d   1     -52.339  23.861  33.322  0.00  0.00     0.298 C 
ATOM      8  O   UNL d   1     -53.054  23.721  33.319  0.00  0.00    -0.264 OA
ATOM      9  N   UNL d   1     -51.951  23.201  33.315  0.00  0.00    -0.085 NA
ATOM     10  N   UNL d   1     -51.453  23.402  33.319  0.00  0.00    -0.019 N 
ENDBRANCH   2   7
TORSDOF 1
ENDMDL
MODEL 3
REMARK VINA RESULT:       4.2      1.569      2.077
REMARK  1 active torsions:
REMARK  status: ('A' for Active; 'I' for Inactive)
REMARK    1  A    between atoms: C_4  and  C_1 
REMARK       I    between atoms: N_5  and  C_1 
ROOT
ATOM      1  N   UNL d   1     -51.390  23.860  33.332  0.00  0.00    -0.242 NA
ATOM      2  C   UNL d   1     -51.090  25.487  33.315  0.00  0.00     0.062 A 
ATOM      3  C   UNL d   1     -50.614  24.143  33.331  0.00  0.00     0.099 A 
ATOM      4  C   UNL d   1     -52.017  24.402  33.326  0.00  0.00     0.099 A 
ATOM      5  C   UNL d   1     -51.867  25.213  33.317  0.00  0.00     0.025 A 
ATOM      6  C   UNL d   1     -50.464  24.954  33.322  0.00  0.00     0.025 A 
ENDROOT
BRANCH   2   7
ATOM      7  C   UNL d   1     -50.935  25.917  33.311  0.00  0.00     0.298 C 
ATOM      8  O   UNL d   1     -50.256  26.180  33.307  0.00  0.00    -0.264 OA
ATOM      9  N   UNL d   1     -51.433  26.498  33.306  0.00  0.00    -0.085 NA
ATOM     10  N   UNL d   1     -51.888  26.213  33.309  0.00  0.00    -0.019 N 
ENDBRANCH   2   7
TORSDOF 1
ENDMDL
