MODEL 1
REMARK VINA RESULT:      26.8      0.000      0.000
REMARK  4 active torsions:
REMARK  status: ('A' for Active; 'I' for Inactive)
REMARK    1  A    between atoms: C_6  and  C_1 
REMARK    2  A    between atoms: C_4  and  C_2 
REMARK    3  A    between atoms: C_3  and  N_5 
REMARK    4  A    between atoms: N_5  and  C_7 
ROOT
ATOM      1  C   UNL d   1      60.457  49.383  51.016  0.00  0.00     0.073 A 
ATOM      2  C   UNL d   1      59.100  49.608  50.653  0.00  0.00     0.081 A 
ATOM      3  C   UNL d   1      59.667  49.445  51.228  0.00  0.00     0.023 A 
ATOM      4  C   UNL d   1      60.682  49.482  50.236  0.00  0.00     0.004 A 
ATOM      5  C   UNL d   1      60.112  49.645  49.659  0.00  0.00     0.002 A 
ATOM      6  C   UNL d   1      59.323  49.708  49.867  0.00  0.00     0.019 A 
ENDROOT
BRANCH   2   7
ATOM      7  N   UNL d   1      58.308  49.671  50.859  0.00  0.00    -0.245 NA
BRANCH   7   8
ATOM      8  C   UNL d   1      57.729  49.561  50.279  0.00  0.00     0.087 A 
ATOM      9  C   UNL d   1      56.960  49.344  50.500  0.00  0.00     0.082 A 
ATOM     10  C   UNL d   1      56.379  49.233  49.925  0.00  0.00     0.008 A 
ATOM     11  C   UNL d   1      56.562  49.338  49.125  0.00  0.00     0.000 A 
ATOM     12  C   UNL d   1      57.326  49.554  48.900  0.00  0.00     0.002 A 
ATOM     13  C   UNL d   1      57.912  49.666  49.476  0.00  0.00     0.019 A 
BRANCH   9  14
ATOM     14  C   UNL d   1      56.773  49.238  51.307  0.00  0.00     0.212 C 
ATOM     15  O   UNL d   1      56.190  49.706  51.648  0.00  0.00    -0.644 OA
ATOM     16  O   UNL d   1      57.172  48.671  51.744  0.00  0.00    -0.644 OA
ENDBRANCH   9  14
ENDBRANCH   7   8
ENDBRANCH   2   7
BRANCH   1  17
ATOM     17  C   UNL d   1      61.025  49.221  51.591  0.00  0.00     0.419 C 
ATOM     18  F   UNL d   1      60.908  49.470  52.375  0.00  0.00    -0.166 F 
ATOM     19  F   UNL d   1      61.715  48.808  51.391  0.00  0.00    -0.166 F 
ATOM     20  F   UNL d   1      61.451  49.164  52.298  0.00  0.00    -0.166 F 
ENDBRANCH   1  17
TORSDOF 4
ENDMDL
