MODEL 1
REMARK VINA RESULT:      -4.9      0.000      0.000
REMARK  2 active torsions:
REMARK  status: ('A' for Active; 'I' for Inactive)
REMARK       I    between atoms: C_3  and  N_1 
REMARK    1  A    between atoms: C_6  and  C_3 
REMARK    2  A    between atoms: O_16  and  C_11 
ROOT
ATOM      1  N   UNL d   1      58.111   0.246  31.063  0.00  0.00    -0.175 N 
ATOM      2  N   UNL d   1      58.494   0.482  31.752  0.00  0.00    -0.057 NA
ATOM      3  C   UNL d   1      57.327   0.001  31.004  0.00  0.00     0.282 C 
ATOM      4  N   UNL d   1      59.268   0.681  31.568  0.00  0.00    -0.129 NA
ATOM      5  C   UNL d   1      58.667   0.303  30.445  0.00  0.00     0.107 A 
ATOM      6  C   UNL d   1      59.370   0.568  30.751  0.00  0.00     0.122 A 
ATOM      7  O   UNL d   1      57.021  -0.219  30.275  0.00  0.00    -0.265 OA
ATOM      8  C   UNL d   1      58.607   0.143  29.639  0.00  0.00     0.021 A 
ATOM      9  C   UNL d   1      60.034   0.679  30.254  0.00  0.00     0.022 A 
ATOM     10  C   UNL d   1      59.250   0.246  29.136  0.00  0.00     0.002 A 
ATOM     11  C   UNL d   1      59.976   0.518  29.445  0.00  0.00     0.002 A 
ENDROOT
BRANCH   3  12
ATOM     12  C   UNL d   1      56.854  -0.022  31.678  0.00  0.00     0.059 A 
ATOM     13  C   UNL d   1      56.630  -0.738  32.009  0.00  0.00     0.013 A 
ATOM     14  C   UNL d   1      56.155  -0.767  32.685  0.00  0.00     0.057 A 
ATOM     15 BR   UNL d   1      55.934  -1.490  33.012  0.00  0.00    -0.047 Br
ATOM     16  C   UNL d   1      55.900  -0.062  33.036  0.00  0.00     0.100 A 
ATOM     17  C   UNL d   1      56.122   0.661  32.707  0.00  0.00     0.025 A 
ATOM     18  C   UNL d   1      56.598   0.679  32.029  0.00  0.00     0.007 A 
BRANCH  16  19
ATOM     19  O   UNL d   1      55.421  -0.067  33.718  0.00  0.00    -0.328 OA
ATOM     20  C   UNL d   1      55.009   0.617  33.946  0.00  0.00     0.181 C 
ENDBRANCH  16  19
ENDBRANCH   3  12
TORSDOF 2
ENDMDL
MODEL 2
REMARK VINA RESULT:      -4.5      1.292      1.521
REMARK  2 active torsions:
REMARK  status: ('A' for Active; 'I' for Inactive)
REMARK       I    between atoms: C_3  and  N_1 
REMARK    1  A    between atoms: C_6  and  C_3 
REMARK    2  A    between atoms: O_16  and  C_11 
ROOT
ATOM      1  N   UNL d   1      57.403  -0.374  31.096  0.00  0.00    -0.175 N 
ATOM      2  N   UNL d   1      57.392   0.447  31.040  0.00  0.00    -0.057 NA
ATOM      3  C   UNL d   1      57.054  -0.823  31.693  0.00  0.00     0.282 C 
ATOM      4  N   UNL d   1      57.802   0.669  30.365  0.00  0.00    -0.129 NA
ATOM      5  C   UNL d   1      57.830  -0.657  30.439  0.00  0.00     0.107 A 
ATOM      6  C   UNL d   1      58.073  -0.024  29.994  0.00  0.00     0.122 A 
ATOM      7  O   UNL d   1      57.111  -1.642  31.674  0.00  0.00    -0.265 OA
ATOM      8  C   UNL d   1      58.022  -1.422  30.200  0.00  0.00     0.021 A 
ATOM      9  C   UNL d   1      58.517  -0.141  29.295  0.00  0.00     0.022 A 
ATOM     10  C   UNL d   1      58.458  -1.556  29.515  0.00  0.00     0.002 A 
ATOM     11  C   UNL d   1      58.712  -0.908  29.053  0.00  0.00     0.002 A 
ENDROOT
BRANCH   3  12
ATOM     12  C   UNL d   1      56.651  -0.448  32.304  0.00  0.00     0.059 A 
ATOM     13  C   UNL d   1      57.060  -0.072  32.908  0.00  0.00     0.013 A 
ATOM     14  C   UNL d   1      56.660   0.306  33.525  0.00  0.00     0.057 A 
ATOM     15 BR   UNL d   1      57.077   0.682  34.128  0.00  0.00    -0.047 Br
ATOM     16  C   UNL d   1      55.832   0.307  33.535  0.00  0.00     0.100 A 
ATOM     17  C   UNL d   1      55.416  -0.070  32.931  0.00  0.00     0.025 A 
ATOM     18  C   UNL d   1      55.826  -0.446  32.318  0.00  0.00     0.007 A 
BRANCH  16  19
ATOM     19  O   UNL d   1      55.408   0.682  34.147  0.00  0.00    -0.328 OA
ATOM     20  C   UNL d   1      54.578   0.667  34.152  0.00  0.00     0.181 C 
ENDBRANCH  16  19
ENDBRANCH   3  12
TORSDOF 2
ENDMDL
MODEL 3
REMARK VINA RESULT:      -4.5      1.711      4.126
REMARK  2 active torsions:
REMARK  status: ('A' for Active; 'I' for Inactive)
REMARK       I    between atoms: C_3  and  N_1 
REMARK    1  A    between atoms: C_6  and  C_3 
REMARK    2  A    between atoms: O_16  and  C_11 
ROOT
ATOM      1  N   UNL d   1      57.169  -0.327  31.675  0.00  0.00    -0.175 N 
ATOM      2  N   UNL d   1      57.313   0.465  31.845  0.00  0.00    -0.057 NA
ATOM      3  C   UNL d   1      57.515  -0.762  31.067  0.00  0.00     0.282 C 
ATOM      4  N   UNL d   1      56.857   0.682  32.491  0.00  0.00    -0.129 NA
ATOM      5  C   UNL d   1      56.612  -0.597  32.232  0.00  0.00     0.107 A 
ATOM      6  C   UNL d   1      56.421   0.015  32.729  0.00  0.00     0.122 A 
ATOM      7  O   UNL d   1      57.316  -1.552  30.965  0.00  0.00    -0.265 OA
ATOM      8  C   UNL d   1      56.259  -1.334  32.339  0.00  0.00     0.021 A 
ATOM      9  C   UNL d   1      55.870  -0.096  33.348  0.00  0.00     0.022 A 
ATOM     10  C   UNL d   1      55.715  -1.462  32.943  0.00  0.00     0.002 A 
ATOM     11  C   UNL d   1      55.515  -0.835  33.457  0.00  0.00     0.002 A 
ENDROOT
BRANCH   3  12
ATOM     12  C   UNL d   1      58.059  -0.402  30.564  0.00  0.00     0.059 A 
ATOM     13  C   UNL d   1      57.814  -0.048  29.867  0.00  0.00     0.013 A 
ATOM     14  C   UNL d   1      58.356   0.315  29.358  0.00  0.00     0.057 A 
ATOM     15 BR   UNL d   1      58.103   0.670  28.659  0.00  0.00    -0.047 Br
ATOM     16  C   UNL d   1      59.160   0.322  29.555  0.00  0.00     0.100 A 
ATOM     17  C   UNL d   1      59.411  -0.034  30.255  0.00  0.00     0.025 A 
ATOM     18  C   UNL d   1      58.861  -0.395  30.757  0.00  0.00     0.007 A 
BRANCH  16  19
ATOM     19  O   UNL d   1      59.724   0.682  29.057  0.00  0.00    -0.328 OA
ATOM     20  C   UNL d   1      60.534   0.609  29.220  0.00  0.00     0.181 C 
ENDBRANCH  16  19
ENDBRANCH   3  12
TORSDOF 2
ENDMDL
MODEL 4
REMARK VINA RESULT:      -4.4      1.889      4.248
REMARK  2 active torsions:
REMARK  status: ('A' for Active; 'I' for Inactive)
REMARK       I    between atoms: C_3  and  N_1 
REMARK    1  A    between atoms: C_6  and  C_3 
REMARK    2  A    between atoms: O_16  and  C_11 
ROOT
ATOM      1  N   UNL d   1      57.006  -0.428  31.781  0.00  0.00    -0.175 N 
ATOM      2  N   UNL d   1      56.665  -1.101  31.453  0.00  0.00    -0.057 NA
ATOM      3  C   UNL d   1      57.611   0.021  31.446  0.00  0.00     0.282 C 
ATOM      4  N   UNL d   1      56.085  -1.377  31.963  0.00  0.00    -0.129 NA
ATOM      5  C   UNL d   1      56.623  -0.292  32.508  0.00  0.00     0.107 A 
ATOM      6  C   UNL d   1      56.063  -0.868  32.620  0.00  0.00     0.122 A 
ATOM      7  O   UNL d   1      57.895   0.682  31.841  0.00  0.00    -0.265 OA
ATOM      8  C   UNL d   1      56.725   0.295  33.078  0.00  0.00     0.021 A 
ATOM      9  C   UNL d   1      55.589  -0.871  33.309  0.00  0.00     0.022 A 
ATOM     10  C   UNL d   1      56.267   0.307  33.762  0.00  0.00     0.002 A 
ATOM     11  C   UNL d   1      55.689  -0.284  33.883  0.00  0.00     0.002 A 
ENDROOT
BRANCH   3  12
ATOM     12  C   UNL d   1      57.927  -0.197  30.718  0.00  0.00     0.059 A 
ATOM     13  C   UNL d   1      57.935   0.331  30.090  0.00  0.00     0.013 A 
ATOM     14  C   UNL d   1      58.251   0.118  29.356  0.00  0.00     0.057 A 
ATOM     15 BR   UNL d   1      58.255   0.653  28.730  0.00  0.00    -0.047 Br
ATOM     16  C   UNL d   1      58.564  -0.641  29.251  0.00  0.00     0.100 A 
ATOM     17  C   UNL d   1      58.559  -1.175  29.879  0.00  0.00     0.025 A 
ATOM     18  C   UNL d   1      58.240  -0.952  30.610  0.00  0.00     0.007 A 
BRANCH  16  19
ATOM     19  O   UNL d   1      58.888  -0.877  28.520  0.00  0.00    -0.328 OA
ATOM     20  C   UNL d   1      59.297  -1.597  28.455  0.00  0.00     0.181 C 
ENDBRANCH  16  19
ENDBRANCH   3  12
TORSDOF 2
ENDMDL
