MODEL 1
REMARK VINA RESULT:      -9.6      0.000      0.000
REMARK  5 active torsions:
REMARK  status: ('A' for Active; 'I' for Inactive)
REMARK    1  A    between atoms: C_9  and  C_3 
REMARK    2  A    between atoms: C_8  and  C_4 
REMARK    3  A    between atoms: C_11  and  C_8 
REMARK    4  A    between atoms: O_16  and  C_9 
REMARK    5  A    between atoms: C_18  and  C_11 
ROOT
ATOM      1  N   UNL d   1      53.172  32.004  53.494  0.00  0.00    -0.254 N 
ATOM      2  C   UNL d   1      53.707  31.598  53.973  0.00  0.00     0.182 A 
ATOM      3  C   UNL d   1      53.543  33.230  54.119  0.00  0.00     0.097 A 
ATOM      4  C   UNL d   1      53.086  32.820  53.564  0.00  0.00     0.075 A 
ATOM      5  N   UNL d   1      54.158  32.012  54.523  0.00  0.00    -0.222 NA
ATOM      6  C   UNL d   1      54.080  32.828  54.599  0.00  0.00     0.090 A 
ATOM      7  C   UNL d   1      52.719  31.590  52.944  0.00  0.00     0.267 A 
ATOM      8  S   UNL d   1      53.793  30.786  53.905  0.00  0.00    -0.049 SA
ATOM      9  C   UNL d   1      52.805  30.774  52.875  0.00  0.00     0.068 A 
ATOM     10  O   UNL d   1      52.183  31.992  52.463  0.00  0.00    -0.267 OA
ATOM     11  C   UNL d   1      53.342  30.372  53.355  0.00  0.00     0.043 A 
ATOM     12  C   UNL d   1      54.534  33.235  55.150  0.00  0.00     0.021 C 
ENDROOT
BRANCH   4  13
ATOM     13  C   UNL d   1      52.549  33.222  53.083  0.00  0.00     0.018 C 
BRANCH  13  14
ATOM     14  C   UNL d   1      51.741  33.075  53.170  0.00  0.00     0.002 C 
BRANCH  14  15
ATOM     15  C   UNL d   1      51.195  33.588  52.824  0.00  0.00     0.000 A 
ATOM     16  C   UNL d   1      51.339  33.902  52.079  0.00  0.00     0.000 A 
ATOM     17  C   UNL d   1      50.791  34.415  51.737  0.00  0.00     0.000 A 
ATOM     18  C   UNL d   1      50.101  34.611  52.142  0.00  0.00     0.000 A 
ATOM     19  C   UNL d   1      49.960  34.294  52.888  0.00  0.00     0.000 A 
ATOM     20  C   UNL d   1      50.508  33.781  53.230  0.00  0.00     0.000 A 
ENDBRANCH  14  15
ENDBRANCH  13  14
ENDBRANCH   4  13
BRANCH   3  21
ATOM     21  C   UNL d   1      53.461  34.043  54.191  0.00  0.00     0.299 C 
ATOM     22  O   UNL d   1      53.772  34.547  53.617  0.00  0.00    -0.259 OA
BRANCH  21  23
ATOM     23  O   UNL d   1      53.067  34.363  54.839  0.00  0.00    -0.296 OA
ATOM     24  C   UNL d   1      53.124  35.169  55.011  0.00  0.00     0.185 C 
ENDBRANCH  21  23
ENDBRANCH   3  21
TORSDOF 5
ENDMDL
MODEL 2
REMARK VINA RESULT:      -9.1      0.928      2.505
REMARK  5 active torsions:
REMARK  status: ('A' for Active; 'I' for Inactive)
REMARK    1  A    between atoms: C_9  and  C_3 
REMARK    2  A    between atoms: C_8  and  C_4 
REMARK    3  A    between atoms: C_11  and  C_8 
REMARK    4  A    between atoms: O_16  and  C_9 
REMARK    5  A    between atoms: C_18  and  C_11 
ROOT
ATOM      1  N   UNL d   1      53.519  33.281  54.246  0.00  0.00    -0.254 N 
ATOM      2  C   UNL d   1      54.261  32.985  54.453  0.00  0.00     0.182 A 
ATOM      3  C   UNL d   1      53.243  32.083  53.526  0.00  0.00     0.097 A 
ATOM      4  C   UNL d   1      53.006  32.834  53.783  0.00  0.00     0.075 A 
ATOM      5  N   UNL d   1      54.489  32.239  54.194  0.00  0.00    -0.222 NA
ATOM      6  C   UNL d   1      53.984  31.784  53.731  0.00  0.00     0.090 A 
ATOM      7  C   UNL d   1      53.290  34.029  54.505  0.00  0.00     0.267 A 
ATOM      8  S   UNL d   1      54.772  33.431  54.914  0.00  0.00    -0.049 SA
ATOM      9  C   UNL d   1      53.802  34.477  54.968  0.00  0.00     0.068 A 
ATOM     10  O   UNL d   1      52.549  34.328  54.300  0.00  0.00    -0.267 OA
ATOM     11  C   UNL d   1      54.543  34.177  55.173  0.00  0.00     0.043 A 
ATOM     12  C   UNL d   1      54.218  31.039  53.475  0.00  0.00     0.021 C 
ENDROOT
BRANCH   4  13
ATOM     13  C   UNL d   1      52.265  33.133  53.578  0.00  0.00     0.018 C 
BRANCH  13  14
ATOM     14  C   UNL d   1      52.219  33.796  53.086  0.00  0.00     0.002 C 
BRANCH  14  15
ATOM     15  C   UNL d   1      51.500  33.989  52.731  0.00  0.00     0.000 A 
ATOM     16  C   UNL d   1      50.808  33.987  53.174  0.00  0.00     0.000 A 
ATOM     17  C   UNL d   1      50.091  34.181  52.815  0.00  0.00     0.000 A 
ATOM     18  C   UNL d   1      50.069  34.375  52.015  0.00  0.00     0.000 A 
ATOM     19  C   UNL d   1      50.764  34.375  51.574  0.00  0.00     0.000 A 
ATOM     20  C   UNL d   1      51.482  34.181  51.933  0.00  0.00     0.000 A 
ENDBRANCH  14  15
ENDBRANCH  13  14
ENDBRANCH   4  13
BRANCH   3  21
ATOM     21  C   UNL d   1      52.735  31.634  53.064  0.00  0.00     0.299 C 
ATOM     22  O   UNL d   1      52.797  31.645  52.241  0.00  0.00    -0.259 OA
BRANCH  21  23
ATOM     23  O   UNL d   1      52.157  31.167  53.419  0.00  0.00    -0.296 OA
ATOM     24  C   UNL d   1      51.918  30.456  53.072  0.00  0.00     0.185 C 
ENDBRANCH  21  23
ENDBRANCH   3  21
TORSDOF 5
ENDMDL
MODEL 3
REMARK VINA RESULT:      -8.8      1.473      3.479
REMARK  5 active torsions:
REMARK  status: ('A' for Active; 'I' for Inactive)
REMARK    1  A    between atoms: C_9  and  C_3 
REMARK    2  A    between atoms: C_8  and  C_4 
REMARK    3  A    between atoms: C_11  and  C_8 
REMARK    4  A    between atoms: O_16  and  C_9 
REMARK    5  A    between atoms: C_18  and  C_11 
ROOT
ATOM      1  N   UNL d   1      53.701  33.443  54.468  0.00  0.00    -0.254 N 
ATOM      2  C   UNL d   1      53.830  34.258  54.478  0.00  0.00     0.182 A 
ATOM      3  C   UNL d   1      52.587  33.632  53.600  0.00  0.00     0.097 A 
ATOM      4  C   UNL d   1      53.081  33.125  54.031  0.00  0.00     0.075 A 
ATOM      5  N   UNL d   1      53.336  34.755  54.048  0.00  0.00    -0.222 NA
ATOM      6  C   UNL d   1      52.713  34.447  53.608  0.00  0.00     0.090 A 
ATOM      7  C   UNL d   1      54.196  32.945  54.899  0.00  0.00     0.267 A 
ATOM      8  S   UNL d   1      54.449  34.576  54.913  0.00  0.00    -0.049 SA
ATOM      9  C   UNL d   1      54.817  33.263  55.336  0.00  0.00     0.068 A 
ATOM     10  O   UNL d   1      54.070  32.130  54.891  0.00  0.00    -0.267 OA
ATOM     11  C   UNL d   1      54.943  34.078  55.343  0.00  0.00     0.043 A 
ATOM     12  C   UNL d   1      52.222  34.948  53.180  0.00  0.00     0.021 C 
ENDROOT
BRANCH   4  13
ATOM     13  C   UNL d   1      52.954  32.310  54.024  0.00  0.00     0.018 C 
BRANCH  13  14
ATOM     14  C   UNL d   1      53.510  31.818  53.659  0.00  0.00     0.002 C 
BRANCH  14  15
ATOM     15  C   UNL d   1      53.322  31.028  53.517  0.00  0.00     0.000 A 
ATOM     16  C   UNL d   1      53.139  30.529  54.143  0.00  0.00     0.000 A 
ATOM     17  C   UNL d   1      52.951  29.739  53.997  0.00  0.00     0.000 A 
ATOM     18  C   UNL d   1      52.948  29.452  53.225  0.00  0.00     0.000 A 
ATOM     19  C   UNL d   1      53.133  29.955  52.600  0.00  0.00     0.000 A 
ATOM     20  C   UNL d   1      53.320  30.745  52.747  0.00  0.00     0.000 A 
ENDBRANCH  14  15
ENDBRANCH  13  14
ENDBRANCH   4  13
BRANCH   3  21
ATOM     21  C   UNL d   1      51.967  33.318  53.163  0.00  0.00     0.299 C 
ATOM     22  O   UNL d   1      52.059  33.166  52.357  0.00  0.00    -0.259 OA
BRANCH  21  23
ATOM     23  O   UNL d   1      51.246  33.153  53.526  0.00  0.00    -0.296 OA
ATOM     24  C   UNL d   1      50.552  33.107  53.082  0.00  0.00     0.185 C 
ENDBRANCH  21  23
ENDBRANCH   3  21
TORSDOF 5
ENDMDL
MODEL 4
REMARK VINA RESULT:      -8.6      1.423      3.259
REMARK  5 active torsions:
REMARK  status: ('A' for Active; 'I' for Inactive)
REMARK    1  A    between atoms: C_9  and  C_3 
REMARK    2  A    between atoms: C_8  and  C_4 
REMARK    3  A    between atoms: C_11  and  C_8 
REMARK    4  A    between atoms: O_16  and  C_9 
REMARK    5  A    between atoms: C_18  and  C_11 
ROOT
ATOM      1  N   UNL d   1      52.396  33.616  53.254  0.00  0.00    -0.254 N 
ATOM      2  C   UNL d   1      52.105  34.361  53.453  0.00  0.00     0.182 A 
ATOM      3  C   UNL d   1      53.360  33.715  54.299  0.00  0.00     0.097 A 
ATOM      4  C   UNL d   1      53.024  33.288  53.675  0.00  0.00     0.075 A 
ATOM      5  N   UNL d   1      52.444  34.780  54.075  0.00  0.00    -0.222 NA
ATOM      6  C   UNL d   1      53.071  34.461  54.501  0.00  0.00     0.090 A 
ATOM      7  C   UNL d   1      52.057  33.196  52.631  0.00  0.00     0.267 A 
ATOM      8  S   UNL d   1      51.480  34.688  53.034  0.00  0.00    -0.049 SA
ATOM      9  C   UNL d   1      51.430  33.523  52.211  0.00  0.00     0.068 A 
ATOM     10  O   UNL d   1      52.346  32.450  52.430  0.00  0.00    -0.267 OA
ATOM     11  C   UNL d   1      51.141  34.269  52.413  0.00  0.00     0.043 A 
ATOM     12  C   UNL d   1      53.405  34.884  55.121  0.00  0.00     0.021 C 
ENDROOT
BRANCH   4  13
ATOM     13  C   UNL d   1      53.312  32.542  53.473  0.00  0.00     0.018 C 
BRANCH  13  14
ATOM     14  C   UNL d   1      52.807  31.889  53.511  0.00  0.00     0.002 C 
BRANCH  14  15
ATOM     15  C   UNL d   1      53.125  31.129  53.527  0.00  0.00     0.000 A 
ATOM     16  C   UNL d   1      53.748  30.932  53.029  0.00  0.00     0.000 A 
ATOM     17  C   UNL d   1      54.064  30.171  53.048  0.00  0.00     0.000 A 
ATOM     18  C   UNL d   1      53.755  29.608  53.565  0.00  0.00     0.000 A 
ATOM     19  C   UNL d   1      53.130  29.809  54.062  0.00  0.00     0.000 A 
ATOM     20  C   UNL d   1      52.814  30.571  54.043  0.00  0.00     0.000 A 
ENDBRANCH  14  15
ENDBRANCH  13  14
ENDBRANCH   4  13
BRANCH   3  21
ATOM     21  C   UNL d   1      53.986  33.392  54.721  0.00  0.00     0.299 C 
ATOM     22  O   UNL d   1      53.847  32.970  55.416  0.00  0.00    -0.259 OA
BRANCH  21  23
ATOM     23  O   UNL d   1      54.758  33.487  54.452  0.00  0.00    -0.296 OA
ATOM     24  C   UNL d   1      55.389  33.513  54.985  0.00  0.00     0.185 C 
ENDBRANCH  21  23
ENDBRANCH   3  21
TORSDOF 5
ENDMDL
MODEL 5
REMARK VINA RESULT:      -8.3      1.333      3.183
REMARK  5 active torsions:
REMARK  status: ('A' for Active; 'I' for Inactive)
REMARK    1  A    between atoms: C_9  and  C_3 
REMARK    2  A    between atoms: C_8  and  C_4 
REMARK    3  A    between atoms: C_11  and  C_8 
REMARK    4  A    between atoms: O_16  and  C_9 
REMARK    5  A    between atoms: C_18  and  C_11 
ROOT
ATOM      1  N   UNL d   1      52.951  31.476  53.351  0.00  0.00    -0.254 N 
ATOM      2  C   UNL d   1      52.259  31.077  53.144  0.00  0.00     0.182 A 
ATOM      3  C   UNL d   1      52.246  32.714  53.313  0.00  0.00     0.097 A 
ATOM      4  C   UNL d   1      52.950  32.295  53.437  0.00  0.00     0.075 A 
ATOM      5  N   UNL d   1      51.564  31.500  53.023  0.00  0.00    -0.222 NA
ATOM      6  C   UNL d   1      51.553  32.318  53.107  0.00  0.00     0.090 A 
ATOM      7  C   UNL d   1      53.648  31.053  53.472  0.00  0.00     0.267 A 
ATOM      8  S   UNL d   1      52.260  30.261  53.058  0.00  0.00    -0.049 SA
ATOM      9  C   UNL d   1      53.649  30.234  53.386  0.00  0.00     0.068 A 
ATOM     10  O   UNL d   1      54.341  31.449  53.679  0.00  0.00    -0.267 OA
ATOM     11  C   UNL d   1      52.956  29.839  53.179  0.00  0.00     0.043 A 
ATOM     12  C   UNL d   1      50.855  32.735  52.985  0.00  0.00     0.021 C 
ENDROOT
BRANCH   4  13
ATOM     13  C   UNL d   1      53.643  32.691  53.643  0.00  0.00     0.018 C 
BRANCH  13  14
ATOM     14  C   UNL d   1      53.991  32.539  54.378  0.00  0.00     0.002 C 
BRANCH  14  15
ATOM     15  C   UNL d   1      54.535  33.076  54.688  0.00  0.00     0.000 A 
ATOM     16  C   UNL d   1      55.125  33.388  54.209  0.00  0.00     0.000 A 
ATOM     17  C   UNL d   1      55.668  33.924  54.523  0.00  0.00     0.000 A 
ATOM     18  C   UNL d   1      55.617  34.146  55.315  0.00  0.00     0.000 A 
ATOM     19  C   UNL d   1      55.025  33.831  55.792  0.00  0.00     0.000 A 
ATOM     20  C   UNL d   1      54.482  33.295  55.477  0.00  0.00     0.000 A 
ENDBRANCH  14  15
ENDBRANCH  13  14
ENDBRANCH   4  13
BRANCH   3  21
ATOM     21  C   UNL d   1      52.240  33.530  53.398  0.00  0.00     0.299 C 
ATOM     22  O   UNL d   1      52.001  33.875  54.108  0.00  0.00    -0.259 OA
BRANCH  21  23
ATOM     23  O   UNL d   1      52.474  34.013  52.773  0.00  0.00    -0.296 OA
ATOM     24  C   UNL d   1      52.284  34.816  52.767  0.00  0.00     0.185 C 
ENDBRANCH  21  23
ENDBRANCH   3  21
TORSDOF 5
ENDMDL
MODEL 6
REMARK VINA RESULT:      -6.7      1.399      3.789
REMARK  5 active torsions:
REMARK  status: ('A' for Active; 'I' for Inactive)
REMARK    1  A    between atoms: C_9  and  C_3 
REMARK    2  A    between atoms: C_8  and  C_4 
REMARK    3  A    between atoms: C_11  and  C_8 
REMARK    4  A    between atoms: O_16  and  C_9 
REMARK    5  A    between atoms: C_18  and  C_11 
ROOT
ATOM      1  N   UNL d   1      52.171  33.210  53.194  0.00  0.00    -0.254 N 
ATOM      2  C   UNL d   1      51.440  32.898  52.971  0.00  0.00     0.182 A 
ATOM      3  C   UNL d   1      52.671  31.890  53.395  0.00  0.00     0.097 A 
ATOM      4  C   UNL d   1      52.789  32.710  53.407  0.00  0.00     0.075 A 
ATOM      5  N   UNL d   1      51.330  32.083  52.961  0.00  0.00    -0.222 NA
ATOM      6  C   UNL d   1      51.942  31.575  53.172  0.00  0.00     0.090 A 
ATOM      7  C   UNL d   1      52.282  34.026  53.204  0.00  0.00     0.267 A 
ATOM      8  S   UNL d   1      50.824  33.395  52.759  0.00  0.00    -0.049 SA
ATOM      9  C   UNL d   1      51.663  34.526  52.991  0.00  0.00     0.068 A 
ATOM     10  O   UNL d   1      53.011  34.341  53.427  0.00  0.00    -0.267 OA
ATOM     11  C   UNL d   1      50.934  34.210  52.769  0.00  0.00     0.043 A 
ATOM     12  C   UNL d   1      51.825  30.762  53.160  0.00  0.00     0.021 C 
ENDROOT
BRANCH   4  13
ATOM     13  C   UNL d   1      53.518  33.025  53.630  0.00  0.00     0.018 C 
BRANCH  13  14
ATOM     14  C   UNL d   1      53.567  33.483  54.316  0.00  0.00     0.002 C 
BRANCH  14  15
ATOM     15  C   UNL d   1      54.304  33.621  54.661  0.00  0.00     0.000 A 
ATOM     16  C   UNL d   1      54.956  33.782  54.188  0.00  0.00     0.000 A 
ATOM     17  C   UNL d   1      55.691  33.919  54.536  0.00  0.00     0.000 A 
ATOM     18  C   UNL d   1      55.771  33.896  55.356  0.00  0.00     0.000 A 
ATOM     19  C   UNL d   1      55.115  33.734  55.826  0.00  0.00     0.000 A 
ATOM     20  C   UNL d   1      54.380  33.597  55.478  0.00  0.00     0.000 A 
ENDBRANCH  14  15
ENDBRANCH  13  14
ENDBRANCH   4  13
BRANCH   3  21
ATOM     21  C   UNL d   1      53.285  31.389  53.607  0.00  0.00     0.299 C 
ATOM     22  O   UNL d   1      53.358  31.122  54.384  0.00  0.00    -0.259 OA
BRANCH  21  23
ATOM     23  O   UNL d   1      53.835  31.147  53.043  0.00  0.00    -0.296 OA
ATOM     24  C   UNL d   1      54.277  30.459  53.154  0.00  0.00     0.185 C 
ENDBRANCH  21  23
ENDBRANCH   3  21
TORSDOF 5
ENDMDL
