MODEL 1
REMARK VINA RESULT:      -6.1      0.000      0.000
REMARK  1 active torsions:
REMARK  status: ('A' for Active; 'I' for Inactive)
REMARK    1  A    between atoms: C_6  and  C_2 
ROOT
ATOM      1  C   UNL d   1     -48.283  12.328  23.076  0.00  0.00     0.019 A 
ATOM      2  C   UNL d   1     -48.748  12.071  23.697  0.00  0.00     0.001 A 
ATOM      3  C   UNL d   1     -48.561  12.331  22.309  0.00  0.00     0.001 A 
ATOM      4  C   UNL d   1     -49.326  12.071  22.151  0.00  0.00     0.000 A 
ATOM      5  C   UNL d   1     -49.518  11.808  23.545  0.00  0.00     0.000 A 
ATOM      6  C   UNL d   1     -49.804  11.809  22.775  0.00  0.00     0.000 A 
ENDROOT
BRANCH   1   7
ATOM      7  C   UNL d   1     -47.510  12.591  23.232  0.00  0.00     0.102 A 
ATOM      8  N   UNL d   1     -47.218  13.347  23.081  0.00  0.00    -0.222 NA
ATOM      9  C   UNL d   1     -46.427  13.366  23.320  0.00  0.00     0.199 A 
ATOM     10  N   UNL d   1     -46.232  12.624  23.616  0.00  0.00    -0.221 NA
ATOM     11  C   UNL d   1     -46.900  12.140  23.564  0.00  0.00     0.120 A 
ENDBRANCH   1   7
TORSDOF 1
ENDMDL
MODEL 2
REMARK VINA RESULT:      -6.0      1.236      2.634
REMARK  1 active torsions:
REMARK  status: ('A' for Active; 'I' for Inactive)
REMARK    1  A    between atoms: C_6  and  C_2 
ROOT
ATOM      1  C   UNL d   1     -47.743  12.943  23.046  0.00  0.00     0.019 A 
ATOM      2  C   UNL d   1     -46.994  12.682  23.242  0.00  0.00     0.001 A 
ATOM      3  C   UNL d   1     -47.879  13.713  22.811  0.00  0.00     0.001 A 
ATOM      4  C   UNL d   1     -47.250  14.243  22.771  0.00  0.00     0.000 A 
ATOM      5  C   UNL d   1     -46.358  13.211  23.203  0.00  0.00     0.000 A 
ATOM      6  C   UNL d   1     -46.487  13.987  22.968  0.00  0.00     0.000 A 
ENDROOT
BRANCH   1   7
ATOM      7  C   UNL d   1     -48.380  12.411  23.086  0.00  0.00     0.102 A 
ATOM      8  N   UNL d   1     -48.931  12.362  23.697  0.00  0.00    -0.222 NA
ATOM      9  C   UNL d   1     -49.465  11.759  23.510  0.00  0.00     0.199 A 
ATOM     10  N   UNL d   1     -49.244  11.437  22.786  0.00  0.00    -0.221 NA
ATOM     11  C   UNL d   1     -48.572  11.838  22.519  0.00  0.00     0.120 A 
ENDBRANCH   1   7
TORSDOF 1
ENDMDL
MODEL 3
REMARK VINA RESULT:      -5.9      1.353      1.686
REMARK  1 active torsions:
REMARK  status: ('A' for Active; 'I' for Inactive)
REMARK    1  A    between atoms: C_6  and  C_2 
ROOT
ATOM      1  C   UNL d   1     -47.873  13.383  22.577  0.00  0.00     0.019 A 
ATOM      2  C   UNL d   1     -48.109  14.122  22.831  0.00  0.00     0.001 A 
ATOM      3  C   UNL d   1     -48.224  13.019  21.937  0.00  0.00     0.001 A 
ATOM      4  C   UNL d   1     -48.832  13.401  21.534  0.00  0.00     0.000 A 
ATOM      5  C   UNL d   1     -48.720  14.512  22.429  0.00  0.00     0.000 A 
ATOM      6  C   UNL d   1     -49.079  14.151  21.784  0.00  0.00     0.000 A 
ENDROOT
BRANCH   1   7
ATOM      7  C   UNL d   1     -47.259  12.994  22.982  0.00  0.00     0.102 A 
ATOM      8  N   UNL d   1     -47.321  12.271  23.373  0.00  0.00    -0.222 NA
ATOM      9  C   UNL d   1     -46.581  12.093  23.696  0.00  0.00     0.199 A 
ATOM     10  N   UNL d   1     -46.065  12.704  23.504  0.00  0.00    -0.221 NA
ATOM     11  C   UNL d   1     -46.480  13.264  23.061  0.00  0.00     0.120 A 
ENDBRANCH   1   7
TORSDOF 1
ENDMDL
MODEL 4
REMARK VINA RESULT:      -5.8      1.998      3.037
REMARK  1 active torsions:
REMARK  status: ('A' for Active; 'I' for Inactive)
REMARK    1  A    between atoms: C_6  and  C_2 
ROOT
ATOM      1  C   UNL d   1     -47.908  14.063  22.920  0.00  0.00     0.019 A 
ATOM      2  C   UNL d   1     -47.986  13.250  22.923  0.00  0.00     0.001 A 
ATOM      3  C   UNL d   1     -47.175  14.421  22.932  0.00  0.00     0.001 A 
ATOM      4  C   UNL d   1     -46.494  13.957  22.948  0.00  0.00     0.000 A 
ATOM      5  C   UNL d   1     -47.306  12.778  22.939  0.00  0.00     0.000 A 
ATOM      6  C   UNL d   1     -46.565  13.132  22.952  0.00  0.00     0.000 A 
ENDROOT
BRANCH   1   7
ATOM      7  C   UNL d   1     -48.592  14.535  22.903  0.00  0.00     0.102 A 
ATOM      8  N   UNL d   1     -49.249  14.450  23.394  0.00  0.00    -0.222 NA
ATOM      9  C   UNL d   1     -49.797  15.034  23.188  0.00  0.00     0.199 A 
ATOM     10  N   UNL d   1     -49.479  15.477  22.572  0.00  0.00    -0.221 NA
ATOM     11  C   UNL d   1     -48.732  15.172  22.392  0.00  0.00     0.120 A 
ENDBRANCH   1   7
TORSDOF 1
ENDMDL
