MODEL 1
REMARK VINA RESULT:      88.4      0.000      0.000
REMARK  11 active torsions:
REMARK  status: ('A' for Active; 'I' for Inactive)
REMARK    1  A    between atoms: C_8  and  S_1 
REMARK    2  A    between atoms: N_19  and  S_1 
REMARK    3  A    between atoms: S_2  and  C_9 
REMARK    4  A    between atoms: N_20  and  S_2 
REMARK    5  A    between atoms: N_14  and  C_5 
REMARK    6  A    between atoms: C_24  and  N_19 
REMARK    7  A    between atoms: C_25  and  N_20 
REMARK    8  A    between atoms: C_29  and  C_24 
REMARK    9  A    between atoms: C_28  and  C_25 
REMARK   10  A    between atoms: O_26  and  C_29 
REMARK   11  A    between atoms: O_27  and  C_28 
ROOT
ATOM      1  C   UNL d   1      60.789  47.110  50.700  0.00  0.00     0.021 A 
ATOM      2  C   UNL d   1      61.316  46.041  50.316  0.00  0.00     0.021 A 
ATOM      3  C   UNL d   1      60.807  46.295  50.802  0.00  0.00     0.111 A 
ATOM      4  C   UNL d   1      61.334  47.314  50.110  0.00  0.00     0.002 A 
ATOM      5  C   UNL d   1      61.689  46.615  49.847  0.00  0.00     0.002 A 
ATOM      6  C   UNL d   1      60.450  48.484  50.847  0.00  0.00     0.105 A 
ATOM      7  C   UNL d   1      62.078  45.022  49.682  0.00  0.00     0.105 A 
ATOM      8  C   UNL d   1      61.513  45.244  50.230  0.00  0.00     0.015 A 
ATOM      9  C   UNL d   1      60.349  47.698  51.066  0.00  0.00     0.015 A 
ATOM     10  C   UNL d   1      62.258  46.386  49.296  0.00  0.00     0.001 A 
ATOM     11  C   UNL d   1      61.436  48.101  49.889  0.00  0.00     0.001 A 
ATOM     12  C   UNL d   1      62.457  45.591  49.208  0.00  0.00     0.013 A 
ATOM     13  C   UNL d   1      60.987  48.680  50.265  0.00  0.00     0.013 A 
ENDROOT
BRANCH   6  14
ATOM     14  S   UNL d   1      60.094  49.183  51.110  0.00  0.00     0.285 S 
ATOM     15  O   UNL d   1      59.409  48.999  50.684  0.00  0.00    -0.198 OA
ATOM     16  O   UNL d   1      60.779  49.358  51.530  0.00  0.00    -0.198 OA
BRANCH  14  17
ATOM     17  N   UNL d   1      59.451  49.698  51.129  0.00  0.00    -0.155 NA
BRANCH  17  18
ATOM     18  C   UNL d   1      58.728  49.445  51.434  0.00  0.00     0.138 C 
BRANCH  18  19
ATOM     19  C   UNL d   1      58.014  49.707  51.102  0.00  0.00     0.138 C 
BRANCH  19  20
ATOM     20  O   UNL d   1      57.316  49.308  51.245  0.00  0.00    -0.325 OA
ATOM     21  C   UNL d   1      56.666  49.403  50.742  0.00  0.00     0.182 C 
ENDBRANCH  19  20
ENDBRANCH  18  19
ENDBRANCH  17  18
ENDBRANCH  14  17
ENDBRANCH   6  14
BRANCH   3  22
ATOM     22  N   UNL d   1      60.349  45.861  51.337  0.00  0.00    -0.096 NA
ATOM     23  O   UNL d   1      60.622  45.764  52.118  0.00  0.00    -0.061 OA
ENDBRANCH   3  22
BRANCH   7  24
ATOM     24  S   UNL d   1      62.434  44.323  49.419  0.00  0.00     0.285 S 
ATOM     25  O   UNL d   1      61.860  44.253  48.828  0.00  0.00    -0.198 OA
ATOM     26  O   UNL d   1      63.009  44.394  50.009  0.00  0.00    -0.198 OA
BRANCH  24  27
ATOM     27  N   UNL d   1      63.029  43.755  49.487  0.00  0.00    -0.155 NA
BRANCH  27  28
ATOM     28  C   UNL d   1      62.867  43.034  49.855  0.00  0.00     0.138 C 
BRANCH  28  29
ATOM     29  C   UNL d   1      63.062  42.926  50.650  0.00  0.00     0.138 C 
BRANCH  29  30
ATOM     30  O   UNL d   1      62.928  42.190  51.017  0.00  0.00    -0.325 OA
ATOM     31  C   UNL d   1      62.416  42.141  51.652  0.00  0.00     0.182 C 
ENDBRANCH  29  30
ENDBRANCH  28  29
ENDBRANCH  27  28
ENDBRANCH  24  27
ENDBRANCH   7  24
TORSDOF 11
ENDMDL
MODEL 2
REMARK VINA RESULT:      90.9      0.546      5.737
REMARK  11 active torsions:
REMARK  status: ('A' for Active; 'I' for Inactive)
REMARK    1  A    between atoms: C_8  and  S_1 
REMARK    2  A    between atoms: N_19  and  S_1 
REMARK    3  A    between atoms: S_2  and  C_9 
REMARK    4  A    between atoms: N_20  and  S_2 
REMARK    5  A    between atoms: N_14  and  C_5 
REMARK    6  A    between atoms: C_24  and  N_19 
REMARK    7  A    between atoms: C_25  and  N_20 
REMARK    8  A    between atoms: C_29  and  C_24 
REMARK    9  A    between atoms: C_28  and  C_25 
REMARK   10  A    between atoms: O_26  and  C_29 
REMARK   11  A    between atoms: O_27  and  C_28 
ROOT
ATOM      1  C   UNL d   1      61.453  45.836  50.338  0.00  0.00     0.021 A 
ATOM      2  C   UNL d   1      60.990  46.971  50.600  0.00  0.00     0.021 A 
ATOM      3  C   UNL d   1      60.935  46.256  50.818  0.00  0.00     0.111 A 
ATOM      4  C   UNL d   1      61.819  46.367  49.818  0.00  0.00     0.002 A 
ATOM      5  C   UNL d   1      61.521  47.121  49.981  0.00  0.00     0.002 A 
ATOM      6  C   UNL d   1      62.193  44.770  49.755  0.00  0.00     0.105 A 
ATOM      7  C   UNL d   1      60.661  48.352  50.660  0.00  0.00     0.105 A 
ATOM      8  C   UNL d   1      60.561  47.589  50.938  0.00  0.00     0.015 A 
ATOM      9  C   UNL d   1      61.643  45.039  50.304  0.00  0.00     0.015 A 
ATOM     10  C   UNL d   1      61.618  47.892  49.704  0.00  0.00     0.001 A 
ATOM     11  C   UNL d   1      62.371  46.099  49.267  0.00  0.00     0.001 A 
ATOM     12  C   UNL d   1      61.191  48.512  50.040  0.00  0.00     0.013 A 
ATOM     13  C   UNL d   1      62.551  45.296  49.245  0.00  0.00     0.013 A 
ENDROOT
BRANCH   6  14
ATOM     14  S   UNL d   1      62.491  44.016  49.592  0.00  0.00     0.285 S 
ATOM     15  O   UNL d   1      63.038  44.095  50.207  0.00  0.00    -0.198 OA
ATOM     16  O   UNL d   1      61.943  43.946  48.982  0.00  0.00    -0.198 OA
BRANCH  14  17
ATOM     17  N   UNL d   1      63.017  43.402  49.752  0.00  0.00    -0.155 NA
BRANCH  17  18
ATOM     18  C   UNL d   1      62.930  42.952  50.437  0.00  0.00     0.138 C 
BRANCH  18  19
ATOM     19  C   UNL d   1      63.158  42.154  50.450  0.00  0.00     0.138 C 
BRANCH  19  20
ATOM     20  O   UNL d   1      62.855  41.641  51.010  0.00  0.00    -0.325 OA
ATOM     21  C   UNL d   1      62.808  40.830  50.857  0.00  0.00     0.182 C 
ENDBRANCH  19  20
ENDBRANCH  18  19
ENDBRANCH  17  18
ENDBRANCH  14  17
ENDBRANCH   6  14
BRANCH   3  22
ATOM     22  N   UNL d   1      60.457  45.939  51.414  0.00  0.00    -0.096 NA
ATOM     23  O   UNL d   1      60.795  45.769  52.156  0.00  0.00    -0.061 OA
ENDBRANCH   3  22
BRANCH   7  24
ATOM     24  S   UNL d   1      60.363  49.106  50.823  0.00  0.00     0.285 S 
ATOM     25  O   UNL d   1      60.926  49.438  50.316  0.00  0.00    -0.198 OA
ATOM     26  O   UNL d   1      59.800  48.775  51.329  0.00  0.00    -0.198 OA
BRANCH  24  27
ATOM     27  N   UNL d   1      59.824  49.592  51.217  0.00  0.00    -0.155 NA
BRANCH  27  28
ATOM     28  C   UNL d   1      59.055  49.669  50.928  0.00  0.00     0.138 C 
BRANCH  28  29
ATOM     29  C   UNL d   1      58.418  49.406  51.383  0.00  0.00     0.138 C 
BRANCH  29  30
ATOM     30  O   UNL d   1      57.640  49.489  51.098  0.00  0.00    -0.325 OA
ATOM     31  C   UNL d   1      57.509  49.601  50.299  0.00  0.00     0.182 C 
ENDBRANCH  29  30
ENDBRANCH  28  29
ENDBRANCH  27  28
ENDBRANCH  24  27
ENDBRANCH   7  24
TORSDOF 11
ENDMDL
