MODEL 1
REMARK VINA RESULT:      -5.0      0.000      0.000
REMARK  3 active torsions:
REMARK  status: ('A' for Active; 'I' for Inactive)
REMARK    1  A    between atoms: C_2  and  C_1 
REMARK    2  A    between atoms: C_3  and  C_1 
REMARK    3  A    between atoms: C_5  and  C_2 
ROOT
ATOM      1  C   UNL d   1      57.107  -0.518  31.339  0.00  0.00     0.000 C 
ENDROOT
BRANCH   1   2
ATOM      2  C   UNL d   1      57.545   0.112  31.041  0.00  0.00     0.000 C 
BRANCH   2   3
ATOM      3  C   UNL d   1      57.947   0.024  30.325  0.00  0.00     0.000 A 
ATOM      4  C   UNL d   1      58.007   0.668  29.809  0.00  0.00     0.000 A 
ATOM      5  C   UNL d   1      58.406   0.588  29.093  0.00  0.00     0.000 A 
ATOM      6  C   UNL d   1      58.749  -0.140  28.888  0.00  0.00     0.000 A 
ATOM      7  C   UNL d   1      58.691  -0.782  29.401  0.00  0.00     0.000 A 
ATOM      8  C   UNL d   1      58.290  -0.703  30.120  0.00  0.00     0.000 A 
ENDBRANCH   2   3
ENDBRANCH   1   2
BRANCH   1   9
ATOM      9  C   UNL d   1      56.618  -0.406  31.991  0.00  0.00     0.000 A 
ATOM     10  C   UNL d   1      56.313  -1.060  32.392  0.00  0.00     0.002 A 
ATOM     11  C   UNL d   1      55.823  -0.949  33.044  0.00  0.00     0.021 A 
ATOM     12  C   UNL d   1      55.637  -0.187  33.299  0.00  0.00     0.103 A 
ATOM     13  C   UNL d   1      55.944   0.465  32.895  0.00  0.00     0.021 A 
ATOM     14  N   UNL d   1      55.144  -0.080  33.955  0.00  0.00    -0.148 N 
ATOM     15  C   UNL d   1      56.435   0.356  32.241  0.00  0.00     0.002 A 
ENDBRANCH   1   9
TORSDOF 3
ENDMDL
MODEL 2
REMARK VINA RESULT:      -3.7      1.160      2.034
REMARK  3 active torsions:
REMARK  status: ('A' for Active; 'I' for Inactive)
REMARK    1  A    between atoms: C_2  and  C_1 
REMARK    2  A    between atoms: C_3  and  C_1 
REMARK    3  A    between atoms: C_5  and  C_2 
ROOT
ATOM      1  C   UNL d   1      56.767   0.312  33.069  0.00  0.00     0.000 C 
ENDROOT
BRANCH   1   2
ATOM      2  C   UNL d   1      56.458   0.102  32.335  0.00  0.00     0.000 C 
BRANCH   2   3
ATOM      3  C   UNL d   1      56.968   0.008  31.691  0.00  0.00     0.000 A 
ATOM      4  C   UNL d   1      57.198  -0.752  31.460  0.00  0.00     0.000 A 
ATOM      5  C   UNL d   1      57.706  -0.853  30.819  0.00  0.00     0.000 A 
ATOM      6  C   UNL d   1      57.988  -0.191  30.405  0.00  0.00     0.000 A 
ATOM      7  C   UNL d   1      57.760   0.566  30.634  0.00  0.00     0.000 A 
ATOM      8  C   UNL d   1      57.250   0.670  31.277  0.00  0.00     0.000 A 
ENDBRANCH   2   3
ENDBRANCH   1   2
BRANCH   1   9
ATOM      9  C   UNL d   1      56.265   0.404  33.714  0.00  0.00     0.000 A 
ATOM     10  C   UNL d   1      56.582   0.491  34.471  0.00  0.00     0.002 A 
ATOM     11  C   UNL d   1      56.081   0.583  35.117  0.00  0.00     0.021 A 
ATOM     12  C   UNL d   1      55.263   0.589  35.010  0.00  0.00     0.103 A 
ATOM     13  C   UNL d   1      54.949   0.501  34.252  0.00  0.00     0.021 A 
ATOM     14  N   UNL d   1      54.763   0.682  35.663  0.00  0.00    -0.148 N 
ATOM     15  C   UNL d   1      55.449   0.408  33.603  0.00  0.00     0.002 A 
ENDBRANCH   1   9
TORSDOF 3
ENDMDL
MODEL 3
REMARK VINA RESULT:      -2.6      9.673     10.000
REMARK  3 active torsions:
REMARK  status: ('A' for Active; 'I' for Inactive)
REMARK    1  A    between atoms: C_2  and  C_1 
REMARK    2  A    between atoms: C_3  and  C_1 
REMARK    3  A    between atoms: C_5  and  C_2 
ROOT
ATOM      1  C   UNL d   1      59.311  -9.103  33.254  0.00  0.00     0.000 C 
ENDROOT
BRANCH   1   2
ATOM      2  C   UNL d   1      59.127  -9.818  32.890  0.00  0.00     0.000 C 
BRANCH   2   3
ATOM      3  C   UNL d   1      58.664  -9.818  32.206  0.00  0.00     0.000 A 
ATOM      4  C   UNL d   1      59.030  -9.818  31.464  0.00  0.00     0.000 A 
ATOM      5  C   UNL d   1      58.574  -9.818  30.778  0.00  0.00     0.000 A 
ATOM      6  C   UNL d   1      57.746  -9.818  30.830  0.00  0.00     0.000 A 
ATOM      7  C   UNL d   1      57.379  -9.818  31.568  0.00  0.00     0.000 A 
ATOM      8  C   UNL d   1      57.835  -9.818  32.258  0.00  0.00     0.000 A 
ENDBRANCH   2   3
ENDBRANCH   1   2
BRANCH   1   9
ATOM      9  C   UNL d   1      59.728  -9.099  33.963  0.00  0.00     0.000 A 
ATOM     10  C   UNL d   1      60.553  -9.071  33.954  0.00  0.00     0.002 A 
ATOM     11  C   UNL d   1      60.971  -9.067  34.663  0.00  0.00     0.021 A 
ATOM     12  C   UNL d   1      60.568  -9.091  35.382  0.00  0.00     0.103 A 
ATOM     13  C   UNL d   1      59.743  -9.119  35.388  0.00  0.00     0.021 A 
ATOM     14  N   UNL d   1      60.994  -9.087  36.092  0.00  0.00    -0.148 N 
ATOM     15  C   UNL d   1      59.322  -9.123  34.679  0.00  0.00     0.002 A 
ENDBRANCH   1   9
TORSDOF 3
ENDMDL
