MODEL 1
REMARK VINA RESULT:      73.2      0.000      0.000
REMARK  10 active torsions:
REMARK  status: ('A' for Active; 'I' for Inactive)
REMARK    1  A    between atoms: N_11  and  C_1 
REMARK    2  A    between atoms: C_12  and  C_2 
REMARK    3  A    between atoms: C_4  and  S_15 
REMARK    4  A    between atoms: C_18  and  C_6 
REMARK       I    between atoms: C_16  and  N_11 
REMARK    5  A    between atoms: O_28  and  C_12 
REMARK       I    between atoms: C_13  and  N_17 
REMARK    6  A    between atoms: C_14  and  C_13 
REMARK    7  A    between atoms: S_15  and  C_26 
REMARK    8  A    between atoms: C_26  and  C_16 
REMARK    9  A    between atoms: N_17  and  C_18 
REMARK   10  A    between atoms: C_32  and  O_28 
ROOT
ATOM      1  C   UNL d   1     -49.541  29.079  33.957  0.00  0.00     0.101 C 
ENDROOT
BRANCH   1   2
ATOM      2  S   UNL d   1     -49.433  28.545  33.404  0.00  0.00    -0.043 SA
BRANCH   2   3
ATOM      3  C   UNL d   1     -49.995  27.927  33.372  0.00  0.00     0.202 A 
ATOM      4  N   UNL d   1     -49.747  27.137  33.385  0.00  0.00    -0.265 N 
ATOM      5  C   UNL d   1     -50.420  26.661  33.347  0.00  0.00     0.190 A 
ATOM      6  C   UNL d   1     -48.945  26.863  33.428  0.00  0.00     0.103 C 
ATOM      7  N   UNL d   1     -51.091  27.154  33.311  0.00  0.00    -0.126 NA
ATOM      8  N   UNL d   1     -50.829  27.935  33.326  0.00  0.00    -0.121 NA
BRANCH   5   9
ATOM      9  C   UNL d   1     -50.433  25.836  33.345  0.00  0.00     0.141 C 
BRANCH   9  10
ATOM     10  N   UNL d   1     -51.141  25.430  33.449  0.00  0.00    -0.202 NA
ATOM     11  C   UNL d   1     -51.155  24.606  33.444  0.00  0.00     0.302 C 
ATOM     12  O   UNL d   1     -50.449  24.187  33.333  0.00  0.00    -0.263 OA
BRANCH  11  13
ATOM     13  C   UNL d   1     -51.878  24.192  33.550  0.00  0.00     0.158 A 
ATOM     14  O   UNL d   1     -52.591  24.504  33.901  0.00  0.00    -0.300 OA
ATOM     15  C   UNL d   1     -53.176  23.891  33.891  0.00  0.00     0.123 A 
ATOM     16  C   UNL d   1     -52.831  23.197  33.537  0.00  0.00     0.029 A 
ATOM     17  C   UNL d   1     -52.032  23.383  33.327  0.00  0.00     0.032 A 
ENDBRANCH  11  13
ENDBRANCH   9  10
ENDBRANCH   5   9
ENDBRANCH   2   3
ENDBRANCH   1   2
BRANCH   1  18
ATOM     18  C   UNL d   1     -49.890  29.879  33.905  0.00  0.00     0.286 C 
ATOM     19  N   UNL d   1     -49.396  30.665  34.294  0.00  0.00    -0.201 NA
ATOM     20  O   UNL d   1     -50.593  29.985  33.552  0.00  0.00    -0.265 OA
BRANCH  19  21
ATOM     21  C   UNL d   1     -48.650  30.551  34.668  0.00  0.00     0.119 A 
ATOM     22  C   UNL d   1     -48.197  31.135  34.791  0.00  0.00     0.088 A 
ATOM     23  C   UNL d   1     -47.316  30.359  35.335  0.00  0.00     0.013 A 
ATOM     24  C   UNL d   1     -46.656  30.275  35.663  0.00  0.00     0.001 A 
ATOM     25  C   UNL d   1     -47.771  29.772  35.211  0.00  0.00     0.031 A 
ATOM     26  C   UNL d   1     -46.432  29.586  35.879  0.00  0.00     0.001 A 
ATOM     27  C   UNL d   1     -46.890  28.995  35.754  0.00  0.00     0.006 A 
ATOM     28  S   UNL d   1     -48.431  29.862  34.882  0.00  0.00    -0.068 SA
BRANCH  22  29
ATOM     29  C   UNL d   1     -48.249  31.917  34.642  0.00  0.00     0.302 C 
ATOM     30  O   UNL d   1     -48.795  32.160  34.236  0.00  0.00    -0.259 OA
BRANCH  29  31
ATOM     31  O   UNL d   1     -47.668  32.427  34.963  0.00  0.00    -0.271 OA
BRANCH  31  32
ATOM     32  C   UNL d   1     -46.836  32.433  35.033  0.00  0.00     0.126 C 
ATOM     33  C   UNL d   1     -46.265  33.002  35.181  0.00  0.00     0.029 C 
ENDBRANCH  31  32
ENDBRANCH  29  31
ENDBRANCH  22  29
ENDBRANCH  19  21
ENDBRANCH   1  18
TORSDOF 10
ENDMDL
