MODEL 1
REMARK VINA RESULT:      56.6      0.000      0.000
REMARK  4 active torsions:
REMARK  status: ('A' for Active; 'I' for Inactive)
REMARK    1  A    between atoms: C_12  and  C_2 
REMARK    2  A    between atoms: N_9  and  C_3 
REMARK       I    between atoms: C_7  and  N_8 
REMARK    3  A    between atoms: C_10  and  C_7 
REMARK    4  A    between atoms: N_8  and  N_9 
ROOT
ATOM      1  C   UNL d   1      44.252 -15.899  37.614  0.00  0.00     0.037 A 
ATOM      2  C   UNL d   1      45.066 -15.876  37.766  0.00  0.00     0.101 A 
ATOM      3  C   UNL d   1      44.914 -16.949  38.739  0.00  0.00     0.768 A 
ATOM      4  N   UNL d   1      45.383 -16.397  38.321  0.00  0.00    -0.058 NA
ATOM      5  N   UNL d   1      44.083 -16.959  38.571  0.00  0.00    -0.058 NA
ATOM      6  C   UNL d   1      43.762 -16.445  38.021  0.00  0.00     0.101 A 
ATOM      7  C   UNL d   1      43.897 -15.395  37.066  0.00  0.00     0.010 A 
ATOM      8  C   UNL d   1      42.930 -16.469  37.866  0.00  0.00     0.020 A 
ATOM      9  C   UNL d   1      43.098 -15.409  36.908  0.00  0.00     0.035 A 
ATOM     10  C   UNL d   1      42.625 -15.949  37.314  0.00  0.00     0.008 A 
ATOM     11 BR   UNL d   1      42.752 -14.875  36.335  0.00  0.00    -0.049 Br
ENDROOT
BRANCH   3  12
ATOM     12  N   UNL d   1      45.226 -17.475  39.298  0.00  0.00     0.049 NA
BRANCH  12  13
ATOM     13  N   UNL d   1      45.030 -17.417  40.094  0.00  0.00    -0.094 NA
ATOM     14  C   UNL d   1      45.423 -17.841  40.647  0.00  0.00     0.273 C 
ATOM     15  O   UNL d   1      45.198 -17.758  41.442  0.00  0.00    -0.269 OA
BRANCH  14  16
ATOM     16  C   UNL d   1      46.034 -18.344  40.432  0.00  0.00     0.075 C 
ATOM     17  C   UNL d   1      45.598 -19.009  40.754  0.00  0.00     0.009 C 
ATOM     18  C   UNL d   1      46.439 -17.687  40.126  0.00  0.00     0.009 C 
ATOM     19  C   UNL d   1      46.646 -18.847  40.216  0.00  0.00     0.009 C 
ENDBRANCH  14  16
ENDBRANCH  12  13
ENDBRANCH   3  12
BRANCH   2  20
ATOM     20  C   UNL d   1      45.559 -15.356  37.384  0.00  0.00     0.018 A 
ATOM     21  C   UNL d   1      45.954 -15.560  36.708  0.00  0.00     0.002 A 
ATOM     22  C   UNL d   1      46.444 -15.041  36.330  0.00  0.00     0.000 A 
ATOM     23  C   UNL d   1      46.542 -14.284  36.644  0.00  0.00     0.000 A 
ATOM     24  C   UNL d   1      46.170 -14.071  37.294  0.00  0.00     0.000 A 
ATOM     25  C   UNL d   1      45.663 -14.593  37.694  0.00  0.00     0.002 A 
ENDBRANCH   2  20
TORSDOF 4
ENDMDL
MODEL 2
REMARK VINA RESULT:      57.9      3.391      6.065
REMARK  4 active torsions:
REMARK  status: ('A' for Active; 'I' for Inactive)
REMARK    1  A    between atoms: C_12  and  C_2 
REMARK    2  A    between atoms: N_9  and  C_3 
REMARK       I    between atoms: C_7  and  N_8 
REMARK    3  A    between atoms: C_10  and  C_7 
REMARK    4  A    between atoms: N_8  and  N_9 
ROOT
ATOM      1  C   UNL d   1      46.277 -18.746  43.198  0.00  0.00     0.037 A 
ATOM      2  C   UNL d   1      46.092 -17.956  43.033  0.00  0.00     0.101 A 
ATOM      3  C   UNL d   1      46.097 -18.252  41.608  0.00  0.00     0.768 A 
ATOM      4  N   UNL d   1      46.005 -17.721  42.248  0.00  0.00    -0.058 NA
ATOM      5  N   UNL d   1      46.285 -19.057  41.794  0.00  0.00    -0.058 NA
ATOM      6  C   UNL d   1      46.373 -19.297  42.572  0.00  0.00     0.101 A 
ATOM      7  C   UNL d   1      46.372 -19.020  43.970  0.00  0.00     0.010 A 
ATOM      8  C   UNL d   1      46.562 -20.105  42.740  0.00  0.00     0.020 A 
ATOM      9  C   UNL d   1      46.553 -19.794  44.144  0.00  0.00     0.035 A 
ATOM     10  C   UNL d   1      46.646 -20.327  43.521  0.00  0.00     0.008 A 
ATOM     11 BR   UNL d   1      46.647 -20.055  44.955  0.00  0.00    -0.049 Br
ENDROOT
BRANCH   3  12
ATOM     12  N   UNL d   1      46.011 -18.023  40.816  0.00  0.00     0.049 NA
BRANCH  12  13
ATOM     13  N   UNL d   1      45.270 -17.979  40.463  0.00  0.00    -0.094 NA
ATOM     14  C   UNL d   1      45.178 -17.649  39.739  0.00  0.00     0.273 C 
ATOM     15  O   UNL d   1      44.415 -17.622  39.413  0.00  0.00    -0.269 OA
BRANCH  14  16
ATOM     16  C   UNL d   1      45.823 -17.346  39.333  0.00  0.00     0.075 C 
ATOM     17  C   UNL d   1      46.302 -18.001  39.607  0.00  0.00     0.009 C 
ATOM     18  C   UNL d   1      45.340 -16.720  39.079  0.00  0.00     0.009 C 
ATOM     19  C   UNL d   1      46.467 -17.042  38.926  0.00  0.00     0.009 C 
ENDBRANCH  14  16
ENDBRANCH  12  13
ENDBRANCH   3  12
BRANCH   2  20
ATOM     20  C   UNL d   1      45.994 -17.407  43.624  0.00  0.00     0.018 A 
ATOM     21  C   UNL d   1      46.463 -16.749  43.678  0.00  0.00     0.002 A 
ATOM     22  C   UNL d   1      46.364 -16.204  44.265  0.00  0.00     0.000 A 
ATOM     23  C   UNL d   1      45.768 -16.324  44.824  0.00  0.00     0.000 A 
ATOM     24  C   UNL d   1      45.307 -16.950  44.787  0.00  0.00     0.000 A 
ATOM     25  C   UNL d   1      45.397 -17.520  44.189  0.00  0.00     0.002 A 
ENDBRANCH   2  20
TORSDOF 4
ENDMDL
