MODEL 1
REMARK VINA RESULT:      -7.5      0.000      0.000
REMARK  3 active torsions:
REMARK  status: ('A' for Active; 'I' for Inactive)
REMARK    1  A    between atoms: N_6  and  C_1 
REMARK    2  A    between atoms: C_14  and  N_4 
REMARK    3  A    between atoms: C_9  and  N_6 
ROOT
ATOM      1  C   UNL d   1     -47.757  13.866  23.083  0.00  0.00     0.157 A 
ATOM      2  C   UNL d   1     -48.387  13.352  22.960  0.00  0.00     0.298 A 
ATOM      3  N   UNL d   1     -48.605  14.475  22.266  0.00  0.00    -0.238 N 
ATOM      4  N   UNL d   1     -48.918  13.735  22.448  0.00  0.00    -0.209 N 
ATOM      5  C   UNL d   1     -47.878  14.558  22.662  0.00  0.00     0.104 A 
ATOM      6  O   UNL d   1     -48.486  12.598  23.280  0.00  0.00    -0.263 OA
ATOM      7  C   UNL d   1     -48.958  15.038  21.770  0.00  0.00     0.120 C 
ATOM      8  C   UNL d   1     -47.382  15.210  22.635  0.00  0.00     0.022 C 
ENDROOT
BRANCH   1   9
ATOM      9  N   UNL d   1     -47.095  13.705  23.564  0.00  0.00    -0.239 NA
BRANCH   9  10
ATOM     10  C   UNL d   1     -46.488  13.215  23.283  0.00  0.00     0.082 A 
ATOM     11  C   UNL d   1     -46.419  12.434  23.565  0.00  0.00     0.022 A 
ATOM     12  C   UNL d   1     -45.821  11.955  23.286  0.00  0.00     0.041 A 
ATOM     13  C   UNL d   1     -45.750  11.177  23.565  0.00  0.00     0.003 C 
ATOM     14  C   UNL d   1     -45.276  12.236  22.722  0.00  0.00     0.196 A 
ATOM     15  C   UNL d   1     -45.348  13.012  22.446  0.00  0.00     0.041 A 
ATOM     16  O   UNL d   1     -44.670  11.747  22.442  0.00  0.00    -0.287 OA
ATOM     17  C   UNL d   1     -45.953  13.496  22.727  0.00  0.00     0.022 A 
ATOM     18  C   UNL d   1     -44.809  13.284  21.890  0.00  0.00     0.003 C 
ENDBRANCH   9  10
ENDBRANCH   1   9
BRANCH   4  19
ATOM     19  C   UNL d   1     -49.632  13.427  22.172  0.00  0.00     0.085 A 
ATOM     20  C   UNL d   1     -50.332  13.589  22.566  0.00  0.00     0.019 A 
ATOM     21  C   UNL d   1     -51.051  13.281  22.292  0.00  0.00     0.002 A 
ATOM     22  C   UNL d   1     -51.061  12.807  21.616  0.00  0.00     0.000 A 
ATOM     23  C   UNL d   1     -50.361  12.644  21.219  0.00  0.00     0.002 A 
ATOM     24  C   UNL d   1     -49.637  12.952  21.493  0.00  0.00     0.019 A 
ENDBRANCH   4  19
TORSDOF 3
ENDMDL
MODEL 2
REMARK VINA RESULT:      -7.3      1.556      4.452
REMARK  3 active torsions:
REMARK  status: ('A' for Active; 'I' for Inactive)
REMARK    1  A    between atoms: N_6  and  C_1 
REMARK    2  A    between atoms: C_14  and  N_4 
REMARK    3  A    between atoms: C_9  and  N_6 
ROOT
ATOM      1  C   UNL d   1     -48.904  12.676  23.366  0.00  0.00     0.157 A 
ATOM      2  C   UNL d   1     -48.167  13.040  23.334  0.00  0.00     0.298 A 
ATOM      3  N   UNL d   1     -48.075  11.830  22.770  0.00  0.00    -0.238 N 
ATOM      4  N   UNL d   1     -47.648  12.509  22.960  0.00  0.00    -0.209 N 
ATOM      5  C   UNL d   1     -48.861  11.933  23.023  0.00  0.00     0.104 A 
ATOM      6  O   UNL d   1     -47.968  13.789  23.615  0.00  0.00    -0.263 OA
ATOM      7  C   UNL d   1     -47.768  11.160  22.391  0.00  0.00     0.120 C 
ATOM      8  C   UNL d   1     -49.472  11.393  22.944  0.00  0.00     0.022 C 
ENDROOT
BRANCH   1   9
ATOM      9  N   UNL d   1     -49.590  13.014  23.698  0.00  0.00    -0.239 NA
BRANCH   9  10
ATOM     10  C   UNL d   1     -49.957  13.657  23.325  0.00  0.00     0.082 A 
ATOM     11  C   UNL d   1     -49.953  14.407  23.688  0.00  0.00     0.022 A 
ATOM     12  C   UNL d   1     -50.316  15.037  23.319  0.00  0.00     0.041 A 
ATOM     13  C   UNL d   1     -50.313  15.785  23.678  0.00  0.00     0.003 C 
ATOM     14  C   UNL d   1     -50.691  14.941  22.581  0.00  0.00     0.196 A 
ATOM     15  C   UNL d   1     -50.693  14.196  22.225  0.00  0.00     0.041 A 
ATOM     16  O   UNL d   1     -51.058  15.584  22.209  0.00  0.00    -0.287 OA
ATOM     17  C   UNL d   1     -50.327  13.559  22.598  0.00  0.00     0.022 A 
ATOM     18  C   UNL d   1     -51.064  14.107  21.498  0.00  0.00     0.003 C 
ENDBRANCH   9  10
ENDBRANCH   1   9
BRANCH   4  19
ATOM     19  C   UNL d   1     -46.848  12.640  22.808  0.00  0.00     0.085 A 
ATOM     20  C   UNL d   1     -46.620  13.132  22.194  0.00  0.00     0.019 A 
ATOM     21  C   UNL d   1     -45.817  13.266  22.037  0.00  0.00     0.002 A 
ATOM     22  C   UNL d   1     -45.243  12.900  22.505  0.00  0.00     0.000 A 
ATOM     23  C   UNL d   1     -45.470  12.407  23.121  0.00  0.00     0.002 A 
ATOM     24  C   UNL d   1     -46.276  12.271  23.279  0.00  0.00     0.019 A 
ENDBRANCH   4  19
TORSDOF 3
ENDMDL
MODEL 3
REMARK VINA RESULT:      -6.8      1.070      1.607
REMARK  3 active torsions:
REMARK  status: ('A' for Active; 'I' for Inactive)
REMARK    1  A    between atoms: N_6  and  C_1 
REMARK    2  A    between atoms: C_14  and  N_4 
REMARK    3  A    between atoms: C_9  and  N_6 
ROOT
ATOM      1  C   UNL d   1     -48.218  12.604  23.255  0.00  0.00     0.157 A 
ATOM      2  C   UNL d   1     -48.648  13.291  23.116  0.00  0.00     0.298 A 
ATOM      3  N   UNL d   1     -49.267  12.268  22.517  0.00  0.00    -0.238 N 
ATOM      4  N   UNL d   1     -49.305  13.080  22.654  0.00  0.00    -0.209 N 
ATOM      5  C   UNL d   1     -48.587  11.969  22.892  0.00  0.00     0.104 A 
ATOM      6  O   UNL d   1     -48.471  14.052  23.381  0.00  0.00    -0.263 OA
ATOM      7  C   UNL d   1     -49.816  11.828  22.078  0.00  0.00     0.120 C 
ATOM      8  C   UNL d   1     -48.338  11.188  22.896  0.00  0.00     0.022 C 
ENDROOT
BRANCH   1   9
ATOM      9  N   UNL d   1     -47.512  12.562  23.697  0.00  0.00    -0.239 NA
BRANCH   9  10
ATOM     10  C   UNL d   1     -46.780  12.646  23.319  0.00  0.00     0.082 A 
ATOM     11  C   UNL d   1     -46.236  12.014  23.318  0.00  0.00     0.022 A 
ATOM     12  C   UNL d   1     -45.517  12.100  22.945  0.00  0.00     0.041 A 
ATOM     13  C   UNL d   1     -44.974  11.473  22.943  0.00  0.00     0.003 C 
ATOM     14  C   UNL d   1     -45.316  12.813  22.564  0.00  0.00     0.196 A 
ATOM     15  C   UNL d   1     -45.858  13.437  22.567  0.00  0.00     0.041 A 
ATOM     16  O   UNL d   1     -44.584  12.897  22.186  0.00  0.00    -0.287 OA
ATOM     17  C   UNL d   1     -46.585  13.350  22.944  0.00  0.00     0.022 A 
ATOM     18  C   UNL d   1     -45.655  14.137  22.189  0.00  0.00     0.003 C 
ENDBRANCH   9  10
ENDBRANCH   1   9
BRANCH   4  19
ATOM     19  C   UNL d   1     -49.891  13.593  22.382  0.00  0.00     0.085 A 
ATOM     20  C   UNL d   1     -50.445  13.900  22.901  0.00  0.00     0.019 A 
ATOM     21  C   UNL d   1     -51.035  14.415  22.631  0.00  0.00     0.002 A 
ATOM     22  C   UNL d   1     -51.064  14.620  21.832  0.00  0.00     0.000 A 
ATOM     23  C   UNL d   1     -50.510  14.313  21.310  0.00  0.00     0.002 A 
ATOM     24  C   UNL d   1     -49.916  13.795  21.579  0.00  0.00     0.019 A 
ENDBRANCH   4  19
TORSDOF 3
ENDMDL
MODEL 4
REMARK VINA RESULT:      -5.7      7.602      9.740
REMARK  3 active torsions:
REMARK  status: ('A' for Active; 'I' for Inactive)
REMARK    1  A    between atoms: N_6  and  C_1 
REMARK    2  A    between atoms: C_14  and  N_4 
REMARK    3  A    between atoms: C_9  and  N_6 
ROOT
ATOM      1  C   UNL d   1     -39.154  15.242  18.266  0.00  0.00     0.157 A 
ATOM      2  C   UNL d   1     -39.332  15.089  19.055  0.00  0.00     0.298 A 
ATOM      3  N   UNL d   1     -40.412  15.609  18.462  0.00  0.00    -0.238 N 
ATOM      4  N   UNL d   1     -40.121  15.320  19.176  0.00  0.00    -0.209 N 
ATOM      5  C   UNL d   1     -39.808  15.561  17.892  0.00  0.00     0.104 A 
ATOM      6  O   UNL d   1     -38.831  14.768  19.626  0.00  0.00    -0.263 OA
ATOM      7  C   UNL d   1     -41.179  15.899  18.338  0.00  0.00     0.120 C 
ATOM      8  C   UNL d   1     -39.862  15.790  17.107  0.00  0.00     0.022 C 
ENDROOT
BRANCH   1   9
ATOM      9  N   UNL d   1     -38.417  15.093  17.905  0.00  0.00    -0.239 NA
BRANCH   9  10
ATOM     10  C   UNL d   1     -38.298  14.392  17.480  0.00  0.00     0.082 A 
ATOM     11  C   UNL d   1     -38.181  14.419  16.655  0.00  0.00     0.022 A 
ATOM     12  C   UNL d   1     -38.064  13.727  16.241  0.00  0.00     0.041 A 
ATOM     13  C   UNL d   1     -37.947  13.751  15.419  0.00  0.00     0.003 C 
ATOM     14  C   UNL d   1     -38.059  12.991  16.630  0.00  0.00     0.196 A 
ATOM     15  C   UNL d   1     -38.176  12.969  17.448  0.00  0.00     0.041 A 
ATOM     16  O   UNL d   1     -37.940  12.290  16.205  0.00  0.00    -0.287 OA
ATOM     17  C   UNL d   1     -38.294  13.668  17.867  0.00  0.00     0.022 A 
ATOM     18  C   UNL d   1     -38.170  12.240  17.827  0.00  0.00     0.003 C 
ENDBRANCH   9  10
ENDBRANCH   1   9
BRANCH   4  19
ATOM     19  C   UNL d   1     -40.537  15.267  19.887  0.00  0.00     0.085 A 
ATOM     20  C   UNL d   1     -40.601  15.921  20.376  0.00  0.00     0.019 A 
ATOM     21  C   UNL d   1     -41.018  15.873  21.091  0.00  0.00     0.002 A 
ATOM     22  C   UNL d   1     -41.372  15.159  21.310  0.00  0.00     0.000 A 
ATOM     23  C   UNL d   1     -41.308  14.503  20.821  0.00  0.00     0.002 A 
ATOM     24  C   UNL d   1     -40.890  14.550  20.102  0.00  0.00     0.019 A 
ENDBRANCH   4  19
TORSDOF 3
ENDMDL
MODEL 5
REMARK VINA RESULT:      -5.7      1.307      4.335
REMARK  3 active torsions:
REMARK  status: ('A' for Active; 'I' for Inactive)
REMARK    1  A    between atoms: N_6  and  C_1 
REMARK    2  A    between atoms: C_14  and  N_4 
REMARK    3  A    between atoms: C_9  and  N_6 
ROOT
ATOM      1  C   UNL d   1     -47.941  12.803  23.444  0.00  0.00     0.157 A 
ATOM      2  C   UNL d   1     -47.255  13.150  23.152  0.00  0.00     0.298 A 
ATOM      3  N   UNL d   1     -47.099  11.822  23.148  0.00  0.00    -0.238 N 
ATOM      4  N   UNL d   1     -46.728  12.534  22.966  0.00  0.00    -0.209 N 
ATOM      5  C   UNL d   1     -47.858  11.988  23.446  0.00  0.00     0.104 A 
ATOM      6  O   UNL d   1     -47.105  13.956  23.056  0.00  0.00    -0.263 OA
ATOM      7  C   UNL d   1     -46.769  11.068  23.048  0.00  0.00     0.120 C 
ATOM      8  C   UNL d   1     -48.414  11.439  23.695  0.00  0.00     0.022 C 
ENDROOT
BRANCH   1   9
ATOM      9  N   UNL d   1     -48.617  13.219  23.698  0.00  0.00    -0.239 NA
BRANCH   9  10
ATOM     10  C   UNL d   1     -49.147  13.528  23.142  0.00  0.00     0.082 A 
ATOM     11  C   UNL d   1     -49.560  13.016  22.630  0.00  0.00     0.022 A 
ATOM     12  C   UNL d   1     -50.081  13.323  22.084  0.00  0.00     0.041 A 
ATOM     13  C   UNL d   1     -50.492  12.815  21.573  0.00  0.00     0.003 C 
ATOM     14  C   UNL d   1     -50.208  14.145  22.030  0.00  0.00     0.196 A 
ATOM     15  C   UNL d   1     -49.797  14.649  22.539  0.00  0.00     0.041 A 
ATOM     16  O   UNL d   1     -50.738  14.453  21.474  0.00  0.00    -0.287 OA
ATOM     17  C   UNL d   1     -49.270  14.338  23.091  0.00  0.00     0.022 A 
ATOM     18  C   UNL d   1     -49.926  15.458  22.482  0.00  0.00     0.003 C 
ENDBRANCH   9  10
ENDBRANCH   1   9
BRANCH   4  19
ATOM     19  C   UNL d   1     -45.969  12.623  22.656  0.00  0.00     0.085 A 
ATOM     20  C   UNL d   1     -45.818  13.195  22.090  0.00  0.00     0.019 A 
ATOM     21  C   UNL d   1     -45.057  13.287  21.776  0.00  0.00     0.002 A 
ATOM     22  C   UNL d   1     -44.445  12.797  22.037  0.00  0.00     0.000 A 
ATOM     23  C   UNL d   1     -44.595  12.223  22.604  0.00  0.00     0.002 A 
ATOM     24  C   UNL d   1     -45.359  12.129  22.921  0.00  0.00     0.019 A 
ENDBRANCH   4  19
TORSDOF 3
ENDMDL
MODEL 6
REMARK VINA RESULT:      -5.6      8.844      9.667
REMARK  3 active torsions:
REMARK  status: ('A' for Active; 'I' for Inactive)
REMARK    1  A    between atoms: N_6  and  C_1 
REMARK    2  A    between atoms: C_14  and  N_4 
REMARK    3  A    between atoms: C_9  and  N_6 
ROOT
ATOM      1  C   UNL d   1     -38.430  14.616  19.156  0.00  0.00     0.157 A 
ATOM      2  C   UNL d   1     -38.964  15.152  18.833  0.00  0.00     0.298 A 
ATOM      3  N   UNL d   1     -39.019  14.014  18.132  0.00  0.00    -0.238 N 
ATOM      4  N   UNL d   1     -39.332  14.774  18.192  0.00  0.00    -0.209 N 
ATOM      5  C   UNL d   1     -38.454  13.914  18.735  0.00  0.00     0.104 A 
ATOM      6  O   UNL d   1     -39.115  15.922  19.089  0.00  0.00    -0.263 OA
ATOM      7  C   UNL d   1     -39.233  13.448  17.566  0.00  0.00     0.120 C 
ATOM      8  C   UNL d   1     -38.009  13.241  18.878  0.00  0.00     0.022 C 
ENDROOT
BRANCH   1   9
ATOM      9  N   UNL d   1     -37.939  14.767  19.814  0.00  0.00    -0.239 NA
BRANCH   9  10
ATOM     10  C   UNL d   1     -38.237  14.682  20.581  0.00  0.00     0.082 A 
ATOM     11  C   UNL d   1     -38.597  15.328  20.964  0.00  0.00     0.022 A 
ATOM     12  C   UNL d   1     -38.889  15.240  21.720  0.00  0.00     0.041 A 
ATOM     13  C   UNL d   1     -39.247  15.883  22.103  0.00  0.00     0.003 C 
ATOM     14  C   UNL d   1     -38.833  14.511  22.117  0.00  0.00     0.196 A 
ATOM     15  C   UNL d   1     -38.475  13.871  21.734  0.00  0.00     0.041 A 
ATOM     16  O   UNL d   1     -39.130  14.425  22.885  0.00  0.00    -0.287 OA
ATOM     17  C   UNL d   1     -38.180  13.960  20.970  0.00  0.00     0.022 A 
ATOM     18  C   UNL d   1     -38.423  13.154  22.130  0.00  0.00     0.003 C 
ENDBRANCH   9  10
ENDBRANCH   1   9
BRANCH   4  19
ATOM     19  C   UNL d   1     -39.910  15.102  17.702  0.00  0.00     0.085 A 
ATOM     20  C   UNL d   1     -40.704  15.011  17.881  0.00  0.00     0.019 A 
ATOM     21  C   UNL d   1     -41.286  15.339  17.392  0.00  0.00     0.002 A 
ATOM     22  C   UNL d   1     -41.064  15.761  16.718  0.00  0.00     0.000 A 
ATOM     23  C   UNL d   1     -40.268  15.853  16.536  0.00  0.00     0.002 A 
ATOM     24  C   UNL d   1     -39.681  15.524  17.027  0.00  0.00     0.019 A 
ENDBRANCH   4  19
TORSDOF 3
ENDMDL
MODEL 7
REMARK VINA RESULT:      -5.5      7.720      9.685
REMARK  3 active torsions:
REMARK  status: ('A' for Active; 'I' for Inactive)
REMARK    1  A    between atoms: N_6  and  C_1 
REMARK    2  A    between atoms: C_14  and  N_4 
REMARK    3  A    between atoms: C_9  and  N_6 
ROOT
ATOM      1  C   UNL d   1     -40.179  15.025  19.293  0.00  0.00     0.157 A 
ATOM      2  C   UNL d   1     -39.641  15.329  19.836  0.00  0.00     0.298 A 
ATOM      3  N   UNL d   1     -40.472  14.497  20.474  0.00  0.00    -0.238 N 
ATOM      4  N   UNL d   1     -39.825  14.997  20.575  0.00  0.00    -0.209 N 
ATOM      5  C   UNL d   1     -40.694  14.514  19.672  0.00  0.00     0.104 A 
ATOM      6  O   UNL d   1     -39.029  15.862  19.687  0.00  0.00    -0.263 OA
ATOM      7  C   UNL d   1     -40.837  14.055  21.072  0.00  0.00     0.120 C 
ATOM      8  C   UNL d   1     -41.312  14.096  19.330  0.00  0.00     0.022 C 
ENDROOT
BRANCH   1   9
ATOM      9  N   UNL d   1     -40.195  15.211  18.480  0.00  0.00    -0.239 NA
BRANCH   9  10
ATOM     10  C   UNL d   1     -39.631  14.885  17.969  0.00  0.00     0.082 A 
ATOM     11  C   UNL d   1     -39.145  15.383  17.512  0.00  0.00     0.022 A 
ATOM     12  C   UNL d   1     -38.591  15.059  17.009  0.00  0.00     0.041 A 
ATOM     13  C   UNL d   1     -38.106  15.554  16.553  0.00  0.00     0.003 C 
ATOM     14  C   UNL d   1     -38.504  14.233  16.947  0.00  0.00     0.196 A 
ATOM     15  C   UNL d   1     -38.987  13.742  17.402  0.00  0.00     0.041 A 
ATOM     16  O   UNL d   1     -37.940  13.907  16.436  0.00  0.00    -0.287 OA
ATOM     17  C   UNL d   1     -39.547  14.070  17.910  0.00  0.00     0.022 A 
ATOM     18  C   UNL d   1     -38.897  12.929  17.336  0.00  0.00     0.003 C 
ENDBRANCH   9  10
ENDBRANCH   1   9
BRANCH   4  19
ATOM     19  C   UNL d   1     -39.430  15.144  21.285  0.00  0.00     0.085 A 
ATOM     20  C   UNL d   1     -39.657  15.771  21.761  0.00  0.00     0.019 A 
ATOM     21  C   UNL d   1     -39.262  15.922  22.474  0.00  0.00     0.002 A 
ATOM     22  C   UNL d   1     -38.636  15.436  22.705  0.00  0.00     0.000 A 
ATOM     23  C   UNL d   1     -38.407  14.808  22.229  0.00  0.00     0.002 A 
ATOM     24  C   UNL d   1     -38.802  14.655  21.512  0.00  0.00     0.019 A 
ENDBRANCH   4  19
TORSDOF 3
ENDMDL
