MODEL 1
REMARK VINA RESULT:      33.2      0.000      0.000
REMARK  4 active torsions:
REMARK  status: ('A' for Active; 'I' for Inactive)
REMARK    1  A    between atoms: C_7  and  C_2 
REMARK    2  A    between atoms: C_12  and  C_4 
REMARK    3  A    between atoms: C_11  and  C_7 
REMARK    4  A    between atoms: N_18  and  C_12 
ROOT
ATOM      1  C   UNL d   1      14.521  13.843  -1.535  0.00  0.00     0.108 A 
ATOM      2  C   UNL d   1      14.166  12.656  -2.045  0.00  0.00     0.141 A 
ATOM      3  C   UNL d   1      14.891  13.255  -1.091  0.00  0.00     0.064 A 
ATOM      4  C   UNL d   1      14.638  14.636  -1.347  0.00  0.00     0.079 A 
ATOM      5  O   UNL d   1      14.071  13.476  -2.126  0.00  0.00    -0.304 OA
ATOM      6  C   UNL d   1      14.671  12.522  -1.407  0.00  0.00     0.220 A 
ATOM      7  C   UNL d   1      15.381  13.456  -0.458  0.00  0.00     0.008 A 
ATOM      8  C   UNL d   1      15.125  14.841  -0.716  0.00  0.00     0.199 A 
ATOM      9  C   UNL d   1      15.498  14.250  -0.270  0.00  0.00     0.042 A 
ATOM     10  O   UNL d   1      14.916  11.779  -1.132  0.00  0.00    -0.284 OA
ATOM     11  O   UNL d   1      15.244  15.631  -0.527  0.00  0.00    -0.286 OA
ATOM     12  C   UNL d   1      15.751  12.867  -0.014  0.00  0.00     0.000 C 
ENDROOT
BRANCH   2  13
ATOM     13  C   UNL d   1      13.816  12.079  -2.519  0.00  0.00     0.053 C 
BRANCH  13  14
ATOM     14  C   UNL d   1      13.512  12.284  -3.264  0.00  0.00     0.102 A 
ATOM     15  O   UNL d   1      13.034  12.933  -3.429  0.00  0.00    -0.305 OA
ATOM     16  C   UNL d   1      12.865  12.922  -4.235  0.00  0.00     0.123 A 
ATOM     17  C   UNL d   1      13.239  12.267  -4.564  0.00  0.00     0.029 A 
ATOM     18  C   UNL d   1      13.641  11.872  -3.957  0.00  0.00     0.027 A 
ENDBRANCH  13  14
ENDBRANCH   2  13
BRANCH   4  19
ATOM     19  C   UNL d   1      14.268  15.228  -1.789  0.00  0.00     0.086 C 
BRANCH  19  20
ATOM     20  N   UNL d   1      14.712  15.842  -2.106  0.00  0.00    -0.300 N 
ATOM     21  C   UNL d   1      14.748  15.951  -2.923  0.00  0.00     0.100 C 
ATOM     22  C   UNL d   1      15.129  16.361  -1.608  0.00  0.00     0.100 C 
ENDBRANCH  19  20
ENDBRANCH   4  19
TORSDOF 4
ENDMDL
