MODEL 1
REMARK VINA RESULT:      79.1      0.000      0.000
REMARK  7 active torsions:
REMARK  status: ('A' for Active; 'I' for Inactive)
REMARK    1  A    between atoms: C_11  and  C_3 
REMARK    2  A    between atoms: C_10  and  C_4 
REMARK    3  A    between atoms: O_16  and  C_10 
REMARK    4  A    between atoms: N_14  and  C_11 
REMARK    5  A    between atoms: C_21  and  N_14 
REMARK    6  A    between atoms: C_23  and  O_16 
REMARK    7  A    between atoms: C_20  and  C_21 
ROOT
ATOM      1  C   UNL d   1     -51.748  25.066  34.319  0.00  0.00     0.035 A 
ATOM      2  C   UNL d   1     -51.102  25.219  33.817  0.00  0.00     0.100 A 
ATOM      3  C   UNL d   1     -52.012  25.661  34.823  0.00  0.00     0.060 A 
ATOM      4  C   UNL d   1     -52.010  24.296  34.198  0.00  0.00     0.088 A 
ATOM      5  O   UNL d   1     -50.965  24.509  33.373  0.00  0.00    -0.307 OA
ATOM      6  C   UNL d   1     -51.512  23.974  33.611  0.00  0.00     0.105 A 
ATOM      7  C   UNL d   1     -51.627  26.406  34.823  0.00  0.00     0.197 A 
ATOM      8  C   UNL d   1     -50.710  25.958  33.809  0.00  0.00     0.026 A 
ATOM      9  C   UNL d   1     -50.973  26.553  34.313  0.00  0.00     0.041 A 
ATOM     10  O   UNL d   1     -51.896  27.014  35.339  0.00  0.00    -0.286 OA
ATOM     11  C   UNL d   1     -51.573  23.191  33.307  0.00  0.00     0.027 C 
ATOM     12  C   UNL d   1     -50.076  26.099  33.314  0.00  0.00     0.002 A 
ATOM     13  C   UNL d   1     -50.602  27.286  34.320  0.00  0.00     0.003 A 
ATOM     14  C   UNL d   1     -49.951  27.430  33.812  0.00  0.00     0.000 A 
ATOM     15  C   UNL d   1     -49.688  26.836  33.308  0.00  0.00     0.000 A 
ENDROOT
BRANCH   3  16
ATOM     16  C   UNL d   1     -52.675  25.482  35.327  0.00  0.00     0.102 C 
BRANCH  16  17
ATOM     17  N   UNL d   1     -52.663  25.776  36.141  0.00  0.00    -0.240 NA
BRANCH  17  18
ATOM     18  C   UNL d   1     -53.117  25.380  36.719  0.00  0.00     0.124 C 
BRANCH  18  19
ATOM     19  C   UNL d   1     -52.880  25.410  37.506  0.00  0.00     0.119 A 
ATOM     20  O   UNL d   1     -53.177  24.851  38.068  0.00  0.00    -0.304 OA
ATOM     21  C   UNL d   1     -52.840  25.026  38.791  0.00  0.00     0.123 A 
ATOM     22  C   UNL d   1     -52.356  25.660  38.692  0.00  0.00     0.029 A 
ATOM     23  C   UNL d   1     -52.369  25.906  37.917  0.00  0.00     0.028 A 
ENDBRANCH  18  19
ENDBRANCH  17  18
ENDBRANCH  16  17
ENDBRANCH   3  16
BRANCH   4  24
ATOM     24  C   UNL d   1     -52.645  23.894  34.574  0.00  0.00     0.302 C 
ATOM     25  O   UNL d   1     -52.500  23.431  35.274  0.00  0.00    -0.259 OA
BRANCH  24  26
ATOM     26  O   UNL d   1     -53.416  23.938  34.279  0.00  0.00    -0.271 OA
BRANCH  26  27
ATOM     27  C   UNL d   1     -53.825  23.247  34.104  0.00  0.00     0.126 C 
ATOM     28  C   UNL d   1     -54.634  23.247  34.089  0.00  0.00     0.029 C 
ENDBRANCH  26  27
ENDBRANCH  24  26
ENDBRANCH   4  24
TORSDOF 7
ENDMDL
MODEL 2
REMARK VINA RESULT:      80.8      4.310      6.784
REMARK  7 active torsions:
REMARK  status: ('A' for Active; 'I' for Inactive)
REMARK    1  A    between atoms: C_11  and  C_3 
REMARK    2  A    between atoms: C_10  and  C_4 
REMARK    3  A    between atoms: O_16  and  C_10 
REMARK    4  A    between atoms: N_14  and  C_11 
REMARK    5  A    between atoms: C_21  and  N_14 
REMARK    6  A    between atoms: C_23  and  O_16 
REMARK    7  A    between atoms: C_20  and  C_21 
ROOT
ATOM      1  C   UNL d   1     -47.849  30.581  35.047  0.00  0.00     0.035 A 
ATOM      2  C   UNL d   1     -47.477  31.323  35.109  0.00  0.00     0.100 A 
ATOM      3  C   UNL d   1     -48.402  30.460  34.450  0.00  0.00     0.060 A 
ATOM      4  C   UNL d   1     -47.567  30.085  35.640  0.00  0.00     0.088 A 
ATOM      5  O   UNL d   1     -46.945  31.275  35.769  0.00  0.00    -0.307 OA
ATOM      6  C   UNL d   1     -47.012  30.535  36.070  0.00  0.00     0.105 A 
ATOM      7  C   UNL d   1     -48.580  31.082  33.917  0.00  0.00     0.197 A 
ATOM      8  C   UNL d   1     -47.647  31.951  34.583  0.00  0.00     0.026 A 
ATOM      9  C   UNL d   1     -48.200  31.831  33.986  0.00  0.00     0.041 A 
ATOM     10  O   UNL d   1     -49.146  30.959  33.306  0.00  0.00    -0.286 OA
ATOM     11  C   UNL d   1     -46.576  30.254  36.734  0.00  0.00     0.027 C 
ATOM     12  C   UNL d   1     -47.277  32.676  34.651  0.00  0.00     0.002 A 
ATOM     13  C   UNL d   1     -48.381  32.435  33.459  0.00  0.00     0.003 A 
ATOM     14  C   UNL d   1     -48.001  33.179  33.529  0.00  0.00     0.000 A 
ATOM     15  C   UNL d   1     -47.448  33.299  34.126  0.00  0.00     0.000 A 
ENDROOT
BRANCH   3  16
ATOM     16  C   UNL d   1     -48.770  29.693  34.407  0.00  0.00     0.102 C 
BRANCH  16  17
ATOM     17  N   UNL d   1     -49.425  29.583  33.851  0.00  0.00    -0.240 NA
BRANCH  17  18
ATOM     18  C   UNL d   1     -49.445  28.890  33.386  0.00  0.00     0.124 C 
BRANCH  18  19
ATOM     19  C   UNL d   1     -50.137  28.444  33.360  0.00  0.00     0.119 A 
ATOM     20  O   UNL d   1     -50.106  27.598  33.368  0.00  0.00    -0.304 OA
ATOM     21  C   UNL d   1     -50.874  27.324  33.337  0.00  0.00     0.123 A 
ATOM     22  C   UNL d   1     -51.364  27.961  33.310  0.00  0.00     0.029 A 
ATOM     23  C   UNL d   1     -50.932  28.649  33.324  0.00  0.00     0.028 A 
ENDBRANCH  18  19
ENDBRANCH  17  18
ENDBRANCH  16  17
ENDBRANCH   3  16
BRANCH   4  24
ATOM     24  C   UNL d   1     -47.778  29.288  35.799  0.00  0.00     0.302 C 
ATOM     25  O   UNL d   1     -47.365  28.652  35.411  0.00  0.00    -0.259 OA
BRANCH  24  26
ATOM     26  O   UNL d   1     -48.384  29.102  36.330  0.00  0.00    -0.271 OA
BRANCH  26  27
ATOM     27  C   UNL d   1     -48.393  28.368  36.699  0.00  0.00     0.126 C 
ATOM     28  C   UNL d   1     -49.058  27.907  36.671  0.00  0.00     0.029 C 
ENDBRANCH  26  27
ENDBRANCH  24  26
ENDBRANCH   4  24
TORSDOF 7
ENDMDL
