MODEL 1
REMARK VINA RESULT:      -5.2      0.000      0.000
REMARK  4 active torsions:
REMARK  status: ('A' for Active; 'I' for Inactive)
REMARK    1  A    between atoms: C_7  and  N_2 
REMARK    2  A    between atoms: C_12  and  C_7 
REMARK    3  A    between atoms: C_9  and  O_11 
REMARK    4  A    between atoms: O_11  and  C_12 
ROOT
ATOM      1  C   UNL d   1      59.721  -0.228  29.448  0.00  0.00     0.296 A 
ATOM      2  N   UNL d   1      59.028  -0.670  29.477  0.00  0.00    -0.266 N 
ATOM      3  S   UNL d   1      60.339  -0.741  29.207  0.00  0.00    -0.025 SA
ATOM      4  C   UNL d   1      59.209  -1.449  29.257  0.00  0.00     0.074 A 
ATOM      5  C   UNL d   1      60.012  -1.493  29.092  0.00  0.00     0.050 A 
ATOM      6  O   UNL d   1      59.800   0.570  29.621  0.00  0.00    -0.259 OA
ATOM      7  C   UNL d   1      58.731  -2.121  29.190  0.00  0.00     0.018 A 
ATOM      8  C   UNL d   1      60.356  -2.209  28.856  0.00  0.00     0.008 A 
ATOM      9  C   UNL d   1      59.071  -2.838  28.955  0.00  0.00     0.002 A 
ATOM     10  C   UNL d   1      59.874  -2.881  28.790  0.00  0.00     0.001 A 
ENDROOT
BRANCH   2  11
ATOM     11  C   UNL d   1      58.282  -0.388  29.687  0.00  0.00     0.110 C 
BRANCH  11  12
ATOM     12  C   UNL d   1      58.085  -0.285  30.479  0.00  0.00     0.142 C 
BRANCH  12  13
ATOM     13  O   UNL d   1      57.314  -0.084  30.704  0.00  0.00    -0.304 OA
BRANCH  13  14
ATOM     14  C   UNL d   1      57.096  -0.093  31.500  0.00  0.00     0.100 A 
ATOM     15  C   UNL d   1      56.635  -0.711  31.794  0.00  0.00     0.025 A 
ATOM     16  C   UNL d   1      56.419  -0.719  32.585  0.00  0.00     0.002 A 
ATOM     17  C   UNL d   1      55.958  -1.337  32.878  0.00  0.00     0.000 C 
ATOM     18  C   UNL d   1      56.665  -0.109  33.083  0.00  0.00     0.000 A 
ATOM     19  C   UNL d   1      57.128   0.510  32.784  0.00  0.00     0.002 A 
ATOM     20  C   UNL d   1      57.340   0.510  31.990  0.00  0.00     0.025 A 
ENDBRANCH  13  14
ENDBRANCH  12  13
ENDBRANCH  11  12
ENDBRANCH   2  11
TORSDOF 4
ENDMDL
MODEL 2
REMARK VINA RESULT:      -4.6      1.365      2.001
REMARK  4 active torsions:
REMARK  status: ('A' for Active; 'I' for Inactive)
REMARK    1  A    between atoms: C_7  and  N_2 
REMARK    2  A    between atoms: C_12  and  C_7 
REMARK    3  A    between atoms: C_9  and  O_11 
REMARK    4  A    between atoms: O_11  and  C_12 
ROOT
ATOM      1  C   UNL d   1      58.583  -0.489  29.442  0.00  0.00     0.296 A 
ATOM      2  N   UNL d   1      58.664   0.057  30.051  0.00  0.00    -0.266 N 
ATOM      3  S   UNL d   1      59.353  -0.704  29.189  0.00  0.00    -0.025 SA
ATOM      4  C   UNL d   1      59.474   0.183  30.179  0.00  0.00     0.074 A 
ATOM      5  C   UNL d   1      59.896  -0.283  29.651  0.00  0.00     0.050 A 
ATOM      6  O   UNL d   1      57.879  -0.776  29.132  0.00  0.00    -0.259 OA
ATOM      7  C   UNL d   1      59.872   0.670  30.717  0.00  0.00     0.018 A 
ATOM      8  C   UNL d   1      60.725  -0.274  29.649  0.00  0.00     0.008 A 
ATOM      9  C   UNL d   1      60.699   0.682  30.718  0.00  0.00     0.002 A 
ATOM     10  C   UNL d   1      61.121   0.215  30.190  0.00  0.00     0.001 A 
ENDROOT
BRANCH   2  11
ATOM     11  C   UNL d   1      58.048   0.417  30.463  0.00  0.00     0.110 C 
BRANCH  11  12
ATOM     12  C   UNL d   1      57.561  -0.027  30.956  0.00  0.00     0.142 C 
BRANCH  12  13
ATOM     13  O   UNL d   1      56.851   0.283  31.247  0.00  0.00    -0.304 OA
BRANCH  13  14
ATOM     14  C   UNL d   1      56.494  -0.048  31.912  0.00  0.00     0.100 A 
ATOM     15  C   UNL d   1      56.055   0.429  32.424  0.00  0.00     0.025 A 
ATOM     16  C   UNL d   1      55.700   0.098  33.085  0.00  0.00     0.002 A 
ATOM     17  C   UNL d   1      55.262   0.575  33.596  0.00  0.00     0.000 C 
ATOM     18  C   UNL d   1      55.783  -0.709  33.235  0.00  0.00     0.000 A 
ATOM     19  C   UNL d   1      56.223  -1.184  32.720  0.00  0.00     0.002 A 
ATOM     20  C   UNL d   1      56.576  -0.845  32.059  0.00  0.00     0.025 A 
ENDBRANCH  13  14
ENDBRANCH  12  13
ENDBRANCH  11  12
ENDBRANCH   2  11
TORSDOF 4
ENDMDL
MODEL 3
REMARK VINA RESULT:      -3.9      1.879      4.625
REMARK  4 active torsions:
REMARK  status: ('A' for Active; 'I' for Inactive)
REMARK    1  A    between atoms: C_7  and  N_2 
REMARK    2  A    between atoms: C_12  and  C_7 
REMARK    3  A    between atoms: C_9  and  O_11 
REMARK    4  A    between atoms: O_11  and  C_12 
ROOT
ATOM      1  C   UNL d   1      56.663  -1.178  31.849  0.00  0.00     0.296 A 
ATOM      2  N   UNL d   1      56.656  -0.357  31.880  0.00  0.00    -0.266 N 
ATOM      3  S   UNL d   1      56.253  -1.461  32.523  0.00  0.00    -0.025 SA
ATOM      4  C   UNL d   1      56.248  -0.127  32.564  0.00  0.00     0.074 A 
ATOM      5  C   UNL d   1      56.000  -0.803  32.958  0.00  0.00     0.050 A 
ATOM      6  O   UNL d   1      57.007  -1.643  31.267  0.00  0.00    -0.259 OA
ATOM      7  C   UNL d   1      56.074   0.622  32.870  0.00  0.00     0.018 A 
ATOM      8  C   UNL d   1      55.574  -0.747  33.667  0.00  0.00     0.008 A 
ATOM      9  C   UNL d   1      55.649   0.682  33.577  0.00  0.00     0.002 A 
ATOM     10  C   UNL d   1      55.402   0.005  33.971  0.00  0.00     0.001 A 
ENDROOT
BRANCH   2  11
ATOM     11  C   UNL d   1      56.997   0.152  31.327  0.00  0.00     0.110 C 
BRANCH  11  12
ATOM     12  C   UNL d   1      57.778   0.047  31.092  0.00  0.00     0.142 C 
BRANCH  12  13
ATOM     13  O   UNL d   1      58.123   0.541  30.524  0.00  0.00    -0.304 OA
BRANCH  13  14
ATOM     14  C   UNL d   1      58.895   0.407  30.268  0.00  0.00     0.100 A 
ATOM     15  C   UNL d   1      59.030  -0.005  29.565  0.00  0.00     0.025 A 
ATOM     16  C   UNL d   1      59.798  -0.138  29.311  0.00  0.00     0.002 A 
ATOM     17  C   UNL d   1      59.932  -0.550  28.609  0.00  0.00     0.000 C 
ATOM     18  C   UNL d   1      60.432   0.140  29.760  0.00  0.00     0.000 A 
ATOM     19  C   UNL d   1      60.293   0.552  30.464  0.00  0.00     0.002 A 
ATOM     20  C   UNL d   1      59.520   0.682  30.712  0.00  0.00     0.025 A 
ENDBRANCH  13  14
ENDBRANCH  12  13
ENDBRANCH  11  12
ENDBRANCH   2  11
TORSDOF 4
ENDMDL
