MODEL 1
REMARK VINA RESULT:      -2.0      0.000      0.000
REMARK  6 active torsions:
REMARK  status: ('A' for Active; 'I' for Inactive)
REMARK    1  A    between atoms: C_2  and  S_1 
REMARK    2  A    between atoms: N_5  and  S_1 
REMARK    3  A    between atoms: O_14  and  C_4 
REMARK    4  A    between atoms: C_11  and  N_5 
REMARK    5  A    between atoms: C_15  and  C_11 
REMARK    6  A    between atoms: C_18  and  O_14 
ROOT
ATOM      1  C   UNL d   1      32.672  21.513 -21.749  0.00  0.00     0.129 A 
ATOM      2  C   UNL d   1      32.333  21.508 -20.999  0.00  0.00     0.026 A 
ATOM      3  C   UNL d   1      32.777  22.226 -22.147  0.00  0.00     0.112 A 
ATOM      4  C   UNL d   1      32.099  22.216 -20.647  0.00  0.00     0.059 A 
ATOM      5  C   UNL d   1      32.542  22.934 -21.795  0.00  0.00     0.026 A 
ATOM      6  C   UNL d   1      32.203  22.930 -21.044  0.00  0.00     0.013 A 
ATOM      7 CL   UNL d   1      31.760  22.212 -19.896  0.00  0.00    -0.082 Cl
ATOM      8  C   UNL d   1      31.969  23.638 -20.692  0.00  0.00     0.001 C 
ENDROOT
BRANCH   1   9
ATOM      9  S   UNL d   1      32.906  20.805 -22.101  0.00  0.00     0.287 S 
ATOM     10  O   UNL d   1      33.241  20.561 -21.387  0.00  0.00    -0.198 OA
ATOM     11  O   UNL d   1      32.572  21.049 -22.814  0.00  0.00    -0.198 OA
BRANCH   9  12
ATOM     12  N   UNL d   1      33.141  20.097 -22.453  0.00  0.00    -0.155 NA
BRANCH  12  13
ATOM     13  C   UNL d   1      32.578  19.531 -22.656  0.00  0.00     0.137 C 
BRANCH  13  14
ATOM     14  C   UNL d   1      32.803  18.855 -23.074  0.00  0.00     0.120 A 
ATOM     15  O   UNL d   1      32.949  18.817 -23.880  0.00  0.00    -0.304 OA
ATOM     16  C   UNL d   1      33.157  18.041 -24.061  0.00  0.00     0.123 A 
ATOM     17  C   UNL d   1      33.137  17.600 -23.365  0.00  0.00     0.029 A 
ATOM     18  C   UNL d   1      32.917  18.111 -22.755  0.00  0.00     0.028 A 
ENDBRANCH  13  14
ENDBRANCH  12  13
ENDBRANCH   9  12
ENDBRANCH   1   9
BRANCH   3  19
ATOM     19  O   UNL d   1      33.117  22.234 -22.901  0.00  0.00    -0.304 OA
BRANCH  19  20
ATOM     20  C   UNL d   1      33.239  22.948 -23.291  0.00  0.00     0.123 C 
ATOM     21  C   UNL d   1      33.239  22.976 -24.120  0.00  0.00     0.029 C 
ENDBRANCH  19  20
ENDBRANCH   3  19
TORSDOF 6
ENDMDL
MODEL 2
REMARK VINA RESULT:      -1.6      2.055      3.480
REMARK  6 active torsions:
REMARK  status: ('A' for Active; 'I' for Inactive)
REMARK    1  A    between atoms: C_2  and  S_1 
REMARK    2  A    between atoms: N_5  and  S_1 
REMARK    3  A    between atoms: O_14  and  C_4 
REMARK    4  A    between atoms: C_11  and  N_5 
REMARK    5  A    between atoms: C_15  and  C_11 
REMARK    6  A    between atoms: C_18  and  O_14 
ROOT
ATOM      1  C   UNL d   1      32.603  22.965 -20.652  0.00  0.00     0.129 A 
ATOM      2  C   UNL d   1      32.520  23.466 -20.005  0.00  0.00     0.026 A 
ATOM      3  C   UNL d   1      32.876  22.195 -20.544  0.00  0.00     0.112 A 
ATOM      4  C   UNL d   1      32.711  23.198 -19.249  0.00  0.00     0.059 A 
ATOM      5  C   UNL d   1      33.067  21.928 -19.787  0.00  0.00     0.026 A 
ATOM      6  C   UNL d   1      32.984  22.430 -19.139  0.00  0.00     0.013 A 
ATOM      7 CL   UNL d   1      32.628  23.700 -18.600  0.00  0.00    -0.082 Cl
ATOM      8  C   UNL d   1      33.174  22.162 -18.382  0.00  0.00     0.001 C 
ENDROOT
BRANCH   1   9
ATOM      9  S   UNL d   1      32.412  23.232 -21.409  0.00  0.00     0.287 S 
ATOM     10  O   UNL d   1      33.211  23.370 -21.562  0.00  0.00    -0.198 OA
ATOM     11  O   UNL d   1      31.613  23.094 -21.257  0.00  0.00    -0.198 OA
BRANCH   9  12
ATOM     12  N   UNL d   1      32.222  23.499 -22.166  0.00  0.00    -0.155 NA
BRANCH  12  13
ATOM     13  C   UNL d   1      32.819  23.663 -22.709  0.00  0.00     0.137 C 
BRANCH  13  14
ATOM     14  C   UNL d   1      32.693  23.536 -23.514  0.00  0.00     0.120 A 
ATOM     15  O   UNL d   1      32.001  23.701 -23.922  0.00  0.00    -0.304 OA
ATOM     16  C   UNL d   1      32.117  23.488 -24.709  0.00  0.00     0.123 A 
ATOM     17  C   UNL d   1      32.883  23.192 -24.787  0.00  0.00     0.029 A 
ATOM     18  C   UNL d   1      33.236  23.224 -24.041  0.00  0.00     0.028 A 
ENDBRANCH  13  14
ENDBRANCH  12  13
ENDBRANCH   9  12
ENDBRANCH   1   9
BRANCH   3  19
ATOM     19  O   UNL d   1      32.960  21.690 -21.193  0.00  0.00    -0.304 OA
BRANCH  19  20
ATOM     20  C   UNL d   1      32.653  20.927 -21.164  0.00  0.00     0.123 C 
ATOM     21  C   UNL d   1      33.026  20.311 -21.577  0.00  0.00     0.029 C 
ENDBRANCH  19  20
ENDBRANCH   3  19
TORSDOF 6
ENDMDL
MODEL 3
REMARK VINA RESULT:      -1.4      1.604      3.999
REMARK  6 active torsions:
REMARK  status: ('A' for Active; 'I' for Inactive)
REMARK    1  A    between atoms: C_2  and  S_1 
REMARK    2  A    between atoms: N_5  and  S_1 
REMARK    3  A    between atoms: O_14  and  C_4 
REMARK    4  A    between atoms: C_11  and  N_5 
REMARK    5  A    between atoms: C_15  and  C_11 
REMARK    6  A    between atoms: C_18  and  O_14 
ROOT
ATOM      1  C   UNL d   1      33.012  19.628 -22.814  0.00  0.00     0.129 A 
ATOM      2  C   UNL d   1      32.890  18.870 -22.519  0.00  0.00     0.026 A 
ATOM      3  C   UNL d   1      33.077  19.747 -23.626  0.00  0.00     0.112 A 
ATOM      4  C   UNL d   1      32.832  18.229 -23.036  0.00  0.00     0.059 A 
ATOM      5  C   UNL d   1      33.020  19.107 -24.143  0.00  0.00     0.026 A 
ATOM      6  C   UNL d   1      32.897  18.347 -23.848  0.00  0.00     0.013 A 
ATOM      7 CL   UNL d   1      32.710  17.470 -22.741  0.00  0.00    -0.082 Cl
ATOM      8  C   UNL d   1      32.840  17.707 -24.366  0.00  0.00     0.001 C 
ENDROOT
BRANCH   1   9
ATOM      9  S   UNL d   1      33.069  20.268 -22.297  0.00  0.00     0.287 S 
ATOM     10  O   UNL d   1      33.241  19.752 -21.677  0.00  0.00    -0.198 OA
ATOM     11  O   UNL d   1      32.898  20.784 -22.917  0.00  0.00    -0.198 OA
BRANCH   9  12
ATOM     12  N   UNL d   1      33.127  20.908 -21.780  0.00  0.00    -0.155 NA
BRANCH  12  13
ATOM     13  C   UNL d   1      32.455  21.187 -21.392  0.00  0.00     0.137 C 
BRANCH  13  14
ATOM     14  C   UNL d   1      32.499  21.866 -20.925  0.00  0.00     0.120 A 
ATOM     15  O   UNL d   1      32.843  21.914 -20.181  0.00  0.00    -0.304 OA
ATOM     16  C   UNL d   1      32.764  22.690 -19.918  0.00  0.00     0.123 A 
ATOM     17  C   UNL d   1      32.371  23.122 -20.501  0.00  0.00     0.029 A 
ATOM     18  C   UNL d   1      32.209  22.604 -21.124  0.00  0.00     0.028 A 
ENDBRANCH  13  14
ENDBRANCH  12  13
ENDBRANCH   9  12
ENDBRANCH   1   9
BRANCH   3  19
ATOM     19  O   UNL d   1      33.200  20.508 -23.925  0.00  0.00    -0.304 OA
BRANCH  19  20
ATOM     20  C   UNL d   1      33.240  20.631 -24.737  0.00  0.00     0.123 C 
ATOM     21  C   UNL d   1      33.223  21.402 -25.045  0.00  0.00     0.029 C 
ENDBRANCH  19  20
ENDBRANCH   3  19
TORSDOF 6
ENDMDL
MODEL 4
REMARK VINA RESULT:      -0.8      1.288      2.002
REMARK  6 active torsions:
REMARK  status: ('A' for Active; 'I' for Inactive)
REMARK    1  A    between atoms: C_2  and  S_1 
REMARK    2  A    between atoms: N_5  and  S_1 
REMARK    3  A    between atoms: O_14  and  C_4 
REMARK    4  A    between atoms: C_11  and  N_5 
REMARK    5  A    between atoms: C_15  and  C_11 
REMARK    6  A    between atoms: C_18  and  O_14 
ROOT
ATOM      1  C   UNL d   1      32.774  21.234 -22.515  0.00  0.00     0.129 A 
ATOM      2  C   UNL d   1      32.945  21.635 -23.212  0.00  0.00     0.026 A 
ATOM      3  C   UNL d   1      32.666  21.654 -21.815  0.00  0.00     0.112 A 
ATOM      4  C   UNL d   1      33.008  22.457 -23.211  0.00  0.00     0.059 A 
ATOM      5  C   UNL d   1      32.728  22.477 -21.814  0.00  0.00     0.026 A 
ATOM      6  C   UNL d   1      32.900  22.879 -22.512  0.00  0.00     0.013 A 
ATOM      7 CL   UNL d   1      33.179  22.860 -23.909  0.00  0.00    -0.082 Cl
ATOM      8  C   UNL d   1      32.962  23.701 -22.511  0.00  0.00     0.001 C 
ENDROOT
BRANCH   1   9
ATOM      9  S   UNL d   1      32.712  20.411 -22.516  0.00  0.00     0.287 S 
ATOM     10  O   UNL d   1      33.234  20.370 -21.878  0.00  0.00    -0.198 OA
ATOM     11  O   UNL d   1      32.189  20.452 -23.153  0.00  0.00    -0.198 OA
BRANCH   9  12
ATOM     12  N   UNL d   1      32.649  19.588 -22.517  0.00  0.00    -0.155 NA
BRANCH  12  13
ATOM     13  C   UNL d   1      32.893  19.157 -23.175  0.00  0.00     0.137 C 
BRANCH  13  14
ATOM     14  C   UNL d   1      32.743  18.346 -23.216  0.00  0.00     0.120 A 
ATOM     15  O   UNL d   1      32.087  17.997 -23.564  0.00  0.00    -0.304 OA
ATOM     16  C   UNL d   1      32.163  17.182 -23.480  0.00  0.00     0.123 A 
ATOM     17  C   UNL d   1      32.867  17.027 -23.079  0.00  0.00     0.029 A 
ATOM     18  C   UNL d   1      33.223  17.755 -22.918  0.00  0.00     0.028 A 
ENDBRANCH  13  14
ENDBRANCH  12  13
ENDBRANCH   9  12
ENDBRANCH   1   9
BRANCH   3  19
ATOM     19  O   UNL d   1      32.494  21.253 -21.113  0.00  0.00    -0.304 OA
BRANCH  19  20
ATOM     20  C   UNL d   1      32.182  21.662 -20.470  0.00  0.00     0.123 C 
ATOM     21  C   UNL d   1      32.429  21.478 -19.699  0.00  0.00     0.029 C 
ENDBRANCH  19  20
ENDBRANCH   3  19
TORSDOF 6
ENDMDL
MODEL 5
REMARK VINA RESULT:      -0.3      2.634      4.627
REMARK  6 active torsions:
REMARK  status: ('A' for Active; 'I' for Inactive)
REMARK    1  A    between atoms: C_2  and  S_1 
REMARK    2  A    between atoms: N_5  and  S_1 
REMARK    3  A    between atoms: O_14  and  C_4 
REMARK    4  A    between atoms: C_11  and  N_5 
REMARK    5  A    between atoms: C_15  and  C_11 
REMARK    6  A    between atoms: C_18  and  O_14 
ROOT
ATOM      1  C   UNL d   1      32.936  21.680 -20.416  0.00  0.00     0.129 A 
ATOM      2  C   UNL d   1      33.098  20.877 -20.345  0.00  0.00     0.026 A 
ATOM      3  C   UNL d   1      32.745  21.998 -21.152  0.00  0.00     0.112 A 
ATOM      4  C   UNL d   1      33.070  20.390 -21.010  0.00  0.00     0.059 A 
ATOM      5  C   UNL d   1      32.717  21.510 -21.817  0.00  0.00     0.026 A 
ATOM      6  C   UNL d   1      32.880  20.706 -21.746  0.00  0.00     0.013 A 
ATOM      7 CL   UNL d   1      33.233  19.585 -20.940  0.00  0.00    -0.082 Cl
ATOM      8  C   UNL d   1      32.852  20.218 -22.411  0.00  0.00     0.001 C 
ENDROOT
BRANCH   1   9
ATOM      9  S   UNL d   1      32.964  22.168 -19.751  0.00  0.00     0.287 S 
ATOM     10  O   UNL d   1      32.687  21.546 -19.284  0.00  0.00    -0.198 OA
ATOM     11  O   UNL d   1      33.241  22.789 -20.218  0.00  0.00    -0.198 OA
BRANCH   9  12
ATOM     12  N   UNL d   1      32.992  22.655 -19.086  0.00  0.00    -0.155 NA
BRANCH  12  13
ATOM     13  C   UNL d   1      32.600  22.434 -18.396  0.00  0.00     0.137 C 
BRANCH  13  14
ATOM     14  C   UNL d   1      32.752  22.832 -17.689  0.00  0.00     0.120 A 
ATOM     15  O   UNL d   1      33.238  23.487 -17.603  0.00  0.00    -0.304 OA
ATOM     16  C   UNL d   1      33.231  23.702 -16.808  0.00  0.00     0.123 A 
ATOM     17  C   UNL d   1      32.739  23.178 -16.403  0.00  0.00     0.029 A 
ATOM     18  C   UNL d   1      32.445  22.640 -16.956  0.00  0.00     0.028 A 
ENDBRANCH  13  14
ENDBRANCH  12  13
ENDBRANCH   9  12
ENDBRANCH   1   9
BRANCH   3  19
ATOM     19  O   UNL d   1      32.582  22.805 -21.225  0.00  0.00    -0.304 OA
BRANCH  19  20
ATOM     20  C   UNL d   1      32.229  23.093 -21.910  0.00  0.00     0.123 C 
ATOM     21  C   UNL d   1      31.604  23.638 -21.860  0.00  0.00     0.029 C 
ENDBRANCH  19  20
ENDBRANCH   3  19
TORSDOF 6
ENDMDL
