MODEL 1
REMARK VINA RESULT:      -8.4      0.000      0.000
REMARK  6 active torsions:
REMARK  status: ('A' for Active; 'I' for Inactive)
REMARK    1  A    between atoms: C_3  and  N_1 
REMARK    2  A    between atoms: N_7  and  C_3 
REMARK    3  A    between atoms: C_10  and  C_4 
REMARK    4  A    between atoms: C_9  and  C_5 
REMARK    5  A    between atoms: C_13  and  N_7 
REMARK    6  A    between atoms: O_17  and  C_14 
ROOT
ATOM      1  N   UNL d   1      53.051  32.524  53.379  0.00  0.00    -0.203 N 
ATOM      2  N   UNL d   1      52.638  33.198  53.172  0.00  0.00    -0.163 NA
ATOM      3  C   UNL d   1      51.897  32.981  52.946  0.00  0.00     0.103 A 
ATOM      4  C   UNL d   1      52.561  31.864  53.282  0.00  0.00     0.087 A 
ATOM      5  C   UNL d   1      51.844  32.157  53.012  0.00  0.00     0.040 A 
ENDROOT
BRANCH   1   6
ATOM      6  C   UNL d   1      53.854  32.527  53.648  0.00  0.00     0.222 C 
ATOM      7  S   UNL d   1      54.480  32.525  53.100  0.00  0.00    -0.037 SA
BRANCH   6   8
ATOM      8  N   UNL d   1      54.023  32.531  54.449  0.00  0.00    -0.217 NA
BRANCH   8   9
ATOM      9  C   UNL d   1      54.535  33.097  54.774  0.00  0.00     0.084 A 
ATOM     10  C   UNL d   1      55.189  33.344  54.348  0.00  0.00     0.019 A 
ATOM     11  C   UNL d   1      55.705  33.912  54.675  0.00  0.00     0.002 A 
ATOM     12  C   UNL d   1      55.548  34.218  55.425  0.00  0.00     0.000 A 
ATOM     13  C   UNL d   1      54.889  33.956  55.831  0.00  0.00     0.002 A 
ATOM     14  C   UNL d   1      54.375  33.394  55.512  0.00  0.00     0.019 A 
ENDBRANCH   8   9
ENDBRANCH   6   8
ENDBRANCH   1   6
BRANCH   4  15
ATOM     15  C   UNL d   1      52.736  31.070  53.423  0.00  0.00     0.018 A 
ATOM     16  C   UNL d   1      52.569  30.740  54.166  0.00  0.00     0.004 A 
ATOM     17  C   UNL d   1      52.738  29.963  54.308  0.00  0.00     0.024 A 
ATOM     18  C   UNL d   1      53.083  29.479  53.718  0.00  0.00     0.094 A 
ATOM     19  C   UNL d   1      53.242  29.816  52.994  0.00  0.00     0.024 A 
ATOM     20  C   UNL d   1      53.070  30.617  52.837  0.00  0.00     0.004 A 
BRANCH  18  21
ATOM     21  O   UNL d   1      53.255  28.678  53.875  0.00  0.00    -0.328 OA
ATOM     22  C   UNL d   1      53.554  28.427  54.612  0.00  0.00     0.181 C 
ENDBRANCH  18  21
ENDBRANCH   4  15
BRANCH   3  23
ATOM     23  C   UNL d   1      51.328  33.506  52.701  0.00  0.00     0.019 A 
ATOM     24  C   UNL d   1      51.352  33.825  51.936  0.00  0.00     0.002 A 
ATOM     25  C   UNL d   1      50.768  34.361  51.691  0.00  0.00     0.000 A 
ATOM     26  C   UNL d   1      50.168  34.575  52.205  0.00  0.00     0.000 A 
ATOM     27  C   UNL d   1      50.145  34.255  52.970  0.00  0.00     0.000 A 
ATOM     28  C   UNL d   1      50.729  33.719  53.214  0.00  0.00     0.002 A 
ENDBRANCH   3  23
TORSDOF 6
ENDMDL
MODEL 2
REMARK VINA RESULT:      -7.7      1.515      3.752
REMARK  6 active torsions:
REMARK  status: ('A' for Active; 'I' for Inactive)
REMARK    1  A    between atoms: C_3  and  N_1 
REMARK    2  A    between atoms: N_7  and  C_3 
REMARK    3  A    between atoms: C_10  and  C_4 
REMARK    4  A    between atoms: C_9  and  C_5 
REMARK    5  A    between atoms: C_13  and  N_7 
REMARK    6  A    between atoms: O_17  and  C_14 
ROOT
ATOM      1  N   UNL d   1      52.959  32.632  53.380  0.00  0.00    -0.203 N 
ATOM      2  N   UNL d   1      53.290  31.892  53.485  0.00  0.00    -0.163 NA
ATOM      3  C   UNL d   1      52.737  31.339  53.300  0.00  0.00     0.103 A 
ATOM      4  C   UNL d   1      52.177  32.546  53.122  0.00  0.00     0.087 A 
ATOM      5  C   UNL d   1      52.047  31.737  53.074  0.00  0.00     0.040 A 
ENDROOT
BRANCH   1   6
ATOM      6  C   UNL d   1      53.371  33.358  53.521  0.00  0.00     0.222 C 
ATOM      7  S   UNL d   1      53.768  33.742  52.898  0.00  0.00    -0.037 SA
BRANCH   6   8
ATOM      8  N   UNL d   1      53.385  33.689  54.269  0.00  0.00    -0.217 NA
BRANCH   8   9
ATOM      9  C   UNL d   1      54.095  33.763  54.691  0.00  0.00     0.084 A 
ATOM     10  C   UNL d   1      54.745  34.108  54.332  0.00  0.00     0.019 A 
ATOM     11  C   UNL d   1      55.460  34.183  54.756  0.00  0.00     0.002 A 
ATOM     12  C   UNL d   1      55.502  33.908  55.533  0.00  0.00     0.000 A 
ATOM     13  C   UNL d   1      54.840  33.567  55.869  0.00  0.00     0.002 A 
ATOM     14  C   UNL d   1      54.130  33.490  55.455  0.00  0.00     0.019 A 
ENDBRANCH   8   9
ENDBRANCH   6   8
ENDBRANCH   1   6
BRANCH   4  15
ATOM     15  C   UNL d   1      51.628  33.135  52.944  0.00  0.00     0.018 A 
ATOM     16  C   UNL d   1      51.023  33.306  53.486  0.00  0.00     0.004 A 
ATOM     17  C   UNL d   1      50.483  33.882  53.318  0.00  0.00     0.024 A 
ATOM     18  C   UNL d   1      50.519  34.315  52.601  0.00  0.00     0.094 A 
ATOM     19  C   UNL d   1      51.117  34.136  52.079  0.00  0.00     0.024 A 
ATOM     20  C   UNL d   1      51.681  33.543  52.244  0.00  0.00     0.004 A 
BRANCH  18  21
ATOM     21  O   UNL d   1      49.956  34.908  52.436  0.00  0.00    -0.328 OA
ATOM     22  C   UNL d   1      49.214  34.730  52.101  0.00  0.00     0.181 C 
ENDBRANCH  18  21
ENDBRANCH   4  15
BRANCH   3  23
ATOM     23  C   UNL d   1      52.869  30.538  53.338  0.00  0.00     0.019 A 
ATOM     24  C   UNL d   1      53.170  30.195  54.031  0.00  0.00     0.002 A 
ATOM     25  C   UNL d   1      53.303  29.377  54.066  0.00  0.00     0.000 A 
ATOM     26  C   UNL d   1      53.137  28.908  53.415  0.00  0.00     0.000 A 
ATOM     27  C   UNL d   1      52.836  29.252  52.723  0.00  0.00     0.000 A 
ATOM     28  C   UNL d   1      52.703  30.070  52.689  0.00  0.00     0.002 A 
ENDBRANCH   3  23
TORSDOF 6
ENDMDL
MODEL 3
REMARK VINA RESULT:      -7.5      1.403      3.358
REMARK  6 active torsions:
REMARK  status: ('A' for Active; 'I' for Inactive)
REMARK    1  A    between atoms: C_3  and  N_1 
REMARK    2  A    between atoms: N_7  and  C_3 
REMARK    3  A    between atoms: C_10  and  C_4 
REMARK    4  A    between atoms: C_9  and  C_5 
REMARK    5  A    between atoms: C_13  and  N_7 
REMARK    6  A    between atoms: O_17  and  C_14 
ROOT
ATOM      1  N   UNL d   1      52.274  32.863  53.163  0.00  0.00    -0.203 N 
ATOM      2  N   UNL d   1      51.577  32.997  52.760  0.00  0.00    -0.163 NA
ATOM      3  C   UNL d   1      51.363  33.763  52.871  0.00  0.00     0.103 A 
ATOM      4  C   UNL d   1      52.508  33.561  53.541  0.00  0.00     0.087 A 
ATOM      5  C   UNL d   1      51.935  34.118  53.354  0.00  0.00     0.040 A 
ENDROOT
BRANCH   1   6
ATOM      6  C   UNL d   1      52.675  32.117  53.179  0.00  0.00     0.222 C 
ATOM      7  S   UNL d   1      53.349  31.993  52.706  0.00  0.00    -0.037 SA
BRANCH   6   8
ATOM      8  N   UNL d   1      52.405  31.510  53.657  0.00  0.00    -0.217 NA
BRANCH   8   9
ATOM      9  C   UNL d   1      52.689  30.736  53.567  0.00  0.00     0.084 A 
ATOM     10  C   UNL d   1      52.578  30.343  52.858  0.00  0.00     0.019 A 
ATOM     11  C   UNL d   1      52.864  29.565  52.767  0.00  0.00     0.002 A 
ATOM     12  C   UNL d   1      53.256  29.201  53.396  0.00  0.00     0.000 A 
ATOM     13  C   UNL d   1      53.355  29.614  54.094  0.00  0.00     0.002 A 
ATOM     14  C   UNL d   1      53.074  30.384  54.189  0.00  0.00     0.019 A 
ENDBRANCH   8   9
ENDBRANCH   6   8
ENDBRANCH   1   6
BRANCH   4  15
ATOM     15  C   UNL d   1      53.174  33.692  54.011  0.00  0.00     0.018 A 
ATOM     16  C   UNL d   1      53.088  33.746  54.834  0.00  0.00     0.004 A 
ATOM     17  C   UNL d   1      53.736  33.874  55.299  0.00  0.00     0.024 A 
ATOM     18  C   UNL d   1      54.500  33.954  54.965  0.00  0.00     0.094 A 
ATOM     19  C   UNL d   1      54.569  33.899  54.156  0.00  0.00     0.024 A 
ATOM     20  C   UNL d   1      53.906  33.767  53.667  0.00  0.00     0.004 A 
BRANCH  18  21
ATOM     21  O   UNL d   1      55.163  34.086  55.454  0.00  0.00    -0.328 OA
ATOM     22  C   UNL d   1      55.939  34.110  55.148  0.00  0.00     0.181 C 
ENDBRANCH  18  21
ENDBRANCH   4  15
BRANCH   3  23
ATOM     23  C   UNL d   1      50.695  34.097  52.551  0.00  0.00     0.019 A 
ATOM     24  C   UNL d   1      50.564  34.073  51.733  0.00  0.00     0.002 A 
ATOM     25  C   UNL d   1      49.881  34.415  51.410  0.00  0.00     0.000 A 
ATOM     26  C   UNL d   1      49.335  34.777  51.901  0.00  0.00     0.000 A 
ATOM     27  C   UNL d   1      49.467  34.801  52.720  0.00  0.00     0.000 A 
ATOM     28  C   UNL d   1      50.150  34.459  53.041  0.00  0.00     0.002 A 
ENDBRANCH   3  23
TORSDOF 6
ENDMDL
MODEL 4
REMARK VINA RESULT:      -7.4      1.503      4.448
REMARK  6 active torsions:
REMARK  status: ('A' for Active; 'I' for Inactive)
REMARK    1  A    between atoms: C_3  and  N_1 
REMARK    2  A    between atoms: N_7  and  C_3 
REMARK    3  A    between atoms: C_10  and  C_4 
REMARK    4  A    between atoms: C_9  and  C_5 
REMARK    5  A    between atoms: C_13  and  N_7 
REMARK    6  A    between atoms: O_17  and  C_14 
ROOT
ATOM      1  N   UNL d   1      52.988  32.568  53.512  0.00  0.00    -0.203 N 
ATOM      2  N   UNL d   1      53.693  32.590  53.925  0.00  0.00    -0.163 NA
ATOM      3  C   UNL d   1      53.799  33.336  54.204  0.00  0.00     0.103 A 
ATOM      4  C   UNL d   1      52.639  33.318  53.530  0.00  0.00     0.087 A 
ATOM      5  C   UNL d   1      53.150  33.791  53.964  0.00  0.00     0.040 A 
ENDROOT
BRANCH   1   6
ATOM      6  C   UNL d   1      52.684  31.874  53.133  0.00  0.00     0.222 C 
ATOM      7  S   UNL d   1      52.760  31.777  52.310  0.00  0.00    -0.037 SA
BRANCH   6   8
ATOM      8  N   UNL d   1      52.312  31.292  53.572  0.00  0.00    -0.217 NA
BRANCH   8   9
ATOM      9  C   UNL d   1      52.594  30.512  53.574  0.00  0.00     0.084 A 
ATOM     10  C   UNL d   1      52.959  30.214  54.243  0.00  0.00     0.019 A 
ATOM     11  C   UNL d   1      53.244  29.430  54.245  0.00  0.00     0.002 A 
ATOM     12  C   UNL d   1      53.153  28.964  53.571  0.00  0.00     0.000 A 
ATOM     13  C   UNL d   1      52.785  29.283  52.915  0.00  0.00     0.002 A 
ATOM     14  C   UNL d   1      52.502  30.058  52.907  0.00  0.00     0.019 A 
ENDBRANCH   8   9
ENDBRANCH   6   8
ENDBRANCH   1   6
BRANCH   4  15
ATOM     15  C   UNL d   1      51.927  33.561  53.191  0.00  0.00     0.018 A 
ATOM     16  C   UNL d   1      51.933  33.925  52.445  0.00  0.00     0.004 A 
ATOM     17  C   UNL d   1      51.240  34.165  52.108  0.00  0.00     0.024 A 
ATOM     18  C   UNL d   1      50.507  34.053  52.498  0.00  0.00     0.094 A 
ATOM     19  C   UNL d   1      50.515  33.694  53.229  0.00  0.00     0.024 A 
ATOM     20  C   UNL d   1      51.227  33.443  53.585  0.00  0.00     0.004 A 
BRANCH  18  21
ATOM     21  O   UNL d   1      49.795  34.304  52.142  0.00  0.00    -0.328 OA
ATOM     22  C   UNL d   1      49.325  34.908  52.472  0.00  0.00     0.181 C 
ENDBRANCH  18  21
ENDBRANCH   4  15
BRANCH   3  23
ATOM     23  C   UNL d   1      54.443  33.566  54.643  0.00  0.00     0.019 A 
ATOM     24  C   UNL d   1      55.141  33.810  54.268  0.00  0.00     0.002 A 
ATOM     25  C   UNL d   1      55.796  34.044  54.720  0.00  0.00     0.000 A 
ATOM     26  C   UNL d   1      55.753  34.034  55.537  0.00  0.00     0.000 A 
ATOM     27  C   UNL d   1      55.054  33.790  55.912  0.00  0.00     0.000 A 
ATOM     28  C   UNL d   1      54.399  33.556  55.459  0.00  0.00     0.002 A 
ENDBRANCH   3  23
TORSDOF 6
ENDMDL
MODEL 5
REMARK VINA RESULT:      -7.1      2.140      4.895
REMARK  6 active torsions:
REMARK  status: ('A' for Active; 'I' for Inactive)
REMARK    1  A    between atoms: C_3  and  N_1 
REMARK    2  A    between atoms: N_7  and  C_3 
REMARK    3  A    between atoms: C_10  and  C_4 
REMARK    4  A    between atoms: C_9  and  C_5 
REMARK    5  A    between atoms: C_13  and  N_7 
REMARK    6  A    between atoms: O_17  and  C_14 
ROOT
ATOM      1  N   UNL d   1      52.113  33.117  52.988  0.00  0.00    -0.203 N 
ATOM      2  N   UNL d   1      52.127  32.311  52.856  0.00  0.00    -0.163 NA
ATOM      3  C   UNL d   1      52.741  31.998  53.270  0.00  0.00     0.103 A 
ATOM      4  C   UNL d   1      52.732  33.321  53.498  0.00  0.00     0.087 A 
ATOM      5  C   UNL d   1      53.119  32.617  53.669  0.00  0.00     0.040 A 
ENDROOT
BRANCH   1   6
ATOM      6  C   UNL d   1      51.543  33.642  52.645  0.00  0.00     0.222 C 
ATOM      7  S   UNL d   1      51.740  34.094  51.975  0.00  0.00    -0.037 SA
BRANCH   6   8
ATOM      8  N   UNL d   1      50.794  33.709  52.968  0.00  0.00    -0.217 NA
BRANCH   8   9
ATOM      9  C   UNL d   1      50.189  34.105  52.563  0.00  0.00     0.084 A 
ATOM     10  C   UNL d   1      50.027  33.912  51.784  0.00  0.00     0.019 A 
ATOM     11  C   UNL d   1      49.418  34.310  51.377  0.00  0.00     0.002 A 
ATOM     12  C   UNL d   1      48.985  34.895  51.766  0.00  0.00     0.000 A 
ATOM     13  C   UNL d   1      49.165  35.071  52.543  0.00  0.00     0.002 A 
ATOM     14  C   UNL d   1      49.767  34.680  52.951  0.00  0.00     0.019 A 
ENDBRANCH   8   9
ENDBRANCH   6   8
ENDBRANCH   1   6
BRANCH   4  15
ATOM     15  C   UNL d   1      52.936  34.067  53.786  0.00  0.00     0.018 A 
ATOM     16  C   UNL d   1      52.731  34.273  54.564  0.00  0.00     0.004 A 
ATOM     17  C   UNL d   1      52.928  35.002  54.851  0.00  0.00     0.024 A 
ATOM     18  C   UNL d   1      53.337  35.559  54.378  0.00  0.00     0.094 A 
ATOM     19  C   UNL d   1      53.531  35.343  53.618  0.00  0.00     0.024 A 
ATOM     20  C   UNL d   1      53.332  34.592  53.311  0.00  0.00     0.004 A 
BRANCH  18  21
ATOM     21  O   UNL d   1      53.535  36.309  54.684  0.00  0.00    -0.328 OA
ATOM     22  C   UNL d   1      53.043  36.709  55.225  0.00  0.00     0.181 C 
ENDBRANCH  18  21
ENDBRANCH   4  15
BRANCH   3  23
ATOM     23  C   UNL d   1      52.928  31.207  53.272  0.00  0.00     0.019 A 
ATOM     24  C   UNL d   1      53.620  30.940  53.641  0.00  0.00     0.002 A 
ATOM     25  C   UNL d   1      53.807  30.132  53.641  0.00  0.00     0.000 A 
ATOM     26  C   UNL d   1      53.306  29.597  53.275  0.00  0.00     0.000 A 
ATOM     27  C   UNL d   1      52.613  29.866  52.906  0.00  0.00     0.000 A 
ATOM     28  C   UNL d   1      52.427  30.674  52.907  0.00  0.00     0.002 A 
ENDBRANCH   3  23
TORSDOF 6
ENDMDL
