MODEL 1
REMARK VINA RESULT:      15.6      0.000      0.000
REMARK  4 active torsions:
REMARK  status: ('A' for Active; 'I' for Inactive)
REMARK    1  A    between atoms: C_3  and  N_1 
REMARK    2  A    between atoms: C_2  and  C_7 
REMARK       I    between atoms: N_4  and  C_2 
REMARK    3  A    between atoms: C_15  and  N_4 
REMARK    4  A    between atoms: C_8  and  C_15 
ROOT
ATOM      1  C   UNL d   1     -50.795  26.231  33.726  0.00  0.00     0.127 A 
ATOM      2  C   UNL d   1     -51.125  24.631  33.535  0.00  0.00     0.058 A 
ATOM      3  C   UNL d   1     -51.543  25.926  33.909  0.00  0.00     0.024 A 
ATOM      4  C   UNL d   1     -50.194  25.697  33.436  0.00  0.00     0.024 A 
ATOM      5  C   UNL d   1     -50.373  24.912  33.347  0.00  0.00     0.006 A 
ATOM      6  C   UNL d   1     -51.693  25.135  33.810  0.00  0.00     0.006 A 
ENDROOT
BRANCH   2   7
ATOM      7  C   UNL d   1     -51.271  23.815  33.431  0.00  0.00     0.279 C 
ATOM      8  N   UNL d   1     -52.042  23.510  33.451  0.00  0.00    -0.200 NA
ATOM      9  O   UNL d   1     -50.652  23.303  33.306  0.00  0.00    -0.265 OA
BRANCH   8  10
ATOM     10  C   UNL d   1     -52.687  24.038  33.580  0.00  0.00     0.172 C 
BRANCH  10  11
ATOM     11  C   UNL d   1     -53.427  23.746  33.762  0.00  0.00     0.231 C 
ATOM     12  O   UNL d   1     -53.519  23.234  34.416  0.00  0.00    -0.643 OA
ATOM     13  O   UNL d   1     -54.063  23.955  33.308  0.00  0.00    -0.643 OA
ENDBRANCH  10  11
ENDBRANCH   8  10
ENDBRANCH   2   7
BRANCH   1  14
ATOM     14  N   UNL d   1     -50.615  27.051  33.821  0.00  0.00    -0.114 N 
ATOM     15  O   UNL d   1     -51.218  27.636  33.811  0.00  0.00    -0.532 OA
ATOM     16  O   UNL d   1     -49.823  27.278  33.925  0.00  0.00    -0.532 OA
ENDBRANCH   1  14
TORSDOF 4
ENDMDL
