MODEL 1
REMARK VINA RESULT:      71.8      0.000      0.000
REMARK  4 active torsions:
REMARK  status: ('A' for Active; 'I' for Inactive)
REMARK    1  A    between atoms: N_4  and  S_1 
REMARK    2  A    between atoms: C_5  and  S_1 
REMARK    3  A    between atoms: C_3  and  C_9 
REMARK    4  A    between atoms: C_14  and  N_4 
ROOT
ATOM      1  S   UNL d   1     -49.631  27.452  33.903  0.00  0.00     0.285 S 
ATOM      2  O   UNL d   1     -49.088  27.630  33.311  0.00  0.00    -0.198 OA
ATOM      3  O   UNL d   1     -50.066  27.417  34.604  0.00  0.00    -0.198 OA
ENDROOT
BRANCH   1   4
ATOM      4  N   UNL d   1     -49.594  27.828  34.633  0.00  0.00    -0.158 NA
BRANCH   4   5
ATOM      5  C   UNL d   1     -48.896  28.202  34.867  0.00  0.00     0.094 A 
ATOM      6  C   UNL d   1     -48.802  29.017  34.756  0.00  0.00     0.021 A 
ATOM      7  C   UNL d   1     -48.107  29.383  34.990  0.00  0.00     0.020 A 
ATOM      8  C   UNL d   1     -47.497  28.942  35.338  0.00  0.00     0.002 A 
ATOM      9  C   UNL d   1     -47.588  28.138  35.449  0.00  0.00     0.002 A 
ATOM     10  C   UNL d   1     -48.286  27.761  35.215  0.00  0.00     0.020 A 
BRANCH   7  11
ATOM     11  C   UNL d   1     -48.013  30.198  34.879  0.00  0.00     0.088 A 
ATOM     12  N   UNL d   1     -48.295  31.107  33.813  0.00  0.00    -0.238 NA
ATOM     13  C   UNL d   1     -47.997  31.740  34.274  0.00  0.00     0.111 A 
ATOM     14  C   UNL d   1     -47.991  32.505  33.970  0.00  0.00     0.028 C 
ATOM     15  S   UNL d   1     -47.707  31.605  35.037  0.00  0.00    -0.066 SA
ATOM     16  C   UNL d   1     -47.718  30.827  35.337  0.00  0.00     0.056 A 
ENDBRANCH   7  11
ENDBRANCH   4   5
ENDBRANCH   1   4
BRANCH   1  17
ATOM     17  C   UNL d   1     -50.218  26.888  33.758  0.00  0.00     0.105 A 
ATOM     18  C   UNL d   1     -50.019  26.088  33.741  0.00  0.00     0.013 A 
ATOM     19  C   UNL d   1     -50.612  25.522  33.594  0.00  0.00     0.001 A 
ATOM     20  C   UNL d   1     -50.408  24.720  33.578  0.00  0.00     0.000 A 
ATOM     21  C   UNL d   1     -51.389  25.760  33.468  0.00  0.00     0.000 A 
ATOM     22  C   UNL d   1     -50.997  24.161  33.433  0.00  0.00     0.000 A 
ATOM     23  C   UNL d   1     -51.777  24.397  33.306  0.00  0.00     0.000 A 
ATOM     24  C   UNL d   1     -51.974  25.194  33.323  0.00  0.00     0.000 A 
ATOM     25  C   UNL d   1     -51.579  26.560  33.486  0.00  0.00     0.001 A 
ATOM     26  C   UNL d   1     -50.998  27.125  33.631  0.00  0.00     0.013 A 
ENDBRANCH   1  17
TORSDOF 4
ENDMDL
MODEL 2
REMARK VINA RESULT:      74.6      1.547      2.159
REMARK  4 active torsions:
REMARK  status: ('A' for Active; 'I' for Inactive)
REMARK    1  A    between atoms: N_4  and  S_1 
REMARK    2  A    between atoms: C_5  and  S_1 
REMARK    3  A    between atoms: C_3  and  C_9 
REMARK    4  A    between atoms: C_14  and  N_4 
ROOT
ATOM      1  S   UNL d   1     -50.967  26.398  34.188  0.00  0.00     0.285 S 
ATOM      2  O   UNL d   1     -50.857  26.586  34.981  0.00  0.00    -0.198 OA
ATOM      3  O   UNL d   1     -50.917  26.342  33.365  0.00  0.00    -0.198 OA
ENDROOT
BRANCH   1   4
ATOM      4  N   UNL d   1     -50.490  26.731  33.607  0.00  0.00    -0.158 NA
BRANCH   4   5
ATOM      5  C   UNL d   1     -49.676  26.795  33.731  0.00  0.00     0.094 A 
ATOM      6  C   UNL d   1     -49.367  27.445  34.139  0.00  0.00     0.021 A 
ATOM      7  C   UNL d   1     -48.558  27.504  34.260  0.00  0.00     0.020 A 
ATOM      8  C   UNL d   1     -48.048  26.915  33.975  0.00  0.00     0.002 A 
ATOM      9  C   UNL d   1     -48.351  26.273  33.572  0.00  0.00     0.002 A 
ATOM     10  C   UNL d   1     -49.165  26.206  33.446  0.00  0.00     0.020 A 
BRANCH   7  11
ATOM     11  C   UNL d   1     -48.249  28.154  34.668  0.00  0.00     0.088 A 
ATOM     12  N   UNL d   1     -48.558  28.809  35.900  0.00  0.00    -0.238 NA
ATOM     13  C   UNL d   1     -47.937  29.355  35.765  0.00  0.00     0.111 A 
ATOM     14  C   UNL d   1     -47.785  29.951  36.313  0.00  0.00     0.028 C 
ATOM     15  S   UNL d   1     -47.471  29.303  35.083  0.00  0.00    -0.066 SA
ATOM     16  C   UNL d   1     -47.631  28.697  34.534  0.00  0.00     0.056 A 
ENDBRANCH   7  11
ENDBRANCH   4   5
ENDBRANCH   1   4
BRANCH   1  17
ATOM     17  C   UNL d   1     -51.565  25.867  33.977  0.00  0.00     0.105 A 
ATOM     18  C   UNL d   1     -51.399  25.060  33.941  0.00  0.00     0.013 A 
ATOM     19  C   UNL d   1     -52.004  24.527  33.728  0.00  0.00     0.001 A 
ATOM     20  C   UNL d   1     -51.833  23.718  33.693  0.00  0.00     0.000 A 
ATOM     21  C   UNL d   1     -52.759  24.806  33.557  0.00  0.00     0.000 A 
ATOM     22  C   UNL d   1     -52.433  23.193  33.482  0.00  0.00     0.000 A 
ATOM     23  C   UNL d   1     -53.191  23.469  33.310  0.00  0.00     0.000 A 
ATOM     24  C   UNL d   1     -53.354  24.272  33.347  0.00  0.00     0.000 A 
ATOM     25  C   UNL d   1     -52.915  25.612  33.596  0.00  0.00     0.001 A 
ATOM     26  C   UNL d   1     -52.323  26.144  33.805  0.00  0.00     0.013 A 
ENDBRANCH   1  17
TORSDOF 4
ENDMDL
