MODEL 1
REMARK VINA RESULT:      -5.8      0.000      0.000
REMARK  4 active torsions:
REMARK  status: ('A' for Active; 'I' for Inactive)
REMARK    1  A    between atoms: S_9  and  C_1 
REMARK    2  A    between atoms: N_3  and  C_7 
REMARK    3  A    between atoms: C_13  and  S_9 
REMARK    4  A    between atoms: C_14  and  C_13 
ROOT
ATOM      1  S   UNL d   1      57.484   0.130  31.127  0.00  0.00    -0.042 SA
ENDROOT
BRANCH   1   2
ATOM      2  C   UNL d   1      57.988  -0.082  30.517  0.00  0.00     0.215 A 
ATOM      3  N   UNL d   1      58.567   0.405  30.204  0.00  0.00    -0.214 NA
ATOM      4  C   UNL d   1      58.936  -0.011  29.619  0.00  0.00     0.107 A 
ATOM      5  C   UNL d   1      59.556   0.185  29.111  0.00  0.00     0.021 A 
ATOM      6  C   UNL d   1      58.592  -0.752  29.566  0.00  0.00     0.120 A 
ATOM      7  C   UNL d   1      59.836  -0.352  28.550  0.00  0.00     0.002 A 
ATOM      8  C   UNL d   1      59.492  -1.093  28.497  0.00  0.00     0.002 A 
ATOM      9  C   UNL d   1      58.873  -1.289  29.005  0.00  0.00     0.026 A 
ATOM     10  O   UNL d   1      58.005  -0.806  30.116  0.00  0.00    -0.283 OA
ENDBRANCH   1   2
BRANCH   1  11
ATOM     11  C   UNL d   1      57.001  -0.455  31.450  0.00  0.00     0.039 C 
BRANCH  11  12
ATOM     12  C   UNL d   1      56.523  -0.273  32.083  0.00  0.00     0.007 A 
ATOM     13  C   UNL d   1      56.337   0.493  32.243  0.00  0.00     0.002 A 
ATOM     14  C   UNL d   1      55.845   0.681  32.895  0.00  0.00     0.024 A 
ATOM     15  C   UNL d   1      55.549   0.099  33.373  0.00  0.00     0.127 A 
ATOM     16  C   UNL d   1      55.738  -0.716  33.216  0.00  0.00     0.024 A 
ATOM     17  C   UNL d   1      56.232  -0.881  32.559  0.00  0.00     0.002 A 
BRANCH  15  18
ATOM     18  N   UNL d   1      55.075   0.330  33.995  0.00  0.00    -0.114 N 
ATOM     19  O   UNL d   1      54.308   0.494  33.822  0.00  0.00    -0.532 OA
ATOM     20  O   UNL d   1      55.380   0.390  34.774  0.00  0.00    -0.532 OA
ENDBRANCH  15  18
ENDBRANCH  11  12
ENDBRANCH   1  11
TORSDOF 4
ENDMDL
MODEL 2
REMARK VINA RESULT:      -4.4      1.433      5.137
REMARK  4 active torsions:
REMARK  status: ('A' for Active; 'I' for Inactive)
REMARK    1  A    between atoms: S_9  and  C_1 
REMARK    2  A    between atoms: N_3  and  C_7 
REMARK    3  A    between atoms: C_13  and  S_9 
REMARK    4  A    between atoms: C_14  and  C_13 
ROOT
ATOM      1  S   UNL d   1      57.398  -0.356  31.540  0.00  0.00    -0.042 SA
ENDROOT
BRANCH   1   2
ATOM      2  C   UNL d   1      56.930  -0.153  32.181  0.00  0.00     0.215 A 
ATOM      3  N   UNL d   1      56.136  -0.341  32.253  0.00  0.00    -0.214 NA
ATOM      4  C   UNL d   1      55.885  -0.042  32.960  0.00  0.00     0.107 A 
ATOM      5  C   UNL d   1      55.149  -0.056  33.333  0.00  0.00     0.021 A 
ATOM      6  C   UNL d   1      56.516   0.329  33.328  0.00  0.00     0.120 A 
ATOM      7  C   UNL d   1      55.037   0.297  34.070  0.00  0.00     0.002 A 
ATOM      8  C   UNL d   1      55.667   0.669  34.438  0.00  0.00     0.002 A 
ATOM      9  C   UNL d   1      56.402   0.682  34.065  0.00  0.00     0.026 A 
ATOM     10  O   UNL d   1      57.166   0.266  32.855  0.00  0.00    -0.283 OA
ENDBRANCH   1   2
BRANCH   1  11
ATOM     11  C   UNL d   1      57.602   0.240  31.007  0.00  0.00     0.039 C 
BRANCH  11  12
ATOM     12  C   UNL d   1      58.181   0.098  30.452  0.00  0.00     0.007 A 
ATOM     13  C   UNL d   1      58.832   0.569  30.417  0.00  0.00     0.002 A 
ATOM     14  C   UNL d   1      59.428   0.423  29.846  0.00  0.00     0.024 A 
ATOM     15  C   UNL d   1      59.360  -0.191  29.323  0.00  0.00     0.127 A 
ATOM     16  C   UNL d   1      58.677  -0.698  29.349  0.00  0.00     0.024 A 
ATOM     17  C   UNL d   1      58.094  -0.533  29.928  0.00  0.00     0.002 A 
BRANCH  15  18
ATOM     18  N   UNL d   1      59.965  -0.294  28.787  0.00  0.00    -0.114 N 
ATOM     19  O   UNL d   1      60.149  -1.051  28.591  0.00  0.00    -0.532 OA
ATOM     20  O   UNL d   1      60.371   0.364  28.459  0.00  0.00    -0.532 OA
ENDBRANCH  15  18
ENDBRANCH  11  12
ENDBRANCH   1  11
TORSDOF 4
ENDMDL
