MODEL 1
REMARK VINA RESULT:      48.1      0.000      0.000
REMARK  3 active torsions:
REMARK  status: ('A' for Active; 'I' for Inactive)
REMARK    1  A    between atoms: C_12  and  N_3 
REMARK    2  A    between atoms: C_11  and  C_6 
REMARK    3  A    between atoms: C_22  and  C_12 
ROOT
ATOM      1  C   UNL d   1      58.986  49.704  50.241  0.00  0.00     0.130 A 
ATOM      2  C   UNL d   1      58.670  49.702  51.003  0.00  0.00     0.157 A 
ATOM      3  N   UNL d   1      60.309  49.703  50.789  0.00  0.00    -0.256 N 
ATOM      4  C   UNL d   1      59.803  49.705  50.139  0.00  0.00     0.272 A 
ATOM      5  N   UNL d   1      59.169  49.700  51.663  0.00  0.00    -0.208 NA
ATOM      6  C   UNL d   1      59.986  49.701  51.562  0.00  0.00     0.175 A 
ATOM      7  C   UNL d   1      58.489  49.705  49.589  0.00  0.00     0.204 A 
ATOM      8  N   UNL d   1      57.849  49.701  51.116  0.00  0.00    -0.289 N 
ATOM      9  C   UNL d   1      57.669  49.705  49.694  0.00  0.00     0.055 A 
ATOM     10  C   UNL d   1      57.347  49.702  50.453  0.00  0.00     0.069 A 
ATOM     11  O   UNL d   1      60.126  49.707  49.380  0.00  0.00    -0.266 OA
ATOM     12  O   UNL d   1      58.807  49.708  48.829  0.00  0.00    -0.286 OA
ATOM     13  C   UNL d   1      57.526  49.698  51.875  0.00  0.00     0.101 C 
ATOM     14  C   UNL d   1      57.175  49.706  49.036  0.00  0.00     0.005 A 
ATOM     15  C   UNL d   1      56.530  49.702  50.555  0.00  0.00     0.018 A 
ATOM     16  C   UNL d   1      56.358  49.706  49.137  0.00  0.00     0.000 A 
ATOM     17  C   UNL d   1      56.035  49.703  49.896  0.00  0.00     0.002 A 
ENDROOT
BRANCH   6  18
ATOM     18  C   UNL d   1      60.494  49.699  52.222  0.00  0.00     0.135 A 
ATOM     19  O   UNL d   1      60.171  49.708  52.981  0.00  0.00    -0.302 OA
ATOM     20  C   UNL d   1      60.797  49.704  53.519  0.00  0.00     0.123 A 
ATOM     21  C   UNL d   1      61.505  49.693  53.091  0.00  0.00     0.029 A 
ATOM     22  C   UNL d   1      61.315  49.690  52.290  0.00  0.00     0.030 A 
ENDBRANCH   6  18
BRANCH   3  23
ATOM     23  C   UNL d   1      61.132  49.704  50.686  0.00  0.00     0.085 C 
BRANCH  23  24
ATOM     24  C   UNL d   1      61.471  49.289  50.048  0.00  0.00     0.018 C 
ATOM     25  C   UNL d   1      61.702  49.708  49.356  0.00  0.00     0.002 C 
ATOM     26  C   UNL d   1      61.582  48.464  50.092  0.00  0.00     0.002 C 
ENDBRANCH  23  24
ENDBRANCH   3  23
TORSDOF 3
ENDMDL
