MODEL 1
REMARK VINA RESULT:      -3.4      0.000      0.000
REMARK  5 active torsions:
REMARK  status: ('A' for Active; 'I' for Inactive)
REMARK    1  A    between atoms: N_2  and  S_1 
REMARK    2  A    between atoms: C_4  and  S_1 
REMARK    3  A    between atoms: C_5  and  N_3 
REMARK    4  A    between atoms: C_11  and  C_4 
REMARK    5  A    between atoms: C_15  and  C_11 
ROOT
ATOM      1  N   UNL d   1      32.981  19.470 -22.608  0.00  0.00    -0.226 N 
ATOM      2  N   UNL d   1      32.766  18.076 -23.446  0.00  0.00    -0.301 N 
ATOM      3  C   UNL d   1      32.669  19.496 -23.364  0.00  0.00     0.111 A 
ATOM      4  C   UNL d   1      33.187  18.747 -22.270  0.00  0.00     0.111 A 
ATOM      5  C   UNL d   1      33.078  18.059 -22.690  0.00  0.00     0.100 A 
ATOM      6  C   UNL d   1      32.561  18.799 -23.785  0.00  0.00     0.100 A 
ENDROOT
BRANCH   1   7
ATOM      7  S   UNL d   1      33.090  20.184 -22.182  0.00  0.00     0.272 S 
ATOM      8  O   UNL d   1      32.937  19.779 -21.467  0.00  0.00    -0.200 OA
ATOM      9  O   UNL d   1      33.241  20.582 -22.892  0.00  0.00    -0.200 OA
BRANCH   7  10
ATOM     10  C   UNL d   1      33.197  20.887 -21.760  0.00  0.00     0.116 C 
BRANCH  10  11
ATOM     11  C   UNL d   1      32.630  21.117 -21.189  0.00  0.00     0.014 C 
BRANCH  11  12
ATOM     12  C   UNL d   1      32.648  21.884 -20.875  0.00  0.00     0.001 A 
ATOM     13  C   UNL d   1      32.152  22.475 -21.198  0.00  0.00     0.000 A 
ATOM     14  C   UNL d   1      32.167  23.249 -20.885  0.00  0.00     0.000 A 
ATOM     15  C   UNL d   1      32.671  23.430 -20.253  0.00  0.00     0.000 A 
ATOM     16  C   UNL d   1      33.171  22.840 -19.924  0.00  0.00     0.000 A 
ATOM     17  C   UNL d   1      33.157  22.066 -20.238  0.00  0.00     0.000 A 
ENDBRANCH  11  12
ENDBRANCH  10  11
ENDBRANCH   7  10
ENDBRANCH   1   7
BRANCH   2  18
ATOM     18  C   UNL d   1      32.660  17.382 -23.861  0.00  0.00     0.065 A 
ATOM     19  C   UNL d   1      31.972  16.954 -23.763  0.00  0.00     0.029 A 
ATOM     20  C   UNL d   1      31.864  16.262 -24.175  0.00  0.00     0.059 A 
ATOM     21 CL   UNL d   1      31.165  15.825 -24.078  0.00  0.00    -0.082 Cl
ATOM     22  C   UNL d   1      32.447  15.992 -24.690  0.00  0.00     0.011 A 
ATOM     23  C   UNL d   1      33.134  16.424 -24.784  0.00  0.00     0.002 A 
ATOM     24  C   UNL d   1      33.241  17.118 -24.370  0.00  0.00     0.018 A 
ENDBRANCH   2  18
TORSDOF 5
ENDMDL
MODEL 2
REMARK VINA RESULT:      -3.0      2.041      5.674
REMARK  5 active torsions:
REMARK  status: ('A' for Active; 'I' for Inactive)
REMARK    1  A    between atoms: N_2  and  S_1 
REMARK    2  A    between atoms: C_4  and  S_1 
REMARK    3  A    between atoms: C_5  and  N_3 
REMARK    4  A    between atoms: C_11  and  C_4 
REMARK    5  A    between atoms: C_15  and  C_11 
ROOT
ATOM      1  N   UNL d   1      33.044  20.271 -22.236  0.00  0.00    -0.226 N 
ATOM      2  N   UNL d   1      32.863  21.638 -21.349  0.00  0.00    -0.301 N 
ATOM      3  C   UNL d   1      33.241  20.994 -22.562  0.00  0.00     0.111 A 
ATOM      4  C   UNL d   1      32.757  20.229 -21.465  0.00  0.00     0.111 A 
ATOM      5  C   UNL d   1      32.669  20.911 -21.029  0.00  0.00     0.100 A 
ATOM      6  C   UNL d   1      33.151  21.680 -22.120  0.00  0.00     0.100 A 
ENDROOT
BRANCH   1   7
ATOM      7  S   UNL d   1      33.138  19.573 -22.692  0.00  0.00     0.272 S 
ATOM      8  O   UNL d   1      33.238  19.130 -21.990  0.00  0.00    -0.200 OA
ATOM      9  O   UNL d   1      33.038  20.015 -23.385  0.00  0.00    -0.200 OA
BRANCH   7  10
ATOM     10  C   UNL d   1      33.231  18.884 -23.139  0.00  0.00     0.116 C 
BRANCH  10  11
ATOM     11  C   UNL d   1      32.842  18.182 -22.904  0.00  0.00     0.014 C 
BRANCH  11  12
ATOM     12  C   UNL d   1      32.846  17.519 -23.402  0.00  0.00     0.001 A 
ATOM     13  C   UNL d   1      33.231  16.819 -23.155  0.00  0.00     0.000 A 
ATOM     14  C   UNL d   1      33.238  16.149 -23.653  0.00  0.00     0.000 A 
ATOM     15  C   UNL d   1      32.864  16.178 -24.391  0.00  0.00     0.000 A 
ATOM     16  C   UNL d   1      32.476  16.879 -24.645  0.00  0.00     0.000 A 
ATOM     17  C   UNL d   1      32.468  17.550 -24.147  0.00  0.00     0.000 A 
ENDBRANCH  11  12
ENDBRANCH  10  11
ENDBRANCH   7  10
ENDBRANCH   1   7
BRANCH   2  18
ATOM     18  C   UNL d   1      32.772  22.317 -20.905  0.00  0.00     0.065 A 
ATOM     19  C   UNL d   1      33.044  22.336 -20.136  0.00  0.00     0.029 A 
ATOM     20  C   UNL d   1      32.954  23.011 -19.692  0.00  0.00     0.059 A 
ATOM     21 CL   UNL d   1      33.229  23.034 -18.910  0.00  0.00    -0.082 Cl
ATOM     22  C   UNL d   1      32.590  23.675 -20.017  0.00  0.00     0.011 A 
ATOM     23  C   UNL d   1      32.320  23.649 -20.788  0.00  0.00     0.002 A 
ATOM     24  C   UNL d   1      32.411  22.971 -21.232  0.00  0.00     0.018 A 
ENDBRANCH   2  18
TORSDOF 5
ENDMDL
MODEL 3
REMARK VINA RESULT:      -2.0      1.972      5.590
REMARK  5 active torsions:
REMARK  status: ('A' for Active; 'I' for Inactive)
REMARK    1  A    between atoms: N_2  and  S_1 
REMARK    2  A    between atoms: C_4  and  S_1 
REMARK    3  A    between atoms: C_5  and  N_3 
REMARK    4  A    between atoms: C_11  and  C_4 
REMARK    5  A    between atoms: C_15  and  C_11 
ROOT
ATOM      1  N   UNL d   1      33.196  19.705 -22.871  0.00  0.00    -0.226 N 
ATOM      2  N   UNL d   1      33.184  21.137 -22.071  0.00  0.00    -0.301 N 
ATOM      3  C   UNL d   1      33.241  20.405 -23.292  0.00  0.00     0.111 A 
ATOM      4  C   UNL d   1      33.144  19.719 -22.049  0.00  0.00     0.111 A 
ATOM      5  C   UNL d   1      33.139  20.433 -21.657  0.00  0.00     0.100 A 
ATOM      6  C   UNL d   1      33.235  21.123 -22.893  0.00  0.00     0.100 A 
ENDROOT
BRANCH   1   7
ATOM      7  S   UNL d   1      33.202  18.975 -23.283  0.00  0.00     0.272 S 
ATOM      8  O   UNL d   1      33.165  19.386 -24.010  0.00  0.00    -0.200 OA
ATOM      9  O   UNL d   1      33.238  18.571 -22.561  0.00  0.00    -0.200 OA
BRANCH   7  10
ATOM     10  C   UNL d   1      33.208  18.256 -23.692  0.00  0.00     0.116 C 
BRANCH  10  11
ATOM     11  C   UNL d   1      32.666  18.130 -24.316  0.00  0.00     0.014 C 
BRANCH  11  12
ATOM     12  C   UNL d   1      32.460  17.358 -24.536  0.00  0.00     0.001 A 
ATOM     13  C   UNL d   1      31.678  17.088 -24.417  0.00  0.00     0.000 A 
ATOM     14  C   UNL d   1      31.466  16.311 -24.637  0.00  0.00     0.000 A 
ATOM     15  C   UNL d   1      32.032  15.808 -24.974  0.00  0.00     0.000 A 
ATOM     16  C   UNL d   1      32.820  16.073 -25.096  0.00  0.00     0.000 A 
ATOM     17  C   UNL d   1      33.032  16.851 -24.876  0.00  0.00     0.000 A 
ENDBRANCH  11  12
ENDBRANCH  10  11
ENDBRANCH   7  10
ENDBRANCH   1   7
BRANCH   2  18
ATOM     18  C   UNL d   1      33.178  21.847 -21.670  0.00  0.00     0.065 A 
ATOM     19  C   UNL d   1      33.108  21.852 -20.857  0.00  0.00     0.029 A 
ATOM     20  C   UNL d   1      33.102  22.559 -20.455  0.00  0.00     0.059 A 
ATOM     21 CL   UNL d   1      33.031  22.567 -19.629  0.00  0.00    -0.082 Cl
ATOM     22  C   UNL d   1      33.165  23.269 -20.867  0.00  0.00     0.011 A 
ATOM     23  C   UNL d   1      33.235  23.258 -21.682  0.00  0.00     0.002 A 
ATOM     24  C   UNL d   1      33.241  22.548 -22.083  0.00  0.00     0.018 A 
ENDBRANCH   2  18
TORSDOF 5
ENDMDL
MODEL 4
REMARK VINA RESULT:      -0.5      1.266      2.022
REMARK  5 active torsions:
REMARK  status: ('A' for Active; 'I' for Inactive)
REMARK    1  A    between atoms: N_2  and  S_1 
REMARK    2  A    between atoms: C_4  and  S_1 
REMARK    3  A    between atoms: C_5  and  N_3 
REMARK    4  A    between atoms: C_11  and  C_4 
REMARK    5  A    between atoms: C_15  and  C_11 
ROOT
ATOM      1  N   UNL d   1      32.922  20.942 -21.683  0.00  0.00    -0.226 N 
ATOM      2  N   UNL d   1      32.762  19.740 -22.787  0.00  0.00    -0.301 N 
ATOM      3  C   UNL d   1      33.241  21.034 -22.431  0.00  0.00     0.111 A 
ATOM      4  C   UNL d   1      32.522  20.249 -21.486  0.00  0.00     0.111 A 
ATOM      5  C   UNL d   1      32.445  19.655 -22.038  0.00  0.00     0.100 A 
ATOM      6  C   UNL d   1      33.162  20.433 -22.985  0.00  0.00     0.100 A 
ENDROOT
BRANCH   1   7
ATOM      7  S   UNL d   1      33.005  21.558 -21.120  0.00  0.00     0.272 S 
ATOM      8  O   UNL d   1      32.767  22.114 -21.697  0.00  0.00    -0.200 OA
ATOM      9  O   UNL d   1      33.241  21.004 -20.552  0.00  0.00    -0.200 OA
BRANCH   7  10
ATOM     10  C   UNL d   1      33.087  22.168 -20.568  0.00  0.00     0.116 C 
BRANCH  10  11
ATOM     11  C   UNL d   1      32.405  22.543 -20.263  0.00  0.00     0.014 C 
BRANCH  11  12
ATOM     12  C   UNL d   1      32.438  22.930 -19.530  0.00  0.00     0.001 A 
ATOM     13  C   UNL d   1      33.159  22.954 -19.107  0.00  0.00     0.000 A 
ATOM     14  C   UNL d   1      33.196  23.342 -18.369  0.00  0.00     0.000 A 
ATOM     15  C   UNL d   1      32.520  23.702 -18.056  0.00  0.00     0.000 A 
ATOM     16  C   UNL d   1      31.792  23.681 -18.476  0.00  0.00     0.000 A 
ATOM     17  C   UNL d   1      31.754  23.293 -19.215  0.00  0.00     0.000 A 
ENDBRANCH  11  12
ENDBRANCH  10  11
ENDBRANCH   7  10
ENDBRANCH   1   7
BRANCH   2  18
ATOM     18  C   UNL d   1      32.681  19.141 -23.335  0.00  0.00     0.065 A 
ATOM     19  C   UNL d   1      32.637  18.366 -23.082  0.00  0.00     0.029 A 
ATOM     20  C   UNL d   1      32.556  17.767 -23.626  0.00  0.00     0.059 A 
ATOM     21 CL   UNL d   1      32.512  16.978 -23.372  0.00  0.00    -0.082 Cl
ATOM     22  C   UNL d   1      32.519  17.940 -24.430  0.00  0.00     0.011 A 
ATOM     23  C   UNL d   1      32.563  18.718 -24.677  0.00  0.00     0.002 A 
ATOM     24  C   UNL d   1      32.644  19.317 -24.131  0.00  0.00     0.018 A 
ENDBRANCH   2  18
TORSDOF 5
ENDMDL
