MODEL 1
REMARK VINA RESULT:      -5.6      0.000      0.000
REMARK  5 active torsions:
REMARK  status: ('A' for Active; 'I' for Inactive)
REMARK    1  A    between atoms: C_12  and  N_1 
REMARK    2  A    between atoms: C_6  and  C_5 
REMARK    3  A    between atoms: C_7  and  C_6 
REMARK       I    between atoms: N_9  and  C_7 
REMARK    4  A    between atoms: C_13  and  N_9 
REMARK    5  A    between atoms: C_16  and  C_12 
ROOT
ATOM      1  N   UNL d   1     -41.848-122.528 -54.079  0.00  0.00    -0.235 N 
ATOM      2  C   UNL d   1     -41.391-123.199 -53.926  0.00  0.00     0.298 A 
ATOM      3  C   UNL d   1     -41.865-122.062 -53.409  0.00  0.00     0.274 A 
ATOM      4  S   UNL d   1     -41.123-123.144 -53.146  0.00  0.00    -0.022 SA
ATOM      5  C   UNL d   1     -41.415-122.442 -52.827  0.00  0.00     0.095 A 
ATOM      6  O   UNL d   1     -41.226-123.817 -54.447  0.00  0.00    -0.259 OA
ATOM      7  O   UNL d   1     -42.255-121.348 -53.323  0.00  0.00    -0.266 OA
ENDROOT
BRANCH   5   8
ATOM      8  C   UNL d   1     -41.282-122.166 -52.057  0.00  0.00     0.074 C 
BRANCH   8   9
ATOM      9  C   UNL d   1     -41.528-122.616 -51.410  0.00  0.00     0.280 C 
ATOM     10  N   UNL d   1     -41.784-122.243 -50.721  0.00  0.00    -0.208 NA
ATOM     11  O   UNL d   1     -41.517-123.444 -51.454  0.00  0.00    -0.265 OA
BRANCH  10  12
ATOM     12  C   UNL d   1     -42.029-122.693 -50.077  0.00  0.00     0.085 A 
ATOM     13  C   UNL d   1     -41.478-123.112 -49.631  0.00  0.00     0.019 A 
ATOM     14  C   UNL d   1     -41.726-123.564 -48.985  0.00  0.00     0.002 A 
ATOM     15  C   UNL d   1     -42.526-123.596 -48.786  0.00  0.00     0.000 A 
ATOM     16  C   UNL d   1     -43.080-123.173 -49.237  0.00  0.00     0.002 A 
ATOM     17  C   UNL d   1     -42.826-122.726 -49.878  0.00  0.00     0.019 A 
ENDBRANCH  10  12
ENDBRANCH   8   9
ENDBRANCH   5   8
BRANCH   1  18
ATOM     18  C   UNL d   1     -42.223-122.359 -54.791  0.00  0.00     0.086 C 
BRANCH  18  19
ATOM     19  C   UNL d   1     -41.855-121.895 -55.362  0.00  0.00     0.019 C 
ATOM     20  C   UNL d   1     -42.250-121.702 -56.055  0.00  0.00     0.002 C 
ENDBRANCH  18  19
ENDBRANCH   1  18
TORSDOF 5
ENDMDL
MODEL 2
REMARK VINA RESULT:      -5.3      1.152      4.638
REMARK  5 active torsions:
REMARK  status: ('A' for Active; 'I' for Inactive)
REMARK    1  A    between atoms: C_12  and  N_1 
REMARK    2  A    between atoms: C_6  and  C_5 
REMARK    3  A    between atoms: C_7  and  C_6 
REMARK       I    between atoms: N_9  and  C_7 
REMARK    4  A    between atoms: C_13  and  N_9 
REMARK    5  A    between atoms: C_16  and  C_12 
ROOT
ATOM      1  N   UNL d   1     -42.248-122.996 -50.026  0.00  0.00    -0.235 N 
ATOM      2  C   UNL d   1     -42.637-122.327 -50.316  0.00  0.00     0.298 A 
ATOM      3  C   UNL d   1     -41.643-123.191 -50.539  0.00  0.00     0.274 A 
ATOM      4  S   UNL d   1     -42.263-122.108 -51.020  0.00  0.00    -0.022 SA
ATOM      5  C   UNL d   1     -41.650-122.641 -51.158  0.00  0.00     0.095 A 
ATOM      6  O   UNL d   1     -43.281-121.939 -49.975  0.00  0.00    -0.259 OA
ATOM      7  O   UNL d   1     -41.123-123.817 -50.458  0.00  0.00    -0.266 OA
ENDROOT
BRANCH   5   8
ATOM      8  C   UNL d   1     -41.130-122.629 -51.803  0.00  0.00     0.074 C 
BRANCH   8   9
ATOM      9  C   UNL d   1     -41.427-122.687 -52.571  0.00  0.00     0.280 C 
ATOM     10  N   UNL d   1     -41.223-122.123 -53.137  0.00  0.00    -0.208 NA
ATOM     11  O   UNL d   1     -41.932-123.313 -52.774  0.00  0.00    -0.265 OA
BRANCH  10  12
ATOM     12  C   UNL d   1     -41.520-122.183 -53.902  0.00  0.00     0.085 A 
ATOM     13  C   UNL d   1     -41.205-122.733 -54.427  0.00  0.00     0.019 A 
ATOM     14  C   UNL d   1     -41.504-122.792 -55.195  0.00  0.00     0.002 A 
ATOM     15  C   UNL d   1     -42.120-122.299 -55.436  0.00  0.00     0.000 A 
ATOM     16  C   UNL d   1     -42.437-121.745 -54.906  0.00  0.00     0.002 A 
ATOM     17  C   UNL d   1     -42.133-121.693 -54.144  0.00  0.00     0.019 A 
ENDBRANCH  10  12
ENDBRANCH   8   9
ENDBRANCH   5   8
BRANCH   1  18
ATOM     18  C   UNL d   1     -42.442-123.396 -49.335  0.00  0.00     0.086 C 
BRANCH  18  19
ATOM     19  C   UNL d   1     -42.314-123.052 -48.599  0.00  0.00     0.019 C 
ATOM     20  C   UNL d   1     -42.418-123.493 -47.913  0.00  0.00     0.002 C 
ENDBRANCH  18  19
ENDBRANCH   1  18
TORSDOF 5
ENDMDL
MODEL 3
REMARK VINA RESULT:      -2.8      1.470      2.432
REMARK  5 active torsions:
REMARK  status: ('A' for Active; 'I' for Inactive)
REMARK    1  A    between atoms: C_12  and  N_1 
REMARK    2  A    between atoms: C_6  and  C_5 
REMARK    3  A    between atoms: C_7  and  C_6 
REMARK       I    between atoms: N_9  and  C_7 
REMARK    4  A    between atoms: C_13  and  N_9 
REMARK    5  A    between atoms: C_16  and  C_12 
ROOT
ATOM      1  N   UNL d   1     -41.429-122.281 -52.068  0.00  0.00    -0.235 N 
ATOM      2  C   UNL d   1     -41.462-121.664 -51.519  0.00  0.00     0.298 A 
ATOM      3  C   UNL d   1     -41.748-122.952 -51.730  0.00  0.00     0.274 A 
ATOM      4  S   UNL d   1     -41.809-121.963 -50.830  0.00  0.00    -0.022 SA
ATOM      5  C   UNL d   1     -41.985-122.758 -50.960  0.00  0.00     0.095 A 
ATOM      6  O   UNL d   1     -41.201-120.888 -51.626  0.00  0.00    -0.259 OA
ATOM      7  O   UNL d   1     -41.821-123.686 -52.084  0.00  0.00    -0.266 OA
ENDROOT
BRANCH   5   8
ATOM      8  C   UNL d   1     -42.338-123.273 -50.416  0.00  0.00     0.074 C 
BRANCH   8   9
ATOM      9  C   UNL d   1     -42.239-123.146 -49.606  0.00  0.00     0.280 C 
ATOM     10  N   UNL d   1     -42.100-123.784 -49.102  0.00  0.00    -0.208 NA
ATOM     11  O   UNL d   1     -42.278-122.377 -49.299  0.00  0.00    -0.265 OA
BRANCH  10  12
ATOM     12  C   UNL d   1     -42.001-123.656 -48.296  0.00  0.00     0.085 A 
ATOM     13  C   UNL d   1     -42.658-123.575 -47.805  0.00  0.00     0.019 A 
ATOM     14  C   UNL d   1     -42.557-123.446 -46.995  0.00  0.00     0.002 A 
ATOM     15  C   UNL d   1     -41.797-123.398 -46.677  0.00  0.00     0.000 A 
ATOM     16  C   UNL d   1     -41.136-123.481 -47.172  0.00  0.00     0.002 A 
ATOM     17  C   UNL d   1     -41.245-123.608 -47.976  0.00  0.00     0.019 A 
ENDBRANCH  10  12
ENDBRANCH   8   9
ENDBRANCH   5   8
BRANCH   1  18
ATOM     18  C   UNL d   1     -41.123-122.224 -52.829  0.00  0.00     0.086 C 
BRANCH  18  19
ATOM     19  C   UNL d   1     -41.596-122.370 -53.485  0.00  0.00     0.019 C 
ATOM     20  C   UNL d   1     -41.620-121.833 -54.106  0.00  0.00     0.002 C 
ENDBRANCH  18  19
ENDBRANCH   1  18
TORSDOF 5
ENDMDL
