MODEL 1
REMARK VINA RESULT:      47.3      0.000      0.000
REMARK  8 active torsions:
REMARK  status: ('A' for Active; 'I' for Inactive)
REMARK    1  A    between atoms: N_2  and  C_1 
REMARK    2  A    between atoms: N_3  and  C_1 
REMARK    3  A    between atoms: C_6  and  C_1 
REMARK       I    between atoms: C_4  and  N_2 
REMARK       I    between atoms: C_5  and  N_3 
REMARK    4  A    between atoms: O_11  and  C_4 
REMARK    5  A    between atoms: O_12  and  C_5 
REMARK    6  A    between atoms: C_10  and  C_6 
REMARK    7  A    between atoms: C_15  and  O_11 
REMARK    8  A    between atoms: C_16  and  O_12 
ROOT
ATOM      1  C   UNL d   1      60.434  48.690  50.508  0.00  0.00     0.211 C 
ENDROOT
BRANCH   1   2
ATOM      2  N   UNL d   1      60.682  48.095  50.009  0.00  0.00    -0.163 NA
ATOM      3  C   UNL d   1      60.934  47.377  50.317  0.00  0.00     0.394 C 
ATOM      4  O   UNL d   1      60.944  47.236  51.132  0.00  0.00    -0.236 OA
BRANCH   3   5
ATOM      5  O   UNL d   1      61.185  46.775  49.812  0.00  0.00    -0.256 OA
BRANCH   5   6
ATOM      6  C   UNL d   1      61.783  46.245  50.056  0.00  0.00     0.128 C 
ATOM      7  C   UNL d   1      62.543  46.298  49.741  0.00  0.00     0.029 C 
ENDBRANCH   5   6
ENDBRANCH   3   5
ENDBRANCH   1   2
BRANCH   1   8
ATOM      8  N   UNL d   1      59.632  48.733  50.765  0.00  0.00    -0.163 NA
ATOM      9  C   UNL d   1      59.056  49.096  50.303  0.00  0.00     0.394 C 
ATOM     10  O   UNL d   1      59.280  49.416  49.585  0.00  0.00    -0.236 OA
BRANCH   9  11
ATOM     11  O   UNL d   1      58.259  49.137  50.560  0.00  0.00    -0.256 OA
BRANCH  11  12
ATOM     12  C   UNL d   1      57.938  49.706  50.411  0.00  0.00     0.128 C 
ATOM     13  C   UNL d   1      57.101  49.649  50.282  0.00  0.00     0.029 C 
ENDBRANCH  11  12
ENDBRANCH   9  11
ENDBRANCH   1   8
BRANCH   1  14
ATOM     14  C   UNL d   1      60.975  49.268  50.773  0.00  0.00     0.231 C 
ATOM     15  O   UNL d   1      61.411  49.708  50.226  0.00  0.00    -0.283 OA
BRANCH  14  16
ATOM     16  C   UNL d   1      61.085  49.411  51.599  0.00  0.00     0.042 A 
ATOM     17  C   UNL d   1      61.844  49.430  51.911  0.00  0.00     0.003 A 
ATOM     18  C   UNL d   1      61.967  49.568  52.711  0.00  0.00     0.000 A 
ATOM     19  C   UNL d   1      61.305  49.692  53.219  0.00  0.00     0.000 A 
ATOM     20  C   UNL d   1      60.557  49.670  52.898  0.00  0.00     0.000 A 
ATOM     21  C   UNL d   1      60.441  49.531  52.093  0.00  0.00     0.003 A 
ENDBRANCH  14  16
ENDBRANCH   1  14
TORSDOF 8
ENDMDL
MODEL 2
REMARK VINA RESULT:      50.3      1.018      3.002
REMARK  8 active torsions:
REMARK  status: ('A' for Active; 'I' for Inactive)
REMARK    1  A    between atoms: N_2  and  C_1 
REMARK    2  A    between atoms: N_3  and  C_1 
REMARK    3  A    between atoms: C_6  and  C_1 
REMARK       I    between atoms: C_4  and  N_2 
REMARK       I    between atoms: C_5  and  N_3 
REMARK    4  A    between atoms: O_11  and  C_4 
REMARK    5  A    between atoms: O_12  and  C_5 
REMARK    6  A    between atoms: C_10  and  C_6 
REMARK    7  A    between atoms: C_15  and  O_11 
REMARK    8  A    between atoms: C_16  and  O_12 
ROOT
ATOM      1  C   UNL d   1      59.956  48.806  50.715  0.00  0.00     0.211 C 
ENDROOT
BRANCH   1   2
ATOM      2  N   UNL d   1      59.854  48.001  50.798  0.00  0.00    -0.163 NA
ATOM      3  C   UNL d   1      60.464  47.486  50.606  0.00  0.00     0.394 C 
ATOM      4  O   UNL d   1      61.192  47.764  50.329  0.00  0.00    -0.236 OA
BRANCH   3   5
ATOM      5  O   UNL d   1      60.360  46.672  50.690  0.00  0.00    -0.256 OA
BRANCH   5   6
ATOM      6  C   UNL d   1      60.985  46.149  50.506  0.00  0.00     0.128 C 
ATOM      7  C   UNL d   1      60.838  45.347  50.388  0.00  0.00     0.029 C 
ENDBRANCH   5   6
ENDBRANCH   3   5
ENDBRANCH   1   2
BRANCH   1   8
ATOM      8  N   UNL d   1      60.626  49.192  51.050  0.00  0.00    -0.163 NA
ATOM      9  C   UNL d   1      60.682  49.322  51.861  0.00  0.00     0.394 C 
ATOM     10  O   UNL d   1      60.069  49.065  52.337  0.00  0.00    -0.236 OA
BRANCH   9  11
ATOM     11  O   UNL d   1      61.349  49.707  52.192  0.00  0.00    -0.256 OA
BRANCH  11  12
ATOM     12  C   UNL d   1      61.501  49.529  52.820  0.00  0.00     0.128 C 
ATOM     13  C   UNL d   1      62.306  49.301  52.968  0.00  0.00     0.029 C 
ENDBRANCH  11  12
ENDBRANCH   9  11
ENDBRANCH   1   8
BRANCH   1  14
ATOM     14  C   UNL d   1      59.394  49.259  50.296  0.00  0.00     0.231 C 
ATOM     15  O   UNL d   1      59.628  49.705  49.641  0.00  0.00    -0.283 OA
BRANCH  14  16
ATOM     16  C   UNL d   1      58.583  49.268  50.533  0.00  0.00     0.042 A 
ATOM     17  C   UNL d   1      58.359  49.686  51.203  0.00  0.00     0.003 A 
ATOM     18  C   UNL d   1      57.576  49.705  51.446  0.00  0.00     0.000 A 
ATOM     19  C   UNL d   1      56.991  49.289  51.001  0.00  0.00     0.000 A 
ATOM     20  C   UNL d   1      57.224  48.878  50.339  0.00  0.00     0.000 A 
ATOM     21  C   UNL d   1      58.014  48.863  50.100  0.00  0.00     0.003 A 
ENDBRANCH  14  16
ENDBRANCH   1  14
TORSDOF 8
ENDMDL
