MODEL 1
REMARK VINA RESULT:       0.3      0.000      0.000
REMARK  6 active torsions:
REMARK  status: ('A' for Active; 'I' for Inactive)
REMARK    1  A    between atoms: C_9  and  C_2 
REMARK    2  A    between atoms: C_13  and  C_8 
REMARK       I    between atoms: N_10  and  C_9 
REMARK    3  A    between atoms: C_15  and  N_10 
REMARK    4  A    between atoms: N_14  and  C_12 
REMARK    5  A    between atoms: C_21  and  N_14 
REMARK    6  A    between atoms: C_22  and  N_14 
ROOT
ATOM      1  C   UNL d   1      32.740  18.476 -22.559  0.00  0.00     0.180 A 
ATOM      2  C   UNL d   1      32.728  19.757 -22.207  0.00  0.00     0.106 A 
ATOM      3  N   UNL d   1      32.631  18.930 -23.249  0.00  0.00    -0.283 N 
ATOM      4  S   UNL d   1      32.798  18.997 -21.927  0.00  0.00    -0.044 SA
ATOM      5  N   UNL d   1      32.747  17.686 -22.781  0.00  0.00    -0.221 NA
ATOM      6  C   UNL d   1      32.624  19.721 -23.027  0.00  0.00     0.077 A 
ATOM      7  C   UNL d   1      32.573  18.409 -23.881  0.00  0.00     0.101 A 
ATOM      8  C   UNL d   1      32.645  17.640 -23.586  0.00  0.00     0.101 A 
ATOM      9  C   UNL d   1      32.528  20.368 -23.547  0.00  0.00     0.020 C 
ENDROOT
BRANCH   2  10
ATOM     10  C   UNL d   1      32.757  20.447 -21.741  0.00  0.00     0.287 C 
ATOM     11  N   UNL d   1      32.399  20.455 -20.998  0.00  0.00    -0.208 NA
ATOM     12  O   UNL d   1      33.141  21.108 -22.029  0.00  0.00    -0.265 OA
BRANCH  11  13
ATOM     13  C   UNL d   1      32.433  21.141 -20.543  0.00  0.00     0.085 A 
ATOM     14  C   UNL d   1      31.912  21.772 -20.693  0.00  0.00     0.021 A 
ATOM     15  C   UNL d   1      31.941  22.456 -20.244  0.00  0.00     0.019 A 
ATOM     16  C   UNL d   1      32.502  22.509 -19.635  0.00  0.00     0.064 A 
ATOM     17  C   UNL d   1      33.023  21.890 -19.477  0.00  0.00     0.019 A 
ATOM     18  C   UNL d   1      32.983  21.211 -19.934  0.00  0.00     0.021 A 
BRANCH  16  19
ATOM     19  N   UNL d   1      32.549  23.188 -19.171  0.00  0.00    -0.304 N 
BRANCH  19  20
ATOM     20  C   UNL d   1      33.241  23.354 -18.761  0.00  0.00     0.080 C 
ATOM     21  C   UNL d   1      33.202  23.688 -18.008  0.00  0.00     0.021 C 
ENDBRANCH  19  20
BRANCH  19  22
ATOM     22  C   UNL d   1      31.911  23.702 -19.114  0.00  0.00     0.080 C 
ATOM     23  C   UNL d   1      31.412  23.681 -18.458  0.00  0.00     0.021 C 
ENDBRANCH  19  22
ENDBRANCH  16  19
ENDBRANCH  11  13
ENDBRANCH   2  10
BRANCH   8  24
ATOM     24  C   UNL d   1      32.624  16.935 -23.995  0.00  0.00     0.019 A 
ATOM     25  C   UNL d   1      32.014  16.396 -23.877  0.00  0.00     0.002 A 
ATOM     26  C   UNL d   1      31.992  15.683 -24.291  0.00  0.00     0.000 A 
ATOM     27  C   UNL d   1      32.596  15.502 -24.839  0.00  0.00     0.000 A 
ATOM     28  C   UNL d   1      33.206  16.040 -24.958  0.00  0.00     0.000 A 
ATOM     29  C   UNL d   1      33.227  16.757 -24.541  0.00  0.00     0.002 A 
ENDBRANCH   8  24
TORSDOF 6
ENDMDL
MODEL 2
REMARK VINA RESULT:       1.4      1.222      6.609
REMARK  6 active torsions:
REMARK  status: ('A' for Active; 'I' for Inactive)
REMARK    1  A    between atoms: C_9  and  C_2 
REMARK    2  A    between atoms: C_13  and  C_8 
REMARK       I    between atoms: N_10  and  C_9 
REMARK    3  A    between atoms: C_15  and  N_10 
REMARK    4  A    between atoms: N_14  and  C_12 
REMARK    5  A    between atoms: C_21  and  N_14 
REMARK    6  A    between atoms: C_22  and  N_14 
ROOT
ATOM      1  C   UNL d   1      33.183  21.158 -19.311  0.00  0.00     0.180 A 
ATOM      2  C   UNL d   1      33.177  20.883 -20.611  0.00  0.00     0.106 A 
ATOM      3  N   UNL d   1      33.203  21.880 -19.726  0.00  0.00    -0.283 N 
ATOM      4  S   UNL d   1      33.168  20.555 -19.867  0.00  0.00    -0.044 SA
ATOM      5  N   UNL d   1      33.187  21.333 -18.509  0.00  0.00    -0.221 NA
ATOM      6  C   UNL d   1      33.199  21.706 -20.528  0.00  0.00     0.077 A 
ATOM      7  C   UNL d   1      33.218  22.485 -19.170  0.00  0.00     0.101 A 
ATOM      8  C   UNL d   1      33.208  22.140 -18.419  0.00  0.00     0.101 A 
ATOM      9  C   UNL d   1      33.214  22.269 -21.146  0.00  0.00     0.020 C 
ENDROOT
BRANCH   2  10
ATOM     10  C   UNL d   1      33.167  20.457 -21.326  0.00  0.00     0.287 C 
ATOM     11  N   UNL d   1      33.082  19.636 -21.313  0.00  0.00    -0.208 NA
ATOM     12  O   UNL d   1      33.241  20.859 -22.033  0.00  0.00    -0.265 OA
BRANCH  11  13
ATOM     13  C   UNL d   1      33.073  19.222 -22.025  0.00  0.00     0.085 A 
ATOM     14  C   UNL d   1      33.241  18.408 -22.042  0.00  0.00     0.021 A 
ATOM     15  C   UNL d   1      33.233  17.992 -22.748  0.00  0.00     0.019 A 
ATOM     16  C   UNL d   1      33.053  18.399 -23.448  0.00  0.00     0.064 A 
ATOM     17  C   UNL d   1      32.885  19.206 -23.443  0.00  0.00     0.019 A 
ATOM     18  C   UNL d   1      32.896  19.610 -22.731  0.00  0.00     0.021 A 
BRANCH  16  19
ATOM     19  N   UNL d   1      33.039  18.000 -24.169  0.00  0.00    -0.304 N 
BRANCH  19  20
ATOM     20  C   UNL d   1      33.074  17.181 -24.180  0.00  0.00     0.080 C 
ATOM     21  C   UNL d   1      33.149  16.782 -24.899  0.00  0.00     0.021 C 
ENDBRANCH  19  20
BRANCH  19  22
ATOM     22  C   UNL d   1      32.991  18.415 -24.876  0.00  0.00     0.080 C 
ATOM     23  C   UNL d   1      32.298  18.810 -25.085  0.00  0.00     0.021 C 
ENDBRANCH  19  22
ENDBRANCH  16  19
ENDBRANCH  11  13
ENDBRANCH   2  10
BRANCH   8  24
ATOM     24  C   UNL d   1      33.217  22.509 -17.691  0.00  0.00     0.019 A 
ATOM     25  C   UNL d   1      33.213  23.330 -17.634  0.00  0.00     0.002 A 
ATOM     26  C   UNL d   1      33.222  23.702 -16.897  0.00  0.00     0.000 A 
ATOM     27  C   UNL d   1      33.236  23.245 -16.199  0.00  0.00     0.000 A 
ATOM     28  C   UNL d   1      33.240  22.425 -16.256  0.00  0.00     0.000 A 
ATOM     29  C   UNL d   1      33.231  22.050 -16.996  0.00  0.00     0.002 A 
ENDBRANCH   8  24
TORSDOF 6
ENDMDL
