MODEL 1
REMARK VINA RESULT:      -2.7      0.000      0.000
REMARK  2 active torsions:
REMARK  status: ('A' for Active; 'I' for Inactive)
REMARK    1  A    between atoms: C_13  and  N_5 
REMARK    2  A    between atoms: C_19  and  C_12 
ROOT
ATOM      1  C   UNL d   1     -41.552-121.975 -51.834  0.00  0.00     0.170 A 
ATOM      2  C   UNL d   1     -41.405-121.477 -52.447  0.00  0.00     0.093 A 
ATOM      3  N   UNL d   1     -41.508-122.530 -53.346  0.00  0.00    -0.256 N 
ATOM      4  C   UNL d   1     -41.381-121.746 -53.213  0.00  0.00     0.176 A 
ATOM      5  N   UNL d   1     -41.575-121.701 -51.080  0.00  0.00    -0.212 N 
ATOM      6  N   UNL d   1     -41.678-122.760 -51.985  0.00  0.00    -0.206 NA
ATOM      7  N   UNL d   1     -41.234-121.246 -53.816  0.00  0.00    -0.128 NA
ATOM      8  N   UNL d   1     -41.447-120.914 -50.945  0.00  0.00    -0.162 NA
ATOM      9  C   UNL d   1     -41.655-123.028 -52.732  0.00  0.00     0.187 A 
ATOM     10  N   UNL d   1     -41.339-122.307 -54.705  0.00  0.00    -0.128 NA
ATOM     11  C   UNL d   1     -41.300-120.412 -51.549  0.00  0.00     0.127 A 
ATOM     12  C   UNL d   1     -41.486-122.805 -54.098  0.00  0.00     0.172 A 
ENDROOT
BRANCH   5  13
ATOM     13  C   UNL d   1     -41.726-122.218 -50.456  0.00  0.00     0.085 A 
ATOM     14  C   UNL d   1     -42.457-122.216 -50.089  0.00  0.00     0.019 A 
ATOM     15  C   UNL d   1     -42.607-122.743 -49.456  0.00  0.00     0.002 A 
ATOM     16  C   UNL d   1     -43.384-122.746 -49.058  0.00  0.00     0.000 C 
ATOM     17  C   UNL d   1     -42.015-123.269 -49.200  0.00  0.00     0.000 A 
ATOM     18  C   UNL d   1     -41.270-123.265 -49.581  0.00  0.00     0.002 A 
ATOM     19  C   UNL d   1     -42.167-123.817 -48.543  0.00  0.00     0.000 C 
ATOM     20  C   UNL d   1     -41.123-122.746 -50.205  0.00  0.00     0.019 A 
ENDBRANCH   5  13
BRANCH  12  21
ATOM     21  C   UNL d   1     -41.611-123.586 -54.247  0.00  0.00     0.039 C 
ATOM     22  C   UNL d   1     -41.895-123.816 -54.956  0.00  0.00     0.003 C 
ENDBRANCH  12  21
TORSDOF 2
ENDMDL
MODEL 2
REMARK VINA RESULT:      -1.8      1.060      3.953
REMARK  2 active torsions:
REMARK  status: ('A' for Active; 'I' for Inactive)
REMARK    1  A    between atoms: C_13  and  N_5 
REMARK    2  A    between atoms: C_19  and  C_12 
ROOT
ATOM      1  C   UNL d   1     -41.763-122.118 -51.435  0.00  0.00     0.170 A 
ATOM      2  C   UNL d   1     -41.737-121.667 -50.771  0.00  0.00     0.093 A 
ATOM      3  N   UNL d   1     -42.347-122.677 -50.041  0.00  0.00    -0.256 N 
ATOM      4  C   UNL d   1     -42.028-121.938 -50.064  0.00  0.00     0.176 A 
ATOM      5  N   UNL d   1     -41.473-121.842 -52.130  0.00  0.00    -0.212 N 
ATOM      6  N   UNL d   1     -42.087-122.859 -51.395  0.00  0.00    -0.206 NA
ATOM      7  N   UNL d   1     -41.998-121.483 -49.409  0.00  0.00    -0.128 NA
ATOM      8  N   UNL d   1     -41.152-121.100 -52.155  0.00  0.00    -0.162 NA
ATOM      9  C   UNL d   1     -42.373-123.129 -50.705  0.00  0.00     0.187 A 
ATOM     10  N   UNL d   1     -42.609-122.501 -48.689  0.00  0.00    -0.128 NA
ATOM     11  C   UNL d   1     -41.123-120.644 -51.499  0.00  0.00     0.127 A 
ATOM     12  C   UNL d   1     -42.637-122.954 -49.347  0.00  0.00     0.172 A 
ENDROOT
BRANCH   5  13
ATOM     13  C   UNL d   1     -41.504-122.313 -52.807  0.00  0.00     0.085 A 
ATOM     14  C   UNL d   1     -41.891-122.046 -53.475  0.00  0.00     0.019 A 
ATOM     15  C   UNL d   1     -41.920-122.527 -54.160  0.00  0.00     0.002 A 
ATOM     16  C   UNL d   1     -42.332-122.249 -54.879  0.00  0.00     0.000 C 
ATOM     17  C   UNL d   1     -41.556-123.275 -54.163  0.00  0.00     0.000 A 
ATOM     18  C   UNL d   1     -41.161-123.541 -53.474  0.00  0.00     0.002 A 
ATOM     19  C   UNL d   1     -41.584-123.776 -54.872  0.00  0.00     0.000 C 
ATOM     20  C   UNL d   1     -41.133-123.067 -52.799  0.00  0.00     0.019 A 
ENDBRANCH   5  13
BRANCH  12  21
ATOM     21  C   UNL d   1     -42.958-123.691 -49.309  0.00  0.00     0.039 C 
ATOM     22  C   UNL d   1     -43.615-123.817 -48.872  0.00  0.00     0.003 C 
ENDBRANCH  12  21
TORSDOF 2
ENDMDL
