MODEL 1
REMARK VINA RESULT:      -7.5      0.000      0.000
REMARK  5 active torsions:
REMARK  status: ('A' for Active; 'I' for Inactive)
REMARK    1  A    between atoms: C_16  and  N_2 
REMARK    2  A    between atoms: S_9  and  C_4 
REMARK    3  A    between atoms: C_17  and  S_9 
REMARK    4  A    between atoms: C_10  and  C_17 
REMARK       I    between atoms: N_12  and  C_10 
REMARK    5  A    between atoms: C_14  and  N_12 
ROOT
ATOM      1  C   UNL d   1     -50.386  14.058  22.540  0.00  0.00     0.104 A 
ATOM      2  N   UNL d   1     -49.834  12.827  22.078  0.00  0.00    -0.252 N 
ATOM      3  C   UNL d   1     -50.339  13.481  21.968  0.00  0.00     0.274 A 
ATOM      4  C   UNL d   1     -49.385  12.770  22.767  0.00  0.00     0.182 A 
ATOM      5  C   UNL d   1     -49.936  14.001  23.229  0.00  0.00     0.095 A 
ATOM      6  N   UNL d   1     -49.440  13.366  23.347  0.00  0.00    -0.222 NA
ATOM      7  S   UNL d   1     -50.826  14.752  22.583  0.00  0.00    -0.081 SA
ATOM      8  C   UNL d   1     -50.099  14.659  23.698  0.00  0.00     0.026 A 
ATOM      9  O   UNL d   1     -50.789  13.538  21.279  0.00  0.00    -0.266 OA
ATOM     10  C   UNL d   1     -50.646  15.121  23.303  0.00  0.00     0.031 A 
ATOM     11  C   UNL d   1     -50.957  15.832  23.582  0.00  0.00     0.007 C 
ENDROOT
BRANCH   4  12
ATOM     12  S   UNL d   1     -48.876  12.120  22.887  0.00  0.00    -0.044 SA
BRANCH  12  13
ATOM     13  C   UNL d   1     -48.090  12.252  23.101  0.00  0.00     0.101 C 
BRANCH  13  14
ATOM     14  C   UNL d   1     -47.647  11.643  23.439  0.00  0.00     0.286 C 
ATOM     15  N   UNL d   1     -46.829  11.722  23.519  0.00  0.00    -0.208 NA
ATOM     16  O   UNL d   1     -48.022  10.954  23.698  0.00  0.00    -0.265 OA
BRANCH  15  17
ATOM     17  C   UNL d   1     -46.455  12.410  23.260  0.00  0.00     0.085 A 
ATOM     18  C   UNL d   1     -45.941  12.379  22.626  0.00  0.00     0.019 A 
ATOM     19  C   UNL d   1     -45.567  13.067  22.368  0.00  0.00     0.002 A 
ATOM     20  C   UNL d   1     -45.039  13.036  21.717  0.00  0.00     0.000 C 
ATOM     21  C   UNL d   1     -45.712  13.780  22.748  0.00  0.00     0.000 A 
ATOM     22  C   UNL d   1     -46.232  13.808  23.387  0.00  0.00     0.002 A 
ATOM     23  C   UNL d   1     -46.600  13.123  23.640  0.00  0.00     0.019 A 
ENDBRANCH  15  17
ENDBRANCH  13  14
ENDBRANCH  12  13
ENDBRANCH   4  12
BRANCH   2  24
ATOM     24  C   UNL d   1     -49.783  12.235  21.497  0.00  0.00     0.085 C 
ATOM     25  C   UNL d   1     -49.344  12.370  20.810  0.00  0.00     0.021 C 
ENDBRANCH   2  24
TORSDOF 5
ENDMDL
MODEL 2
REMARK VINA RESULT:      -5.8      8.507     10.100
REMARK  5 active torsions:
REMARK  status: ('A' for Active; 'I' for Inactive)
REMARK    1  A    between atoms: C_16  and  N_2 
REMARK    2  A    between atoms: S_9  and  C_4 
REMARK    3  A    between atoms: C_17  and  S_9 
REMARK    4  A    between atoms: C_10  and  C_17 
REMARK       I    between atoms: N_12  and  C_10 
REMARK    5  A    between atoms: C_14  and  N_12 
ROOT
ATOM      1  C   UNL d   1     -40.180  15.144  16.803  0.00  0.00     0.104 A 
ATOM      2  N   UNL d   1     -39.015  14.747  17.523  0.00  0.00    -0.252 N 
ATOM      3  C   UNL d   1     -39.459  14.768  16.818  0.00  0.00     0.274 A 
ATOM      4  C   UNL d   1     -39.311  15.109  18.202  0.00  0.00     0.182 A 
ATOM      5  C   UNL d   1     -40.477  15.505  17.483  0.00  0.00     0.095 A 
ATOM      6  N   UNL d   1     -40.051  15.491  18.177  0.00  0.00    -0.222 NA
ATOM      7  S   UNL d   1     -40.730  15.251  16.201  0.00  0.00    -0.081 SA
ATOM      8  C   UNL d   1     -41.209  15.836  17.300  0.00  0.00     0.026 A 
ATOM      9  O   UNL d   1     -39.162  14.406  16.138  0.00  0.00    -0.266 OA
ATOM     10  C   UNL d   1     -41.366  15.680  16.513  0.00  0.00     0.031 A 
ATOM     11  C   UNL d   1     -42.046  15.916  16.109  0.00  0.00     0.007 C 
ENDROOT
BRANCH   4  12
ATOM     12  S   UNL d   1     -38.875  15.094  18.913  0.00  0.00    -0.044 SA
BRANCH  12  13
ATOM     13  C   UNL d   1     -39.256  15.246  19.629  0.00  0.00     0.101 C 
BRANCH  13  14
ATOM     14  C   UNL d   1     -38.817  15.313  20.325  0.00  0.00     0.286 C 
ATOM     15  N   UNL d   1     -39.199  15.313  21.056  0.00  0.00    -0.208 NA
ATOM     16  O   UNL d   1     -37.995  15.379  20.288  0.00  0.00    -0.265 OA
BRANCH  15  17
ATOM     17  C   UNL d   1     -40.021  15.246  21.091  0.00  0.00     0.085 A 
ATOM     18  C   UNL d   1     -40.367  14.506  21.124  0.00  0.00     0.019 A 
ATOM     19  C   UNL d   1     -41.188  14.440  21.160  0.00  0.00     0.002 A 
ATOM     20  C   UNL d   1     -41.545  13.683  21.194  0.00  0.00     0.000 C 
ATOM     21  C   UNL d   1     -41.655  15.116  21.161  0.00  0.00     0.000 A 
ATOM     22  C   UNL d   1     -41.302  15.860  21.127  0.00  0.00     0.002 A 
ATOM     23  C   UNL d   1     -40.487  15.922  21.092  0.00  0.00     0.019 A 
ENDBRANCH  15  17
ENDBRANCH  13  14
ENDBRANCH  12  13
ENDBRANCH   4  12
BRANCH   2  24
ATOM     24  C   UNL d   1     -38.277  14.365  17.542  0.00  0.00     0.085 C 
ATOM     25  C   UNL d   1     -38.217  13.575  17.308  0.00  0.00     0.021 C 
ENDBRANCH   2  24
TORSDOF 5
ENDMDL
MODEL 3
REMARK VINA RESULT:      -5.7      7.943     10.142
REMARK  5 active torsions:
REMARK  status: ('A' for Active; 'I' for Inactive)
REMARK    1  A    between atoms: C_16  and  N_2 
REMARK    2  A    between atoms: S_9  and  C_4 
REMARK    3  A    between atoms: C_17  and  S_9 
REMARK    4  A    between atoms: C_10  and  C_17 
REMARK       I    between atoms: N_12  and  C_10 
REMARK    5  A    between atoms: C_14  and  N_12 
ROOT
ATOM      1  C   UNL d   1     -39.604  14.909  21.465  0.00  0.00     0.104 A 
ATOM      2  N   UNL d   1     -40.563  14.532  20.479  0.00  0.00    -0.252 N 
ATOM      3  C   UNL d   1     -40.205  14.417  21.222  0.00  0.00     0.274 A 
ATOM      4  C   UNL d   1     -40.304  15.146  19.992  0.00  0.00     0.182 A 
ATOM      5  C   UNL d   1     -39.345  15.523  20.978  0.00  0.00     0.095 A 
ATOM      6  N   UNL d   1     -39.687  15.645  20.249  0.00  0.00    -0.222 NA
ATOM      7  S   UNL d   1     -39.157  14.929  22.155  0.00  0.00    -0.081 SA
ATOM      8  C   UNL d   1     -38.738  15.921  21.368  0.00  0.00     0.026 A 
ATOM      9  O   UNL d   1     -40.465  13.804  21.709  0.00  0.00    -0.266 OA
ATOM     10  C   UNL d   1     -38.621  15.558  22.091  0.00  0.00     0.031 A 
ATOM     11  C   UNL d   1     -38.062  15.787  22.653  0.00  0.00     0.007 C 
ENDROOT
BRANCH   4  12
ATOM     12  S   UNL d   1     -40.654  15.269  19.246  0.00  0.00    -0.044 SA
BRANCH  12  13
ATOM     13  C   UNL d   1     -40.175  15.339  18.577  0.00  0.00     0.101 C 
BRANCH  13  14
ATOM     14  C   UNL d   1     -40.511  15.534  17.848  0.00  0.00     0.286 C 
ATOM     15  N   UNL d   1     -40.117  15.343  17.148  0.00  0.00    -0.208 NA
ATOM     16  O   UNL d   1     -41.239  15.921  17.820  0.00  0.00    -0.265 OA
BRANCH  15  17
ATOM     17  C   UNL d   1     -39.389  14.956  17.178  0.00  0.00     0.085 A 
ATOM     18  C   UNL d   1     -39.358  14.142  17.110  0.00  0.00     0.019 A 
ATOM     19  C   UNL d   1     -38.630  13.756  17.139  0.00  0.00     0.002 A 
ATOM     20  C   UNL d   1     -38.597  12.922  17.070  0.00  0.00     0.000 C 
ATOM     21  C   UNL d   1     -37.940  14.190  17.236  0.00  0.00     0.000 A 
ATOM     22  C   UNL d   1     -37.975  15.011  17.304  0.00  0.00     0.002 A 
ATOM     23  C   UNL d   1     -38.698  15.390  17.275  0.00  0.00     0.019 A 
ENDBRANCH  15  17
ENDBRANCH  13  14
ENDBRANCH  12  13
ENDBRANCH   4  12
BRANCH   2  24
ATOM     24  C   UNL d   1     -41.177  14.032  20.227  0.00  0.00     0.085 C 
ATOM     25  C   UNL d   1     -41.638  13.634  20.785  0.00  0.00     0.021 C 
ENDBRANCH   2  24
TORSDOF 5
ENDMDL
MODEL 4
REMARK VINA RESULT:      -5.2      8.308     10.455
REMARK  5 active torsions:
REMARK  status: ('A' for Active; 'I' for Inactive)
REMARK    1  A    between atoms: C_16  and  N_2 
REMARK    2  A    between atoms: S_9  and  C_4 
REMARK    3  A    between atoms: C_17  and  S_9 
REMARK    4  A    between atoms: C_10  and  C_17 
REMARK       I    between atoms: N_12  and  C_10 
REMARK    5  A    between atoms: C_14  and  N_12 
ROOT
ATOM      1  C   UNL d   1     -39.998  14.862  20.967  0.00  0.00     0.104 A 
ATOM      2  N   UNL d   1     -38.823  14.127  20.629  0.00  0.00    -0.252 N 
ATOM      3  C   UNL d   1     -39.296  14.516  21.193  0.00  0.00     0.274 A 
ATOM      4  C   UNL d   1     -39.070  14.095  19.842  0.00  0.00     0.182 A 
ATOM      5  C   UNL d   1     -40.244  14.830  20.180  0.00  0.00     0.095 A 
ATOM      6  N   UNL d   1     -39.789  14.452  19.620  0.00  0.00    -0.222 NA
ATOM      7  S   UNL d   1     -40.567  15.275  21.393  0.00  0.00    -0.081 SA
ATOM      8  C   UNL d   1     -40.966  15.223  20.121  0.00  0.00     0.026 A 
ATOM      9  O   UNL d   1     -39.050  14.548  21.980  0.00  0.00    -0.266 OA
ATOM     10  C   UNL d   1     -41.165  15.497  20.864  0.00  0.00     0.031 A 
ATOM     11  C   UNL d   1     -41.849  15.922  21.047  0.00  0.00     0.007 C 
ENDROOT
BRANCH   4  12
ATOM     12  S   UNL d   1     -38.604  13.708  19.269  0.00  0.00    -0.044 SA
BRANCH  12  13
ATOM     13  C   UNL d   1     -38.720  13.874  18.469  0.00  0.00     0.101 C 
BRANCH  13  14
ATOM     14  C   UNL d   1     -38.451  13.346  17.894  0.00  0.00     0.286 C 
ATOM     15  N   UNL d   1     -38.363  13.596  17.113  0.00  0.00    -0.208 NA
ATOM     16  O   UNL d   1     -38.271  12.567  18.102  0.00  0.00    -0.265 OA
BRANCH  15  17
ATOM     17  C   UNL d   1     -38.543  14.374  16.907  0.00  0.00     0.085 A 
ATOM     18  C   UNL d   1     -39.312  14.576  16.717  0.00  0.00     0.019 A 
ATOM     19  C   UNL d   1     -39.492  15.354  16.511  0.00  0.00     0.002 A 
ATOM     20  C   UNL d   1     -40.280  15.562  16.316  0.00  0.00     0.000 C 
ATOM     21  C   UNL d   1     -38.900  15.922  16.496  0.00  0.00     0.000 A 
ATOM     22  C   UNL d   1     -38.125  15.714  16.688  0.00  0.00     0.002 A 
ATOM     23  C   UNL d   1     -37.951  14.942  16.892  0.00  0.00     0.019 A 
ENDBRANCH  15  17
ENDBRANCH  13  14
ENDBRANCH  12  13
ENDBRANCH   4  12
BRANCH   2  24
ATOM     24  C   UNL d   1     -38.107  13.772  20.856  0.00  0.00     0.085 C 
ATOM     25  C   UNL d   1     -38.111  13.139  21.385  0.00  0.00     0.021 C 
ENDBRANCH   2  24
TORSDOF 5
ENDMDL
MODEL 5
REMARK VINA RESULT:      -5.1      8.429     10.882
REMARK  5 active torsions:
REMARK  status: ('A' for Active; 'I' for Inactive)
REMARK    1  A    between atoms: C_16  and  N_2 
REMARK    2  A    between atoms: S_9  and  C_4 
REMARK    3  A    between atoms: C_17  and  S_9 
REMARK    4  A    between atoms: C_10  and  C_17 
REMARK       I    between atoms: N_12  and  C_10 
REMARK    5  A    between atoms: C_14  and  N_12 
ROOT
ATOM      1  C   UNL d   1     -38.225  14.238  17.191  0.00  0.00     0.104 A 
ATOM      2  N   UNL d   1     -38.129  13.338  18.293  0.00  0.00    -0.252 N 
ATOM      3  C   UNL d   1     -38.126  13.480  17.472  0.00  0.00     0.274 A 
ATOM      4  C   UNL d   1     -38.233  13.968  18.816  0.00  0.00     0.182 A 
ATOM      5  C   UNL d   1     -38.329  14.867  17.714  0.00  0.00     0.095 A 
ATOM      6  N   UNL d   1     -38.333  14.740  18.518  0.00  0.00    -0.222 NA
ATOM      7  S   UNL d   1     -38.246  14.540  16.426  0.00  0.00    -0.081 SA
ATOM      8  C   UNL d   1     -38.414  15.558  17.272  0.00  0.00     0.026 A 
ATOM      9  O   UNL d   1     -38.022  12.851  16.949  0.00  0.00    -0.266 OA
ATOM     10  C   UNL d   1     -38.363  15.358  16.481  0.00  0.00     0.031 A 
ATOM     11  C   UNL d   1     -38.421  15.889  15.852  0.00  0.00     0.007 C 
ENDROOT
BRANCH   4  12
ATOM     12  S   UNL d   1     -38.237  13.836  19.639  0.00  0.00    -0.044 SA
BRANCH  12  13
ATOM     13  C   UNL d   1     -38.767  14.253  20.116  0.00  0.00     0.101 C 
BRANCH  13  14
ATOM     14  C   UNL d   1     -38.654  14.279  20.933  0.00  0.00     0.286 C 
ATOM     15  N   UNL d   1     -39.255  14.560  21.424  0.00  0.00    -0.208 NA
ATOM     16  O   UNL d   1     -37.940  14.024  21.259  0.00  0.00    -0.265 OA
BRANCH  15  17
ATOM     17  C   UNL d   1     -39.968  14.815  21.097  0.00  0.00     0.085 A 
ATOM     18  C   UNL d   1     -40.594  14.293  21.031  0.00  0.00     0.019 A 
ATOM     19  C   UNL d   1     -41.307  14.548  20.704  0.00  0.00     0.002 A 
ATOM     20  C   UNL d   1     -41.949  14.014  20.635  0.00  0.00     0.000 C 
ATOM     21  C   UNL d   1     -41.386  15.324  20.447  0.00  0.00     0.000 A 
ATOM     22  C   UNL d   1     -40.753  15.847  20.516  0.00  0.00     0.002 A 
ATOM     23  C   UNL d   1     -40.048  15.591  20.841  0.00  0.00     0.019 A 
ENDBRANCH  15  17
ENDBRANCH  13  14
ENDBRANCH  12  13
ENDBRANCH   4  12
BRANCH   2  24
ATOM     24  C   UNL d   1     -38.028  12.566  18.584  0.00  0.00     0.085 C 
ATOM     25  C   UNL d   1     -38.116  11.920  18.077  0.00  0.00     0.021 C 
ENDBRANCH   2  24
TORSDOF 5
ENDMDL
MODEL 6
REMARK VINA RESULT:      -5.0      8.823     11.001
REMARK  5 active torsions:
REMARK  status: ('A' for Active; 'I' for Inactive)
REMARK    1  A    between atoms: C_16  and  N_2 
REMARK    2  A    between atoms: S_9  and  C_4 
REMARK    3  A    between atoms: C_17  and  S_9 
REMARK    4  A    between atoms: C_10  and  C_17 
REMARK       I    between atoms: N_12  and  C_10 
REMARK    5  A    between atoms: C_14  and  N_12 
ROOT
ATOM      1  C   UNL d   1     -38.328  12.814  17.234  0.00  0.00     0.104 A 
ATOM      2  N   UNL d   1     -38.696  14.130  16.827  0.00  0.00    -0.252 N 
ATOM      3  C   UNL d   1     -38.338  13.396  16.665  0.00  0.00     0.274 A 
ATOM      4  C   UNL d   1     -39.039  14.263  17.566  0.00  0.00     0.182 A 
ATOM      5  C   UNL d   1     -38.671  12.946  17.973  0.00  0.00     0.095 A 
ATOM      6  N   UNL d   1     -39.024  13.661  18.142  0.00  0.00    -0.222 NA
ATOM      7  S   UNL d   1     -38.021  12.051  17.232  0.00  0.00    -0.081 SA
ATOM      8  C   UNL d   1     -38.576  12.265  18.426  0.00  0.00     0.026 A 
ATOM      9  O   UNL d   1     -37.996  13.263  15.926  0.00  0.00    -0.266 OA
ATOM     10  C   UNL d   1     -38.177  11.714  17.973  0.00  0.00     0.031 A 
ATOM     11  C   UNL d   1     -37.970  10.955  18.221  0.00  0.00     0.007 C 
ENDROOT
BRANCH   4  12
ATOM     12  S   UNL d   1     -39.400  14.994  17.739  0.00  0.00    -0.044 SA
BRANCH  12  13
ATOM     13  C   UNL d   1     -39.814  15.087  18.447  0.00  0.00     0.101 C 
BRANCH  13  14
ATOM     14  C   UNL d   1     -40.449  15.614  18.488  0.00  0.00     0.286 C 
ATOM     15  N   UNL d   1     -40.750  15.841  19.221  0.00  0.00    -0.208 NA
ATOM     16  O   UNL d   1     -40.782  15.913  17.794  0.00  0.00    -0.265 OA
BRANCH  15  17
ATOM     17  C   UNL d   1     -40.417  15.542  19.914  0.00  0.00     0.085 A 
ATOM     18  C   UNL d   1     -40.727  14.867  20.256  0.00  0.00     0.019 A 
ATOM     19  C   UNL d   1     -40.394  14.569  20.948  0.00  0.00     0.002 A 
ATOM     20  C   UNL d   1     -40.711  13.877  21.300  0.00  0.00     0.000 C 
ATOM     21  C   UNL d   1     -39.752  14.949  21.292  0.00  0.00     0.000 A 
ATOM     22  C   UNL d   1     -39.442  15.629  20.944  0.00  0.00     0.002 A 
ATOM     23  C   UNL d   1     -39.775  15.922  20.258  0.00  0.00     0.019 A 
ENDBRANCH  15  17
ENDBRANCH  13  14
ENDBRANCH  12  13
ENDBRANCH   4  12
BRANCH   2  24
ATOM     24  C   UNL d   1     -38.709  14.727  16.249  0.00  0.00     0.085 C 
ATOM     25  C   UNL d   1     -38.061  14.826  15.746  0.00  0.00     0.021 C 
ENDBRANCH   2  24
TORSDOF 5
ENDMDL
