MODEL 1
REMARK VINA RESULT:      26.9      0.000      0.000
REMARK  4 active torsions:
REMARK  status: ('A' for Active; 'I' for Inactive)
REMARK    1  A    between atoms: N_3  and  C_1 
REMARK    2  A    between atoms: N_5  and  N_2 
REMARK    3  A    between atoms: S_4  and  N_5 
REMARK    4  A    between atoms: C_13  and  S_4 
ROOT
ATOM      1  C   UNL d   1      44.825 -14.301  44.273  0.00  0.00     0.771 A 
ATOM      2  N   UNL d   1      45.133 -15.055  44.344  0.00  0.00    -0.026 N 
ATOM      3  N   UNL d   1      44.090 -14.295  44.651  0.00  0.00     0.048 NA
ATOM      4  C   UNL d   1      44.605 -15.517  44.758  0.00  0.00     0.204 A 
ATOM      5  N   UNL d   1      43.954 -15.049  44.952  0.00  0.00    -0.112 NA
ATOM      6  C   UNL d   1      44.695 -16.313  44.955  0.00  0.00     0.044 C 
ENDROOT
BRANCH   2   7
ATOM      7  N   UNL d   1      45.856 -15.318  44.050  0.00  0.00    -0.056 NA
BRANCH   7   8
ATOM      8  S   UNL d   1      45.965 -16.103  43.832  0.00  0.00     0.301 S 
ATOM      9  O   UNL d   1      45.324 -16.064  43.330  0.00  0.00    -0.197 OA
ATOM     10  O   UNL d   1      46.615 -16.137  44.343  0.00  0.00    -0.197 OA
BRANCH   8  11
ATOM     11  C   UNL d   1      46.091 -16.891  43.627  0.00  0.00     0.107 A 
ATOM     12  C   UNL d   1      46.343 -17.425  44.202  0.00  0.00     0.015 A 
ATOM     13  C   UNL d   1      46.470 -18.217  43.999  0.00  0.00     0.030 A 
ATOM     14  C   UNL d   1      46.343 -18.467  43.219  0.00  0.00     0.140 A 
ATOM     15  C   UNL d   1      46.091 -17.933  42.644  0.00  0.00     0.030 A 
ATOM     16  F   UNL d   1      46.470 -19.252  43.022  0.00  0.00    -0.204 F 
ATOM     17  C   UNL d   1      45.964 -17.141  42.846  0.00  0.00     0.015 A 
ENDBRANCH   8  11
ENDBRANCH   7   8
ENDBRANCH   2   7
BRANCH   1  18
ATOM     18  N   UNL d   1      45.186 -13.665  43.892  0.00  0.00    -0.056 N 
ATOM     19  N   UNL d   1      45.020 -13.396  43.130  0.00  0.00    -0.150 NA
ATOM     20  C   UNL d   1      45.508 -12.751  42.974  0.00  0.00     0.103 A 
ATOM     21  C   UNL d   1      45.528 -12.314  42.280  0.00  0.00     0.022 C 
ATOM     22  C   UNL d   1      45.977 -12.618  43.639  0.00  0.00     0.041 A 
ATOM     23  C   UNL d   1      45.773 -13.188  44.205  0.00  0.00     0.102 A 
ATOM     24  C   UNL d   1      46.106 -13.259  44.954  0.00  0.00     0.021 C 
ENDBRANCH   1  18
TORSDOF 4
ENDMDL
MODEL 2
REMARK VINA RESULT:      27.5      2.223      4.413
REMARK  4 active torsions:
REMARK  status: ('A' for Active; 'I' for Inactive)
REMARK    1  A    between atoms: N_3  and  C_1 
REMARK    2  A    between atoms: N_5  and  N_2 
REMARK    3  A    between atoms: S_4  and  N_5 
REMARK    4  A    between atoms: C_13  and  S_4 
ROOT
ATOM      1  C   UNL d   1      46.364 -18.279  43.447  0.00  0.00     0.771 A 
ATOM      2  N   UNL d   1      46.139 -17.525  43.669  0.00  0.00    -0.026 N 
ATOM      3  N   UNL d   1      46.486 -18.717  44.136  0.00  0.00     0.048 NA
ATOM      4  C   UNL d   1      46.118 -17.486  44.483  0.00  0.00     0.204 A 
ATOM      5  N   UNL d   1      46.334 -18.225  44.779  0.00  0.00    -0.112 NA
ATOM      6  C   UNL d   1      45.919 -16.829  44.940  0.00  0.00     0.044 C 
ENDROOT
BRANCH   2   7
ATOM      7  N   UNL d   1      45.959 -16.899  43.164  0.00  0.00    -0.056 NA
BRANCH   7   8
ATOM      8  S   UNL d   1      45.746 -16.163  43.461  0.00  0.00     0.301 S 
ATOM      9  O   UNL d   1      44.956 -16.355  43.401  0.00  0.00    -0.197 OA
ATOM     10  O   UNL d   1      46.549 -15.973  43.520  0.00  0.00    -0.197 OA
BRANCH   8  11
ATOM     11  C   UNL d   1      45.552 -15.420  43.761  0.00  0.00     0.107 A 
ATOM     12  C   UNL d   1      46.042 -14.777  43.599  0.00  0.00     0.015 A 
ATOM     13  C   UNL d   1      45.851 -14.030  43.898  0.00  0.00     0.030 A 
ATOM     14  C   UNL d   1      45.168 -13.934  44.358  0.00  0.00     0.140 A 
ATOM     15  C   UNL d   1      44.678 -14.577  44.520  0.00  0.00     0.030 A 
ATOM     16  F   UNL d   1      44.982 -13.193  44.653  0.00  0.00    -0.204 F 
ATOM     17  C   UNL d   1      44.868 -15.324  44.221  0.00  0.00     0.015 A 
ENDBRANCH   8  11
ENDBRANCH   7   8
ENDBRANCH   2   7
BRANCH   1  18
ATOM     18  N   UNL d   1      46.453 -18.549  42.672  0.00  0.00    -0.056 N 
ATOM     19  N   UNL d   1      46.467 -18.082  41.993  0.00  0.00    -0.150 NA
ATOM     20  C   UNL d   1      46.565 -18.578  41.342  0.00  0.00     0.103 A 
ATOM     21  C   UNL d   1      46.609 -18.346  40.557  0.00  0.00     0.022 C 
ATOM     22  C   UNL d   1      46.613 -19.355  41.618  0.00  0.00     0.041 A 
ATOM     23  C   UNL d   1      46.542 -19.329  42.443  0.00  0.00     0.102 A 
ATOM     24  C   UNL d   1      46.560 -19.983  42.944  0.00  0.00     0.021 C 
ENDBRANCH   1  18
TORSDOF 4
ENDMDL
