MODEL 1
REMARK VINA RESULT:      31.6      0.000      0.000
REMARK  3 active torsions:
REMARK  status: ('A' for Active; 'I' for Inactive)
REMARK    1  A    between atoms: N_7  and  S_1 
REMARK    2  A    between atoms: C_3  and  C_8 
REMARK    3  A    between atoms: C_13  and  N_7 
ROOT
ATOM      1  C   UNL d   1     -54.792-101.476 -42.104  0.00  0.00     0.018 A 
ATOM      2  C   UNL d   1     -54.740-102.290 -42.040  0.00  0.00     0.003 A 
ATOM      3  C   UNL d   1     -54.817-101.007 -41.424  0.00  0.00     0.003 A 
ATOM      4  C   UNL d   1     -54.738-102.193 -40.623  0.00  0.00     0.093 A 
ATOM      5  C   UNL d   1     -54.713-102.651 -41.300  0.00  0.00     0.020 A 
ATOM      6  C   UNL d   1     -54.790-101.364 -40.685  0.00  0.00     0.020 A 
ENDROOT
BRANCH   1   7
ATOM      7  C   UNL d   1     -54.819-101.113 -42.844  0.00  0.00     0.088 A 
ATOM      8  N   UNL d   1     -54.958-101.491 -43.563  0.00  0.00    -0.239 NA
ATOM      9  C   UNL d   1     -54.938-100.927 -44.156  0.00  0.00     0.111 A 
ATOM     10  C   UNL d   1     -55.051-101.069 -44.969  0.00  0.00     0.028 C 
ATOM     11  S   UNL d   1     -54.786-100.193 -43.809  0.00  0.00    -0.066 SA
ATOM     12  C   UNL d   1     -54.712-100.309 -42.992  0.00  0.00     0.056 A 
ENDBRANCH   1   7
BRANCH   4  13
ATOM     13  N   UNL d   1     -54.711-102.548 -39.877  0.00  0.00    -0.162 NA
BRANCH  13  14
ATOM     14  S   UNL d   1     -55.433-102.697 -39.502  0.00  0.00     0.266 S 
ATOM     15  O   UNL d   1     -55.827-102.778 -40.277  0.00  0.00    -0.203 OA
ATOM     16  O   UNL d   1     -54.894-102.586 -38.618  0.00  0.00    -0.203 OA
ATOM     17  C   UNL d   1     -56.308-102.878 -38.840  0.00  0.00     0.165 C 
ENDBRANCH  13  14
ENDBRANCH   4  13
TORSDOF 3
ENDMDL
MODEL 2
REMARK VINA RESULT:      32.6      3.425      4.724
REMARK  3 active torsions:
REMARK  status: ('A' for Active; 'I' for Inactive)
REMARK    1  A    between atoms: N_7  and  S_1 
REMARK    2  A    between atoms: C_3  and  C_8 
REMARK    3  A    between atoms: C_13  and  N_7 
ROOT
ATOM      1  C   UNL d   1     -57.379 -99.500 -44.201  0.00  0.00     0.018 A 
ATOM      2  C   UNL d   1     -56.876 -99.520 -43.555  0.00  0.00     0.003 A 
ATOM      3  C   UNL d   1     -57.110 -99.745 -44.943  0.00  0.00     0.003 A 
ATOM      4  C   UNL d   1     -55.828-100.028 -44.367  0.00  0.00     0.093 A 
ATOM      5  C   UNL d   1     -56.101 -99.784 -43.636  0.00  0.00     0.020 A 
ATOM      6  C   UNL d   1     -56.338-100.009 -45.027  0.00  0.00     0.020 A 
ENDROOT
BRANCH   1   7
ATOM      7  C   UNL d   1     -58.156 -99.236 -44.121  0.00  0.00     0.088 A 
ATOM      8  N   UNL d   1     -58.584 -99.198 -43.419  0.00  0.00    -0.239 NA
ATOM      9  C   UNL d   1     -59.329 -98.904 -43.589  0.00  0.00     0.111 A 
ATOM     10  C   UNL d   1     -59.941 -98.776 -43.038  0.00  0.00     0.028 C 
ATOM     11  S   UNL d   1     -59.369 -98.758 -44.401  0.00  0.00    -0.066 SA
ATOM     12  C   UNL d   1     -58.639 -98.964 -44.732  0.00  0.00     0.056 A 
ENDBRANCH   1   7
BRANCH   4  13
ATOM     13  N   UNL d   1     -55.051-100.295 -44.456  0.00  0.00    -0.162 NA
BRANCH  13  14
ATOM     14  S   UNL d   1     -54.919-101.108 -44.391  0.00  0.00     0.266 S 
ATOM     15  O   UNL d   1     -55.078-101.211 -45.243  0.00  0.00    -0.203 OA
ATOM     16  O   UNL d   1     -54.743-100.907 -43.384  0.00  0.00    -0.203 OA
ATOM     17  C   UNL d   1     -54.711-102.167 -44.122  0.00  0.00     0.165 C 
ENDBRANCH  13  14
ENDBRANCH   4  13
TORSDOF 3
ENDMDL
