MODEL 1
REMARK VINA RESULT:      27.3      0.000      0.000
REMARK  4 active torsions:
REMARK  status: ('A' for Active; 'I' for Inactive)
REMARK    1  A    between atoms: C_2  and  C_1 
REMARK    2  A    between atoms: N_12  and  C_6 
REMARK    3  A    between atoms: C_16  and  N_12 
REMARK    4  A    between atoms: O_25  and  C_17 
ROOT
ATOM      1  C   UNL d   1      45.418 -15.495  44.255  0.00  0.00     0.082 A 
ATOM      2  C   UNL d   1      44.675 -15.382  44.600  0.00  0.00     0.302 A 
ATOM      3  C   UNL d   1      45.816 -14.853  43.895  0.00  0.00     0.009 A 
ATOM      4  O   UNL d   1      44.318 -14.633  44.593  0.00  0.00    -0.273 OA
ATOM      5  C   UNL d   1      45.456 -14.109  43.891  0.00  0.00     0.025 A 
ATOM      6  C   UNL d   1      44.706 -13.994  44.240  0.00  0.00     0.103 A 
ATOM      7  O   UNL d   1      44.285 -16.021  44.955  0.00  0.00    -0.259 OA
ATOM      8  C   UNL d   1      45.847 -13.474  43.537  0.00  0.00     0.026 A 
ATOM      9  C   UNL d   1      44.360 -13.247  44.228  0.00  0.00     0.027 A 
ATOM     10  C   UNL d   1      45.490 -12.729  43.531  0.00  0.00     0.094 A 
ATOM     11  C   UNL d   1      44.751 -12.617  43.874  0.00  0.00     0.026 A 
ENDROOT
BRANCH   1  12
ATOM     12  C   UNL d   1      45.767 -16.239  44.264  0.00  0.00     0.095 A 
ATOM     13  N   UNL d   1      45.432 -16.933  43.994  0.00  0.00    -0.221 NA
ATOM     14  C   UNL d   1      45.972 -17.541  44.109  0.00  0.00     0.194 A 
ATOM     15  S   UNL d   1      46.645 -17.220  44.452  0.00  0.00    -0.046 SA
ATOM     16  C   UNL d   1      46.520 -16.406  44.551  0.00  0.00     0.058 A 
BRANCH  14  17
ATOM     17  N   UNL d   1      45.856 -18.332  43.913  0.00  0.00    -0.221 NA
BRANCH  17  18
ATOM     18  C   UNL d   1      46.054 -18.594  43.155  0.00  0.00     0.084 A 
ATOM     19  C   UNL d   1      46.181 -19.401  43.025  0.00  0.00     0.022 A 
ATOM     20  C   UNL d   1      46.378 -19.670  42.278  0.00  0.00     0.044 A 
ATOM     21  C   UNL d   1      46.448 -19.126  41.657  0.00  0.00     0.196 A 
ATOM     22  C   UNL d   1      46.320 -18.320  41.791  0.00  0.00     0.044 A 
ATOM     23  O   UNL d   1      46.647 -19.396  40.901  0.00  0.00    -0.287 OA
ATOM     24  C   UNL d   1      46.123 -18.061  42.544  0.00  0.00     0.022 A 
ENDBRANCH  17  18
ENDBRANCH  14  17
ENDBRANCH   1  12
BRANCH  10  25
ATOM     25  O   UNL d   1      45.880 -12.098  43.178  0.00  0.00    -0.328 OA
ATOM     26  C   UNL d   1      46.250 -12.198  42.450  0.00  0.00     0.181 C 
ENDBRANCH  10  25
TORSDOF 4
ENDMDL
