MODEL 1
REMARK VINA RESULT:      -8.5      0.000      0.000
REMARK  3 active torsions:
REMARK  status: ('A' for Active; 'I' for Inactive)
REMARK    1  A    between atoms: C_6  and  N_1 
REMARK    2  A    between atoms: C_7  and  C_6 
REMARK    3  A    between atoms: C_8  and  C_7 
ROOT
ATOM      1  N   UNL d   1     -48.640  13.624  22.938  0.00  0.00    -0.305 N 
ATOM      2  C   UNL d   1     -48.967  12.910  23.182  0.00  0.00     0.064 A 
ATOM      3  C   UNL d   1     -47.651  13.816  22.847  0.00  0.00     0.064 A 
ATOM      4  C   UNL d   1     -48.222  12.585  23.269  0.00  0.00     0.018 A 
ATOM      5  C   UNL d   1     -47.558  13.036  23.102  0.00  0.00     0.018 A 
ATOM      6  C   UNL d   1     -46.999  14.274  22.679  0.00  0.00     0.018 A 
ATOM      7  C   UNL d   1     -49.638  12.455  23.351  0.00  0.00     0.018 A 
ATOM      8  C   UNL d   1     -48.135  11.799  23.526  0.00  0.00     0.002 A 
ATOM      9  C   UNL d   1     -46.806  12.716  23.187  0.00  0.00     0.002 A 
ATOM     10  C   UNL d   1     -46.143  13.181  23.016  0.00  0.00     0.000 A 
ATOM     11  C   UNL d   1     -49.561  11.673  23.607  0.00  0.00     0.002 A 
ATOM     12  C   UNL d   1     -46.242  13.957  22.762  0.00  0.00     0.002 A 
ATOM     13  C   UNL d   1     -48.800  11.349  23.693  0.00  0.00     0.000 A 
ENDROOT
BRANCH   1  14
ATOM     14  C   UNL d   1     -49.135  14.258  22.742  0.00  0.00     0.086 C 
BRANCH  14  15
ATOM     15  C   UNL d   1     -49.213  14.917  23.233  0.00  0.00     0.089 C 
BRANCH  15  16
ATOM     16  C   UNL d   1     -49.799  15.478  23.072  0.00  0.00     0.213 C 
ATOM     17  O   UNL d   1     -50.142  15.905  23.693  0.00  0.00    -0.644 OA
ATOM     18  O   UNL d   1     -50.042  15.614  22.296  0.00  0.00    -0.644 OA
ENDBRANCH  15  16
ENDBRANCH  14  15
ENDBRANCH   1  14
TORSDOF 3
ENDMDL
MODEL 2
REMARK VINA RESULT:      -8.5      0.073      2.227
REMARK  3 active torsions:
REMARK  status: ('A' for Active; 'I' for Inactive)
REMARK    1  A    between atoms: C_6  and  N_1 
REMARK    2  A    between atoms: C_7  and  C_6 
REMARK    3  A    between atoms: C_8  and  C_7 
ROOT
ATOM      1  N   UNL d   1     -48.518  13.720  22.911  0.00  0.00    -0.305 N 
ATOM      2  C   UNL d   1     -47.702  13.814  22.863  0.00  0.00     0.064 A 
ATOM      3  C   UNL d   1     -48.995  12.874  23.196  0.00  0.00     0.064 A 
ATOM      4  C   UNL d   1     -47.587  13.044  23.111  0.00  0.00     0.018 A 
ATOM      5  C   UNL d   1     -48.232  12.567  23.280  0.00  0.00     0.018 A 
ATOM      6  C   UNL d   1     -49.644  12.411  23.361  0.00  0.00     0.018 A 
ATOM      7  C   UNL d   1     -47.050  14.296  22.693  0.00  0.00     0.018 A 
ATOM      8  C   UNL d   1     -46.816  12.741  23.194  0.00  0.00     0.002 A 
ATOM      9  C   UNL d   1     -48.124  11.793  23.530  0.00  0.00     0.002 A 
ATOM     10  C   UNL d   1     -48.783  11.321  23.697  0.00  0.00     0.000 A 
ATOM     11  C   UNL d   1     -46.281  14.003  22.772  0.00  0.00     0.002 A 
ATOM     12  C   UNL d   1     -49.540  11.632  23.612  0.00  0.00     0.002 A 
ATOM     13  C   UNL d   1     -46.171  13.218  23.025  0.00  0.00     0.000 A 
ENDROOT
BRANCH   1  14
ATOM     14  C   UNL d   1     -49.018  14.350  22.717  0.00  0.00     0.086 C 
BRANCH  14  15
ATOM     15  C   UNL d   1     -49.301  14.873  23.288  0.00  0.00     0.089 C 
BRANCH  15  16
ATOM     16  C   UNL d   1     -49.854  15.451  23.074  0.00  0.00     0.213 C 
ATOM     17  O   UNL d   1     -50.202  15.922  23.658  0.00  0.00    -0.644 OA
ATOM     18  O   UNL d   1     -50.056  15.559  22.283  0.00  0.00    -0.644 OA
ENDBRANCH  15  16
ENDBRANCH  14  15
ENDBRANCH   1  14
TORSDOF 3
ENDMDL
MODEL 3
REMARK VINA RESULT:      -8.3      1.830      3.416
REMARK  3 active torsions:
REMARK  status: ('A' for Active; 'I' for Inactive)
REMARK    1  A    between atoms: C_6  and  N_1 
REMARK    2  A    between atoms: C_7  and  C_6 
REMARK    3  A    between atoms: C_8  and  C_7 
ROOT
ATOM      1  N   UNL d   1     -48.250  13.355  22.886  0.00  0.00    -0.305 N 
ATOM      2  C   UNL d   1     -48.517  14.127  22.784  0.00  0.00     0.064 A 
ATOM      3  C   UNL d   1     -48.813  12.577  23.206  0.00  0.00     0.064 A 
ATOM      4  C   UNL d   1     -49.267  13.912  23.027  0.00  0.00     0.018 A 
ATOM      5  C   UNL d   1     -49.422  13.135  23.240  0.00  0.00     0.018 A 
ATOM      6  C   UNL d   1     -48.954  11.802  23.414  0.00  0.00     0.018 A 
ATOM      7  C   UNL d   1     -48.361  14.911  22.570  0.00  0.00     0.018 A 
ATOM      8  C   UNL d   1     -49.875  14.478  23.060  0.00  0.00     0.002 A 
ATOM      9  C   UNL d   1     -50.173  12.911  23.486  0.00  0.00     0.002 A 
ATOM     10  C   UNL d   1     -50.316  12.125  23.698  0.00  0.00     0.000 A 
ATOM     11  C   UNL d   1     -48.960  15.480  22.599  0.00  0.00     0.002 A 
ATOM     12  C   UNL d   1     -49.707  11.574  23.661  0.00  0.00     0.002 A 
ATOM     13  C   UNL d   1     -49.721  15.254  22.848  0.00  0.00     0.000 A 
ENDROOT
BRANCH   1  14
ATOM     14  C   UNL d   1     -47.461  13.167  22.722  0.00  0.00     0.086 C 
BRANCH  14  15
ATOM     15  C   UNL d   1     -46.861  13.286  23.276  0.00  0.00     0.089 C 
BRANCH  15  16
ATOM     16  C   UNL d   1     -46.093  13.031  23.106  0.00  0.00     0.213 C 
ATOM     17  O   UNL d   1     -45.786  12.365  23.489  0.00  0.00    -0.644 OA
ATOM     18  O   UNL d   1     -45.632  13.439  22.558  0.00  0.00    -0.644 OA
ENDBRANCH  15  16
ENDBRANCH  14  15
ENDBRANCH   1  14
TORSDOF 3
ENDMDL
MODEL 4
REMARK VINA RESULT:      -8.2      1.588      2.675
REMARK  3 active torsions:
REMARK  status: ('A' for Active; 'I' for Inactive)
REMARK    1  A    between atoms: C_6  and  N_1 
REMARK    2  A    between atoms: C_7  and  C_6 
REMARK    3  A    between atoms: C_8  and  C_7 
ROOT
ATOM      1  N   UNL d   1     -48.620  13.313  23.232  0.00  0.00    -0.305 N 
ATOM      2  C   UNL d   1     -48.905  14.050  23.001  0.00  0.00     0.064 A 
ATOM      3  C   UNL d   1     -47.653  13.019  23.194  0.00  0.00     0.064 A 
ATOM      4  C   UNL d   1     -48.151  14.290  22.796  0.00  0.00     0.018 A 
ATOM      5  C   UNL d   1     -47.518  13.777  22.891  0.00  0.00     0.018 A 
ATOM      6  C   UNL d   1     -47.033  12.500  23.292  0.00  0.00     0.018 A 
ATOM      7  C   UNL d   1     -49.543  14.569  22.906  0.00  0.00     0.018 A 
ATOM      8  C   UNL d   1     -48.022  15.053  22.492  0.00  0.00     0.002 A 
ATOM      9  C   UNL d   1     -46.758  14.010  22.687  0.00  0.00     0.002 A 
ATOM     10  C   UNL d   1     -46.128  13.483  22.787  0.00  0.00     0.000 A 
ATOM     11  C   UNL d   1     -49.424  15.329  22.604  0.00  0.00     0.002 A 
ATOM     12  C   UNL d   1     -46.268  12.731  23.089  0.00  0.00     0.002 A 
ATOM     13  C   UNL d   1     -48.654  15.566  22.398  0.00  0.00     0.000 A 
ENDROOT
BRANCH   1  14
ATOM     14  C   UNL d   1     -49.144  12.743  23.525  0.00  0.00     0.086 C 
BRANCH  14  15
ATOM     15  C   UNL d   1     -49.528  12.208  23.028  0.00  0.00     0.089 C 
BRANCH  15  16
ATOM     16  C   UNL d   1     -50.077  11.677  23.345  0.00  0.00     0.213 C 
ATOM     17  O   UNL d   1     -49.814  10.976  23.696  0.00  0.00    -0.644 OA
ATOM     18  O   UNL d   1     -50.883  11.845  23.313  0.00  0.00    -0.644 OA
ENDBRANCH  15  16
ENDBRANCH  14  15
ENDBRANCH   1  14
TORSDOF 3
ENDMDL
MODEL 5
REMARK VINA RESULT:      -8.1      1.570      2.764
REMARK  3 active torsions:
REMARK  status: ('A' for Active; 'I' for Inactive)
REMARK    1  A    between atoms: C_6  and  N_1 
REMARK    2  A    between atoms: C_7  and  C_6 
REMARK    3  A    between atoms: C_8  and  C_7 
ROOT
ATOM      1  N   UNL d   1     -48.569  13.178  23.281  0.00  0.00    -0.305 N 
ATOM      2  C   UNL d   1     -47.792  12.907  23.258  0.00  0.00     0.064 A 
ATOM      3  C   UNL d   1     -48.880  14.097  22.991  0.00  0.00     0.064 A 
ATOM      4  C   UNL d   1     -47.540  13.623  22.953  0.00  0.00     0.018 A 
ATOM      5  C   UNL d   1     -48.082  14.223  22.817  0.00  0.00     0.018 A 
ATOM      6  C   UNL d   1     -49.427  14.685  22.861  0.00  0.00     0.018 A 
ATOM      7  C   UNL d   1     -47.246  12.301  23.395  0.00  0.00     0.018 A 
ATOM      8  C   UNL d   1     -46.736  13.744  22.780  0.00  0.00     0.002 A 
ATOM      9  C   UNL d   1     -47.836  14.945  22.511  0.00  0.00     0.002 A 
ATOM     10  C   UNL d   1     -48.392  15.543  22.378  0.00  0.00     0.000 A 
ATOM     11  C   UNL d   1     -46.444  12.414  23.225  0.00  0.00     0.002 A 
ATOM     12  C   UNL d   1     -49.184  15.411  22.553  0.00  0.00     0.002 A 
ATOM     13  C   UNL d   1     -46.195  13.144  22.916  0.00  0.00     0.000 A 
ENDROOT
BRANCH   1  14
ATOM     14  C   UNL d   1     -49.170  12.682  23.561  0.00  0.00     0.086 C 
BRANCH  14  15
ATOM     15  C   UNL d   1     -49.647  12.245  23.049  0.00  0.00     0.089 C 
BRANCH  15  16
ATOM     16  C   UNL d   1     -50.253  11.774  23.357  0.00  0.00     0.213 C 
ATOM     17  O   UNL d   1     -51.036  12.038  23.324  0.00  0.00    -0.644 OA
ATOM     18  O   UNL d   1     -50.079  11.044  23.698  0.00  0.00    -0.644 OA
ENDBRANCH  15  16
ENDBRANCH  14  15
ENDBRANCH   1  14
TORSDOF 3
ENDMDL
MODEL 6
REMARK VINA RESULT:      -5.9      8.519      9.996
REMARK  3 active torsions:
REMARK  status: ('A' for Active; 'I' for Inactive)
REMARK    1  A    between atoms: C_6  and  N_1 
REMARK    2  A    between atoms: C_7  and  C_6 
REMARK    3  A    between atoms: C_8  and  C_7 
ROOT
ATOM      1  N   UNL d   1     -40.222  14.399  18.547  0.00  0.00    -0.305 N 
ATOM      2  C   UNL d   1     -39.587  13.917  18.343  0.00  0.00     0.064 A 
ATOM      3  C   UNL d   1     -40.688  15.049  17.927  0.00  0.00     0.064 A 
ATOM      4  C   UNL d   1     -39.591  14.214  17.582  0.00  0.00     0.018 A 
ATOM      5  C   UNL d   1     -40.142  14.782  17.367  0.00  0.00     0.018 A 
ATOM      6  C   UNL d   1     -41.240  15.614  17.726  0.00  0.00     0.018 A 
ATOM      7  C   UNL d   1     -39.031  13.343  18.560  0.00  0.00     0.018 A 
ATOM      8  C   UNL d   1     -39.039  13.941  17.023  0.00  0.00     0.002 A 
ATOM      9  C   UNL d   1     -40.152  15.085  16.603  0.00  0.00     0.002 A 
ATOM     10  C   UNL d   1     -40.712  15.659  16.399  0.00  0.00     0.000 A 
ATOM     11  C   UNL d   1     -38.479  13.066  18.010  0.00  0.00     0.002 A 
ATOM     12  C   UNL d   1     -41.253  15.920  16.960  0.00  0.00     0.002 A 
ATOM     13  C   UNL d   1     -38.489  13.373  17.238  0.00  0.00     0.000 A 
ENDROOT
BRANCH   1  14
ATOM     14  C   UNL d   1     -40.529  14.374  19.315  0.00  0.00     0.086 C 
BRANCH  14  15
ATOM     15  C   UNL d   1     -40.257  14.880  19.909  0.00  0.00     0.089 C 
BRANCH  15  16
ATOM     16  C   UNL d   1     -40.603  14.850  20.660  0.00  0.00     0.213 C 
ATOM     17  O   UNL d   1     -40.434  15.440  21.214  0.00  0.00    -0.644 OA
ATOM     18  O   UNL d   1     -41.115  14.234  20.857  0.00  0.00    -0.644 OA
ENDBRANCH  15  16
ENDBRANCH  14  15
ENDBRANCH   1  14
TORSDOF 3
ENDMDL
MODEL 7
REMARK VINA RESULT:      -5.8      8.479      9.758
REMARK  3 active torsions:
REMARK  status: ('A' for Active; 'I' for Inactive)
REMARK    1  A    between atoms: C_6  and  N_1 
REMARK    2  A    between atoms: C_7  and  C_6 
REMARK    3  A    between atoms: C_8  and  C_7 
ROOT
ATOM      1  N   UNL d   1     -39.921  15.125  18.875  0.00  0.00    -0.305 N 
ATOM      2  C   UNL d   1     -39.301  14.587  18.928  0.00  0.00     0.064 A 
ATOM      3  C   UNL d   1     -40.462  15.476  19.656  0.00  0.00     0.064 A 
ATOM      4  C   UNL d   1     -39.390  14.547  19.740  0.00  0.00     0.018 A 
ATOM      5  C   UNL d   1     -39.971  14.991  20.110  0.00  0.00     0.018 A 
ATOM      6  C   UNL d   1     -41.043  15.922  20.012  0.00  0.00     0.018 A 
ATOM      7  C   UNL d   1     -38.714  14.139  18.554  0.00  0.00     0.018 A 
ATOM      8  C   UNL d   1     -38.893  14.057  20.192  0.00  0.00     0.002 A 
ATOM      9  C   UNL d   1     -40.067  14.955  20.925  0.00  0.00     0.002 A 
ATOM     10  C   UNL d   1     -40.657  15.408  21.288  0.00  0.00     0.000 A 
ATOM     11  C   UNL d   1     -38.216  13.649  18.996  0.00  0.00     0.002 A 
ATOM     12  C   UNL d   1     -41.142  15.889  20.830  0.00  0.00     0.002 A 
ATOM     13  C   UNL d   1     -38.312  13.613  19.821  0.00  0.00     0.000 A 
ENDROOT
BRANCH   1  14
ATOM     14  C   UNL d   1     -40.146  15.424  18.137  0.00  0.00     0.086 C 
BRANCH  14  15
ATOM     15  C   UNL d   1     -40.626  14.994  17.621  0.00  0.00     0.089 C 
BRANCH  15  16
ATOM     16  C   UNL d   1     -40.917  15.356  16.937  0.00  0.00     0.213 C 
ATOM     17  O   UNL d   1     -40.447  15.899  16.527  0.00  0.00    -0.644 OA
ATOM     18  O   UNL d   1     -41.674  15.178  16.664  0.00  0.00    -0.644 OA
ENDBRANCH  15  16
ENDBRANCH  14  15
ENDBRANCH   1  14
TORSDOF 3
ENDMDL
MODEL 8
REMARK VINA RESULT:      -5.7      9.323     10.405
REMARK  3 active torsions:
REMARK  status: ('A' for Active; 'I' for Inactive)
REMARK    1  A    between atoms: C_6  and  N_1 
REMARK    2  A    between atoms: C_7  and  C_6 
REMARK    3  A    between atoms: C_8  and  C_7 
ROOT
ATOM      1  N   UNL d   1     -39.663  14.591  18.137  0.00  0.00    -0.305 N 
ATOM      2  C   UNL d   1     -40.152  14.941  17.575  0.00  0.00     0.064 A 
ATOM      3  C   UNL d   1     -39.735  14.720  19.139  0.00  0.00     0.064 A 
ATOM      4  C   UNL d   1     -40.576  15.320  18.162  0.00  0.00     0.018 A 
ATOM      5  C   UNL d   1     -40.371  15.213  18.949  0.00  0.00     0.018 A 
ATOM      6  C   UNL d   1     -39.522  14.605  19.916  0.00  0.00     0.018 A 
ATOM      7  C   UNL d   1     -40.359  15.049  16.781  0.00  0.00     0.018 A 
ATOM      8  C   UNL d   1     -41.214  15.815  17.965  0.00  0.00     0.002 A 
ATOM      9  C   UNL d   1     -40.792  15.591  19.544  0.00  0.00     0.002 A 
ATOM     10  C   UNL d   1     -40.576  15.475  20.335  0.00  0.00     0.000 A 
ATOM     11  C   UNL d   1     -40.993  15.539  16.576  0.00  0.00     0.002 A 
ATOM     12  C   UNL d   1     -39.942  14.983  20.517  0.00  0.00     0.002 A 
ATOM     13  C   UNL d   1     -41.419  15.922  17.178  0.00  0.00     0.000 A 
ENDROOT
BRANCH   1  14
ATOM     14  C   UNL d   1     -39.053  14.088  17.896  0.00  0.00     0.086 C 
BRANCH  14  15
ATOM     15  C   UNL d   1     -39.191  13.299  17.699  0.00  0.00     0.089 C 
BRANCH  15  16
ATOM     16  C   UNL d   1     -38.558  12.817  17.474  0.00  0.00     0.213 C 
ATOM     17  O   UNL d   1     -37.941  13.133  17.022  0.00  0.00    -0.644 OA
ATOM     18  O   UNL d   1     -38.539  12.024  17.698  0.00  0.00    -0.644 OA
ENDBRANCH  15  16
ENDBRANCH  14  15
ENDBRANCH   1  14
TORSDOF 3
ENDMDL
MODEL 9
REMARK VINA RESULT:      -5.7      8.635     10.054
REMARK  3 active torsions:
REMARK  status: ('A' for Active; 'I' for Inactive)
REMARK    1  A    between atoms: C_6  and  N_1 
REMARK    2  A    between atoms: C_7  and  C_6 
REMARK    3  A    between atoms: C_8  and  C_7 
ROOT
ATOM      1  N   UNL d   1     -40.234  14.454  18.463  0.00  0.00    -0.305 N 
ATOM      2  C   UNL d   1     -40.617  14.987  17.966  0.00  0.00     0.064 A 
ATOM      3  C   UNL d   1     -39.458  13.860  18.200  0.00  0.00     0.064 A 
ATOM      4  C   UNL d   1     -40.125  14.781  17.347  0.00  0.00     0.018 A 
ATOM      5  C   UNL d   1     -39.541  14.216  17.459  0.00  0.00     0.018 A 
ATOM      6  C   UNL d   1     -38.883  13.297  18.323  0.00  0.00     0.018 A 
ATOM      7  C   UNL d   1     -41.206  15.557  17.854  0.00  0.00     0.018 A 
ATOM      8  C   UNL d   1     -40.213  15.143  16.604  0.00  0.00     0.002 A 
ATOM      9  C   UNL d   1     -39.043  14.004  16.841  0.00  0.00     0.002 A 
ATOM     10  C   UNL d   1     -38.458  13.432  16.966  0.00  0.00     0.000 A 
ATOM     11  C   UNL d   1     -41.301  15.922  17.118  0.00  0.00     0.002 A 
ATOM     12  C   UNL d   1     -38.381  13.081  17.706  0.00  0.00     0.002 A 
ATOM     13  C   UNL d   1     -40.796  15.708  16.493  0.00  0.00     0.000 A 
ENDROOT
BRANCH   1  14
ATOM     14  C   UNL d   1     -40.479  14.375  19.250  0.00  0.00     0.086 C 
BRANCH  14  15
ATOM     15  C   UNL d   1     -40.208  14.880  19.843  0.00  0.00     0.089 C 
BRANCH  15  16
ATOM     16  C   UNL d   1     -40.439  14.749  20.627  0.00  0.00     0.213 C 
ATOM     17  O   UNL d   1     -39.983  15.054  21.246  0.00  0.00    -0.644 OA
ATOM     18  O   UNL d   1     -41.121  14.317  20.792  0.00  0.00    -0.644 OA
ENDBRANCH  15  16
ENDBRANCH  14  15
ENDBRANCH   1  14
TORSDOF 3
ENDMDL
