MODEL 1
REMARK VINA RESULT:      -6.1      0.000      0.000
REMARK  2 active torsions:
REMARK  status: ('A' for Active; 'I' for Inactive)
REMARK    1  A    between atoms: C_6  and  C_1 
REMARK    2  A    between atoms: O_12  and  C_9 
ROOT
ATOM      1  C   UNL d   1     -41.566-122.520 -52.948  0.00  0.00     0.162 A 
ATOM      2  N   UNL d   1     -42.169-122.027 -53.292  0.00  0.00    -0.225 NA
ATOM      3  N   UNL d   1     -41.123-122.830 -53.571  0.00  0.00    -0.225 NA
ATOM      4  C   UNL d   1     -42.079-122.049 -54.092  0.00  0.00     0.101 A 
ATOM      5  C   UNL d   1     -41.416-122.559 -54.269  0.00  0.00     0.101 A 
ATOM      6  C   UNL d   1     -42.457-121.714 -54.745  0.00  0.00     0.021 A 
ATOM      7  C   UNL d   1     -41.192-122.687 -55.052  0.00  0.00     0.021 A 
ATOM      8  C   UNL d   1     -41.604-122.329 -55.639  0.00  0.00     0.002 A 
ATOM      9  C   UNL d   1     -42.245-121.837 -55.468  0.00  0.00     0.002 A 
ENDROOT
BRANCH   1  10
ATOM     10  C   UNL d   1     -41.455-122.655 -52.142  0.00  0.00     0.036 A 
ATOM     11  C   UNL d   1     -41.511-122.030 -51.607  0.00  0.00     0.005 A 
ATOM     12  C   UNL d   1     -41.400-122.166 -50.801  0.00  0.00     0.024 A 
ATOM     13  C   UNL d   1     -41.233-122.926 -50.530  0.00  0.00     0.094 A 
ATOM     14  C   UNL d   1     -41.176-123.556 -51.065  0.00  0.00     0.024 A 
ATOM     15  C   UNL d   1     -41.287-123.421 -51.871  0.00  0.00     0.005 A 
BRANCH  13  16
ATOM     16  O   UNL d   1     -41.123-123.061 -49.724  0.00  0.00    -0.328 OA
ATOM     17  C   UNL d   1     -41.300-123.488 -49.039  0.00  0.00     0.181 C 
ENDBRANCH  13  16
ENDBRANCH   1  10
TORSDOF 2
ENDMDL
MODEL 2
REMARK VINA RESULT:      -5.8      0.458      1.159
REMARK  2 active torsions:
REMARK  status: ('A' for Active; 'I' for Inactive)
REMARK    1  A    between atoms: C_6  and  C_1 
REMARK    2  A    between atoms: O_12  and  C_9 
ROOT
ATOM      1  C   UNL d   1     -41.495-122.791 -52.613  0.00  0.00     0.162 A 
ATOM      2  N   UNL d   1     -41.206-123.299 -53.232  0.00  0.00    -0.225 NA
ATOM      3  N   UNL d   1     -41.880-122.159 -52.978  0.00  0.00    -0.225 NA
ATOM      4  C   UNL d   1     -41.416-122.973 -53.937  0.00  0.00     0.101 A 
ATOM      5  C   UNL d   1     -41.844-122.250 -53.777  0.00  0.00     0.101 A 
ATOM      6  C   UNL d   1     -41.321-123.163 -54.735  0.00  0.00     0.021 A 
ATOM      7  C   UNL d   1     -42.130-121.794 -54.400  0.00  0.00     0.021 A 
ATOM      8  C   UNL d   1     -42.002-122.038 -55.153  0.00  0.00     0.002 A 
ATOM      9  C   UNL d   1     -41.589-122.736 -55.309  0.00  0.00     0.002 A 
ENDROOT
BRANCH   1  10
ATOM     10  C   UNL d   1     -41.402-122.916 -51.803  0.00  0.00     0.036 A 
ATOM     11  C   UNL d   1     -41.218-123.668 -51.520  0.00  0.00     0.005 A 
ATOM     12  C   UNL d   1     -41.125-123.793 -50.709  0.00  0.00     0.024 A 
ATOM     13  C   UNL d   1     -41.216-123.166 -50.183  0.00  0.00     0.094 A 
ATOM     14  C   UNL d   1     -41.400-122.409 -50.464  0.00  0.00     0.024 A 
ATOM     15  C   UNL d   1     -41.493-122.284 -51.274  0.00  0.00     0.005 A 
BRANCH  13  16
ATOM     16  O   UNL d   1     -41.123-123.291 -49.372  0.00  0.00    -0.328 OA
ATOM     17  C   UNL d   1     -41.409-123.587 -48.657  0.00  0.00     0.181 C 
ENDBRANCH  13  16
ENDBRANCH   1  10
TORSDOF 2
ENDMDL
MODEL 3
REMARK VINA RESULT:      -5.4      1.740      4.491
REMARK  2 active torsions:
REMARK  status: ('A' for Active; 'I' for Inactive)
REMARK    1  A    between atoms: C_6  and  C_1 
REMARK    2  A    between atoms: O_12  and  C_9 
ROOT
ATOM      1  C   UNL d   1     -41.677-123.004 -50.505  0.00  0.00     0.162 A 
ATOM      2  N   UNL d   1     -42.429-122.924 -50.115  0.00  0.00    -0.225 NA
ATOM      3  N   UNL d   1     -41.123-123.197 -49.925  0.00  0.00    -0.225 NA
ATOM      4  C   UNL d   1     -42.318-123.066 -49.331  0.00  0.00     0.101 A 
ATOM      5  C   UNL d   1     -41.489-123.240 -49.210  0.00  0.00     0.101 A 
ATOM      6  C   UNL d   1     -42.789-123.084 -48.653  0.00  0.00     0.021 A 
ATOM      7  C   UNL d   1     -41.210-123.410 -48.453  0.00  0.00     0.021 A 
ATOM      8  C   UNL d   1     -41.724-123.409 -47.838  0.00  0.00     0.002 A 
ATOM      9  C   UNL d   1     -42.525-123.242 -47.955  0.00  0.00     0.002 A 
ENDROOT
BRANCH   1  10
ATOM     10  C   UNL d   1     -41.539-122.904 -51.312  0.00  0.00     0.036 A 
ATOM     11  C   UNL d   1     -41.475-122.145 -51.630  0.00  0.00     0.005 A 
ATOM     12  C   UNL d   1     -41.337-122.046 -52.437  0.00  0.00     0.024 A 
ATOM     13  C   UNL d   1     -41.262-122.705 -52.926  0.00  0.00     0.094 A 
ATOM     14  C   UNL d   1     -41.325-123.468 -52.610  0.00  0.00     0.024 A 
ATOM     15  C   UNL d   1     -41.464-123.568 -51.803  0.00  0.00     0.005 A 
BRANCH  13  16
ATOM     16  O   UNL d   1     -41.124-122.605 -53.734  0.00  0.00    -0.328 OA
ATOM     17  C   UNL d   1     -41.374-122.683 -54.517  0.00  0.00     0.181 C 
ENDBRANCH  13  16
ENDBRANCH   1  10
TORSDOF 2
ENDMDL
MODEL 4
REMARK VINA RESULT:      -4.7      1.632      4.178
REMARK  2 active torsions:
REMARK  status: ('A' for Active; 'I' for Inactive)
REMARK    1  A    between atoms: C_6  and  C_1 
REMARK    2  A    between atoms: O_12  and  C_9 
ROOT
ATOM      1  C   UNL d   1     -41.604-122.855 -51.731  0.00  0.00     0.162 A 
ATOM      2  N   UNL d   1     -42.133-122.485 -51.177  0.00  0.00    -0.225 NA
ATOM      3  N   UNL d   1     -41.157-123.405 -51.308  0.00  0.00    -0.225 NA
ATOM      4  C   UNL d   1     -41.999-122.809 -50.452  0.00  0.00     0.101 A 
ATOM      5  C   UNL d   1     -41.379-123.392 -50.535  0.00  0.00     0.101 A 
ATOM      6  C   UNL d   1     -42.302-122.715 -49.690  0.00  0.00     0.021 A 
ATOM      7  C   UNL d   1     -41.123-123.817 -49.877  0.00  0.00     0.021 A 
ATOM      8  C   UNL d   1     -41.461-123.675 -49.165  0.00  0.00     0.002 A 
ATOM      9  C   UNL d   1     -42.060-123.112 -49.084  0.00  0.00     0.002 A 
ENDROOT
BRANCH   1  10
ATOM     10  C   UNL d   1     -41.556-122.689 -52.537  0.00  0.00     0.036 A 
ATOM     11  C   UNL d   1     -41.288-123.266 -53.063  0.00  0.00     0.005 A 
ATOM     12  C   UNL d   1     -41.240-123.099 -53.869  0.00  0.00     0.024 A 
ATOM     13  C   UNL d   1     -41.459-122.356 -54.151  0.00  0.00     0.094 A 
ATOM     14  C   UNL d   1     -41.728-121.774 -53.625  0.00  0.00     0.024 A 
ATOM     15  C   UNL d   1     -41.776-121.941 -52.819  0.00  0.00     0.005 A 
BRANCH  13  16
ATOM     16  O   UNL d   1     -41.411-122.189 -54.957  0.00  0.00    -0.328 OA
ATOM     17  C   UNL d   1     -41.781-122.054 -55.683  0.00  0.00     0.181 C 
ENDBRANCH  13  16
ENDBRANCH   1  10
TORSDOF 2
ENDMDL
