MODEL 1
REMARK VINA RESULT:      -9.9      0.000      0.000
REMARK  5 active torsions:
REMARK  status: ('A' for Active; 'I' for Inactive)
REMARK    1  A    between atoms: C_11  and  C_3 
REMARK    2  A    between atoms: C_14  and  C_7 
REMARK    3  A    between atoms: O_18  and  C_11 
REMARK    4  A    between atoms: C_16  and  C_20 
REMARK    5  A    between atoms: C_20  and  O_18 
ROOT
ATOM      1  C   UNL d   1      52.045  33.124  52.866  0.00  0.00     0.172 A 
ATOM      2  C   UNL d   1      52.646  33.307  53.394  0.00  0.00     0.094 A 
ATOM      3  C   UNL d   1      53.106  31.962  53.359  0.00  0.00     0.081 A 
ATOM      4  C   UNL d   1      52.716  34.083  53.679  0.00  0.00     0.286 A 
ATOM      5  N   UNL d   1      51.516  33.699  52.619  0.00  0.00    -0.172 NA
ATOM      6  N   UNL d   1      52.184  34.657  53.429  0.00  0.00    -0.152 NA
ATOM      7  C   UNL d   1      53.176  32.728  53.641  0.00  0.00     0.014 A 
ATOM      8  C   UNL d   1      52.502  31.769  52.825  0.00  0.00     0.088 A 
ATOM      9  N   UNL d   1      51.969  32.356  52.579  0.00  0.00    -0.226 NA
ATOM     10  C   UNL d   1      51.585  34.465  52.900  0.00  0.00     0.373 A 
ATOM     11  O   UNL d   1      53.320  34.276  54.213  0.00  0.00    -0.265 OA
ATOM     12  O   UNL d   1      51.050  35.042  52.649  0.00  0.00    -0.242 OA
ATOM     13  C   UNL d   1      52.429  31.002  52.541  0.00  0.00     0.021 C 
ENDROOT
BRANCH   3  14
ATOM     14  C   UNL d   1      53.632  31.378  53.601  0.00  0.00     0.302 C 
ATOM     15  O   UNL d   1      54.383  31.333  53.253  0.00  0.00    -0.259 OA
BRANCH  14  16
ATOM     16  O   UNL d   1      53.417  30.838  54.187  0.00  0.00    -0.271 OA
BRANCH  16  17
ATOM     17  C   UNL d   1      53.643  30.045  54.123  0.00  0.00     0.126 C 
BRANCH  17  18
ATOM     18  C   UNL d   1      53.344  29.487  54.654  0.00  0.00     0.027 C 
ATOM     19  C   UNL d   1      53.655  28.726  54.677  0.00  0.00     0.002 C 
ENDBRANCH  17  18
ENDBRANCH  16  17
ENDBRANCH  14  16
ENDBRANCH   3  14
BRANCH   7  20
ATOM     20  C   UNL d   1      53.778  32.920  54.172  0.00  0.00     0.001 A 
ATOM     21  C   UNL d   1      54.517  33.155  53.888  0.00  0.00     0.000 A 
ATOM     22  C   UNL d   1      55.124  33.349  54.419  0.00  0.00     0.000 A 
ATOM     23  C   UNL d   1      54.985  33.306  55.229  0.00  0.00     0.000 A 
ATOM     24  C   UNL d   1      54.246  33.071  55.513  0.00  0.00     0.000 A 
ATOM     25  C   UNL d   1      53.641  32.878  54.979  0.00  0.00     0.000 A 
ENDBRANCH   7  20
TORSDOF 5
ENDMDL
MODEL 2
REMARK VINA RESULT:      -9.5      1.434      2.765
REMARK  5 active torsions:
REMARK  status: ('A' for Active; 'I' for Inactive)
REMARK    1  A    between atoms: C_11  and  C_3 
REMARK    2  A    between atoms: C_14  and  C_7 
REMARK    3  A    between atoms: O_18  and  C_11 
REMARK    4  A    between atoms: C_16  and  C_20 
REMARK    5  A    between atoms: C_20  and  O_18 
ROOT
ATOM      1  C   UNL d   1      53.503  34.517  54.336  0.00  0.00     0.172 A 
ATOM      2  C   UNL d   1      52.796  34.481  53.921  0.00  0.00     0.094 A 
ATOM      3  C   UNL d   1      53.117  33.177  53.455  0.00  0.00     0.081 A 
ATOM      4  C   UNL d   1      52.275  35.126  53.948  0.00  0.00     0.286 A 
ATOM      5  N   UNL d   1      53.697  35.181  54.774  0.00  0.00    -0.172 NA
ATOM      6  N   UNL d   1      52.473  35.790  54.389  0.00  0.00    -0.152 NA
ATOM      7  C   UNL d   1      52.602  33.813  53.481  0.00  0.00     0.014 A 
ATOM      8  C   UNL d   1      53.834  33.205  53.871  0.00  0.00     0.088 A 
ATOM      9  N   UNL d   1      54.025  33.881  54.314  0.00  0.00    -0.226 NA
ATOM     10  C   UNL d   1      53.183  35.818  54.801  0.00  0.00     0.373 A 
ATOM     11  O   UNL d   1      51.558  35.098  53.532  0.00  0.00    -0.265 OA
ATOM     12  O   UNL d   1      53.383  36.486  55.244  0.00  0.00    -0.242 OA
ATOM     13  C   UNL d   1      54.353  32.568  53.847  0.00  0.00     0.021 C 
ENDROOT
BRANCH   3  14
ATOM     14  C   UNL d   1      52.931  32.505  53.018  0.00  0.00     0.302 C 
ATOM     15  O   UNL d   1      53.002  32.521  52.192  0.00  0.00    -0.259 OA
BRANCH  14  16
ATOM     16  O   UNL d   1      52.674  31.818  53.396  0.00  0.00    -0.271 OA
BRANCH  16  17
ATOM     17  C   UNL d   1      52.808  31.080  53.048  0.00  0.00     0.126 C 
BRANCH  17  18
ATOM     18  C   UNL d   1      52.415  30.412  53.335  0.00  0.00     0.027 C 
ATOM     19  C   UNL d   1      52.781  29.676  53.323  0.00  0.00     0.002 C 
ENDBRANCH  17  18
ENDBRANCH  16  17
ENDBRANCH  14  16
ENDBRANCH   3  14
BRANCH   7  20
ATOM     20  C   UNL d   1      51.889  33.785  53.067  0.00  0.00     0.001 A 
ATOM     21  C   UNL d   1      51.859  34.046  52.284  0.00  0.00     0.000 A 
ATOM     22  C   UNL d   1      51.143  34.019  51.865  0.00  0.00     0.000 A 
ATOM     23  C   UNL d   1      50.466  33.732  52.233  0.00  0.00     0.000 A 
ATOM     24  C   UNL d   1      50.496  33.472  53.016  0.00  0.00     0.000 A 
ATOM     25  C   UNL d   1      51.213  33.500  53.433  0.00  0.00     0.000 A 
ENDBRANCH   7  20
TORSDOF 5
ENDMDL
MODEL 3
REMARK VINA RESULT:      -9.5      1.117      3.356
REMARK  5 active torsions:
REMARK  status: ('A' for Active; 'I' for Inactive)
REMARK    1  A    between atoms: C_11  and  C_3 
REMARK    2  A    between atoms: C_14  and  C_7 
REMARK    3  A    between atoms: O_18  and  C_11 
REMARK    4  A    between atoms: C_16  and  C_20 
REMARK    5  A    between atoms: C_20  and  O_18 
ROOT
ATOM      1  C   UNL d   1      52.489  31.650  53.019  0.00  0.00     0.172 A 
ATOM      2  C   UNL d   1      53.146  31.883  53.454  0.00  0.00     0.094 A 
ATOM      3  C   UNL d   1      52.807  33.251  53.261  0.00  0.00     0.081 A 
ATOM      4  C   UNL d   1      53.650  31.306  53.771  0.00  0.00     0.286 A 
ATOM      5  N   UNL d   1      52.329  30.857  52.898  0.00  0.00    -0.172 NA
ATOM      6  N   UNL d   1      53.485  30.511  53.647  0.00  0.00    -0.152 NA
ATOM      7  C   UNL d   1      53.306  32.682  53.575  0.00  0.00     0.014 A 
ATOM      8  C   UNL d   1      52.142  33.025  52.821  0.00  0.00     0.088 A 
ATOM      9  N   UNL d   1      51.985  32.218  52.702  0.00  0.00    -0.226 NA
ATOM     10  C   UNL d   1      52.826  30.287  53.212  0.00  0.00     0.373 A 
ATOM     11  O   UNL d   1      54.315  31.533  54.211  0.00  0.00    -0.265 OA
ATOM     12  O   UNL d   1      52.660  29.487  53.087  0.00  0.00    -0.242 OA
ATOM     13  C   UNL d   1      51.640  33.593  52.505  0.00  0.00     0.021 C 
ENDROOT
BRANCH   3  14
ATOM     14  C   UNL d   1      52.960  34.051  53.377  0.00  0.00     0.302 C 
ATOM     15  O   UNL d   1      53.474  34.449  52.863  0.00  0.00    -0.259 OA
BRANCH  14  16
ATOM     16  O   UNL d   1      52.606  34.458  54.002  0.00  0.00    -0.271 OA
BRANCH  16  17
ATOM     17  C   UNL d   1      52.583  35.284  53.997  0.00  0.00     0.126 C 
BRANCH  17  18
ATOM     18  C   UNL d   1      52.373  35.694  54.684  0.00  0.00     0.027 C 
ATOM     19  C   UNL d   1      52.780  36.374  54.903  0.00  0.00     0.002 C 
ENDBRANCH  17  18
ENDBRANCH  16  17
ENDBRANCH  14  16
ENDBRANCH   3  14
BRANCH   7  20
ATOM     20  C   UNL d   1      53.968  32.907  54.012  0.00  0.00     0.001 A 
ATOM     21  C   UNL d   1      53.926  32.932  54.837  0.00  0.00     0.000 A 
ATOM     22  C   UNL d   1      54.590  33.158  55.280  0.00  0.00     0.000 A 
ATOM     23  C   UNL d   1      55.288  33.357  54.894  0.00  0.00     0.000 A 
ATOM     24  C   UNL d   1      55.331  33.332  54.070  0.00  0.00     0.000 A 
ATOM     25  C   UNL d   1      54.664  33.105  53.630  0.00  0.00     0.000 A 
ENDBRANCH   7  20
TORSDOF 5
ENDMDL
MODEL 4
REMARK VINA RESULT:      -8.8      1.462      3.935
REMARK  5 active torsions:
REMARK  status: ('A' for Active; 'I' for Inactive)
REMARK    1  A    between atoms: C_11  and  C_3 
REMARK    2  A    between atoms: C_14  and  C_7 
REMARK    3  A    between atoms: O_18  and  C_11 
REMARK    4  A    between atoms: C_16  and  C_20 
REMARK    5  A    between atoms: C_20  and  O_18 
ROOT
ATOM      1  C   UNL d   1      53.581  31.680  53.620  0.00  0.00     0.172 A 
ATOM      2  C   UNL d   1      52.903  32.046  53.336  0.00  0.00     0.094 A 
ATOM      3  C   UNL d   1      53.435  33.322  53.670  0.00  0.00     0.081 A 
ATOM      4  C   UNL d   1      52.291  31.583  53.023  0.00  0.00     0.286 A 
ATOM      5  N   UNL d   1      53.656  30.864  53.597  0.00  0.00    -0.172 NA
ATOM      6  N   UNL d   1      52.370  30.766  53.002  0.00  0.00    -0.152 NA
ATOM      7  C   UNL d   1      52.829  32.865  53.360  0.00  0.00     0.014 A 
ATOM      8  C   UNL d   1      54.122  32.960  53.959  0.00  0.00     0.088 A 
ATOM      9  N   UNL d   1      54.193  32.133  53.932  0.00  0.00    -0.226 NA
ATOM     10  C   UNL d   1      53.051  30.407  53.288  0.00  0.00     0.373 A 
ATOM     11  O   UNL d   1      51.603  31.945  52.734  0.00  0.00    -0.265 OA
ATOM     12  O   UNL d   1      53.131  29.585  53.266  0.00  0.00    -0.242 OA
ATOM     13  C   UNL d   1      54.732  33.415  54.270  0.00  0.00     0.021 C 
ENDROOT
BRANCH   3  14
ATOM     14  C   UNL d   1      53.369  34.141  53.698  0.00  0.00     0.302 C 
ATOM     15  O   UNL d   1      53.533  34.589  53.019  0.00  0.00    -0.259 OA
BRANCH  14  16
ATOM     16  O   UNL d   1      53.140  34.519  54.394  0.00  0.00    -0.271 OA
BRANCH  16  17
ATOM     17  C   UNL d   1      53.311  35.320  54.506  0.00  0.00     0.126 C 
BRANCH  17  18
ATOM     18  C   UNL d   1      52.933  35.742  55.109  0.00  0.00     0.027 C 
ATOM     19  C   UNL d   1      52.923  36.564  55.098  0.00  0.00     0.002 C 
ENDBRANCH  17  18
ENDBRANCH  16  17
ENDBRANCH  14  16
ENDBRANCH   3  14
BRANCH   7  20
ATOM     20  C   UNL d   1      52.145  33.226  53.073  0.00  0.00     0.001 A 
ATOM     21  C   UNL d   1      51.467  33.253  53.544  0.00  0.00     0.000 A 
ATOM     22  C   UNL d   1      50.777  33.615  53.258  0.00  0.00     0.000 A 
ATOM     23  C   UNL d   1      50.773  33.944  52.504  0.00  0.00     0.000 A 
ATOM     24  C   UNL d   1      51.451  33.917  52.033  0.00  0.00     0.000 A 
ATOM     25  C   UNL d   1      52.139  33.554  52.323  0.00  0.00     0.000 A 
ENDBRANCH   7  20
TORSDOF 5
ENDMDL
MODEL 5
REMARK VINA RESULT:      -8.7      1.521      3.722
REMARK  5 active torsions:
REMARK  status: ('A' for Active; 'I' for Inactive)
REMARK    1  A    between atoms: C_11  and  C_3 
REMARK    2  A    between atoms: C_14  and  C_7 
REMARK    3  A    between atoms: O_18  and  C_11 
REMARK    4  A    between atoms: C_16  and  C_20 
REMARK    5  A    between atoms: C_20  and  O_18 
ROOT
ATOM      1  C   UNL d   1      53.803  34.143  54.577  0.00  0.00     0.172 A 
ATOM      2  C   UNL d   1      53.620  33.389  54.308  0.00  0.00     0.094 A 
ATOM      3  C   UNL d   1      52.660  33.925  53.407  0.00  0.00     0.081 A 
ATOM      4  C   UNL d   1      54.016  32.735  54.631  0.00  0.00     0.286 A 
ATOM      5  N   UNL d   1      54.369  34.254  55.157  0.00  0.00    -0.172 NA
ATOM      6  N   UNL d   1      54.584  32.851  55.213  0.00  0.00    -0.152 NA
ATOM      7  C   UNL d   1      53.051  33.278  53.725  0.00  0.00     0.014 A 
ATOM      8  C   UNL d   1      52.838  34.690  53.672  0.00  0.00     0.088 A 
ATOM      9  N   UNL d   1      53.413  34.796  54.261  0.00  0.00    -0.226 NA
ATOM     10  C   UNL d   1      54.760  33.609  55.476  0.00  0.00     0.373 A 
ATOM     11  O   UNL d   1      53.838  31.970  54.366  0.00  0.00    -0.265 OA
ATOM     12  O   UNL d   1      55.331  33.726  56.062  0.00  0.00    -0.242 OA
ATOM     13  C   UNL d   1      52.448  35.340  53.355  0.00  0.00     0.021 C 
ENDROOT
BRANCH   3  14
ATOM     14  C   UNL d   1      52.090  33.823  52.823  0.00  0.00     0.302 C 
ATOM     15  O   UNL d   1      52.324  33.664  52.044  0.00  0.00    -0.259 OA
BRANCH  14  16
ATOM     16  O   UNL d   1      51.287  33.877  53.009  0.00  0.00    -0.271 OA
BRANCH  16  17
ATOM     17  C   UNL d   1      50.747  34.134  52.438  0.00  0.00     0.126 C 
BRANCH  17  18
ATOM     18  C   UNL d   1      49.940  34.156  52.615  0.00  0.00     0.027 C 
ATOM     19  C   UNL d   1      49.412  34.527  52.106  0.00  0.00     0.002 C 
ENDBRANCH  17  18
ENDBRANCH  16  17
ENDBRANCH  14  16
ENDBRANCH   3  14
BRANCH   7  20
ATOM     20  C   UNL d   1      52.874  32.517  53.461  0.00  0.00     0.001 A 
ATOM     21  C   UNL d   1      53.312  32.184  52.845  0.00  0.00     0.000 A 
ATOM     22  C   UNL d   1      53.137  31.419  52.576  0.00  0.00     0.000 A 
ATOM     23  C   UNL d   1      52.526  30.995  52.928  0.00  0.00     0.000 A 
ATOM     24  C   UNL d   1      52.088  31.327  53.544  0.00  0.00     0.000 A 
ATOM     25  C   UNL d   1      52.266  32.093  53.809  0.00  0.00     0.000 A 
ENDBRANCH   7  20
TORSDOF 5
ENDMDL
MODEL 6
REMARK VINA RESULT:      -7.0      1.367      2.856
REMARK  5 active torsions:
REMARK  status: ('A' for Active; 'I' for Inactive)
REMARK    1  A    between atoms: C_11  and  C_3 
REMARK    2  A    between atoms: C_14  and  C_7 
REMARK    3  A    between atoms: O_18  and  C_11 
REMARK    4  A    between atoms: C_16  and  C_20 
REMARK    5  A    between atoms: C_20  and  O_18 
ROOT
ATOM      1  C   UNL d   1      51.404  34.507  53.148  0.00  0.00     0.172 A 
ATOM      2  C   UNL d   1      51.572  33.705  53.109  0.00  0.00     0.094 A 
ATOM      3  C   UNL d   1      52.906  33.947  53.538  0.00  0.00     0.081 A 
ATOM      4  C   UNL d   1      50.979  33.176  52.871  0.00  0.00     0.286 A 
ATOM      5  N   UNL d   1      50.659  34.788  52.955  0.00  0.00    -0.172 NA
ATOM      6  N   UNL d   1      50.233  33.462  52.678  0.00  0.00    -0.152 NA
ATOM      7  C   UNL d   1      52.320  33.423  53.303  0.00  0.00     0.014 A 
ATOM      8  C   UNL d   1      52.745  34.759  53.581  0.00  0.00     0.088 A 
ATOM      9  N   UNL d   1      51.988  35.038  53.383  0.00  0.00    -0.226 NA
ATOM     10  C   UNL d   1      50.074  34.266  52.720  0.00  0.00     0.373 A 
ATOM     11  O   UNL d   1      51.140  32.364  52.829  0.00  0.00    -0.265 OA
ATOM     12  O   UNL d   1      49.324  34.554  52.526  0.00  0.00    -0.242 OA
ATOM     13  C   UNL d   1      53.329  35.286  53.816  0.00  0.00     0.021 C 
ENDROOT
BRANCH   3  14
ATOM     14  C   UNL d   1      53.656  33.674  53.734  0.00  0.00     0.302 C 
ATOM     15  O   UNL d   1      54.201  33.504  53.133  0.00  0.00    -0.259 OA
BRANCH  14  16
ATOM     16  O   UNL d   1      53.870  33.568  54.524  0.00  0.00    -0.271 OA
BRANCH  16  17
ATOM     17  C   UNL d   1      54.664  33.623  54.750  0.00  0.00     0.126 C 
BRANCH  17  18
ATOM     18  C   UNL d   1      54.885  33.443  55.525  0.00  0.00     0.027 C 
ATOM     19  C   UNL d   1      55.510  33.840  55.882  0.00  0.00     0.002 C 
ENDBRANCH  17  18
ENDBRANCH  16  17
ENDBRANCH  14  16
ENDBRANCH   3  14
BRANCH   7  20
ATOM     20  C   UNL d   1      52.480  32.615  53.261  0.00  0.00     0.001 A 
ATOM     21  C   UNL d   1      52.794  32.295  52.568  0.00  0.00     0.000 A 
ATOM     22  C   UNL d   1      52.956  31.482  52.522  0.00  0.00     0.000 A 
ATOM     23  C   UNL d   1      52.803  30.999  53.170  0.00  0.00     0.000 A 
ATOM     24  C   UNL d   1      52.490  31.320  53.864  0.00  0.00     0.000 A 
ATOM     25  C   UNL d   1      52.329  32.133  53.906  0.00  0.00     0.000 A 
ENDBRANCH   7  20
TORSDOF 5
ENDMDL
