MODEL 1
REMARK VINA RESULT:      52.3      0.000      0.000
REMARK  6 active torsions:
REMARK  status: ('A' for Active; 'I' for Inactive)
REMARK    1  A    between atoms: C_2  and  C_1 
REMARK       I    between atoms: N_6  and  C_1 
REMARK    2  A    between atoms: O_15  and  C_3 
REMARK    3  A    between atoms: O_17  and  C_4 
REMARK    4  A    between atoms: O_16  and  C_5 
REMARK    5  A    between atoms: C_12  and  N_6 
REMARK    6  A    between atoms: N_11  and  C_9 
ROOT
ATOM      1  C   UNL d   1     -50.582  25.180  33.461  0.00  0.00     0.074 A 
ATOM      2  C   UNL d   1     -52.189  24.837  33.358  0.00  0.00     0.138 A 
ATOM      3  C   UNL d   1     -51.934  25.614  33.360  0.00  0.00     0.118 A 
ATOM      4  C   UNL d   1     -51.635  24.234  33.408  0.00  0.00     0.118 A 
ATOM      5  C   UNL d   1     -51.138  25.798  33.411  0.00  0.00     0.032 A 
ATOM      6  C   UNL d   1     -50.826  24.391  33.460  0.00  0.00     0.032 A 
ENDROOT
BRANCH   1   7
ATOM      7  C   UNL d   1     -49.776  25.352  33.513  0.00  0.00     0.328 C 
ATOM      8  N   UNL d   1     -49.538  26.092  33.770  0.00  0.00    -0.365 NA
ATOM      9  O   UNL d   1     -49.217  24.781  33.306  0.00  0.00    -0.251 OA
BRANCH   8  10
ATOM     10  C   UNL d   1     -49.290  26.833  34.028  0.00  0.00     0.135 A 
ATOM     11  C   UNL d   1     -48.684  26.905  34.591  0.00  0.00     0.034 A 
ATOM     12  C   UNL d   1     -48.436  27.646  34.849  0.00  0.00     0.020 A 
ATOM     13  C   UNL d   1     -48.790  28.320  34.549  0.00  0.00     0.064 A 
ATOM     14  C   UNL d   1     -49.393  28.257  33.989  0.00  0.00     0.020 A 
ATOM     15  C   UNL d   1     -49.644  27.507  33.728  0.00  0.00     0.034 A 
BRANCH  13  16
ATOM     16  N   UNL d   1     -48.542  29.067  34.807  0.00  0.00    -0.301 N 
ATOM     17  C   UNL d   1     -48.820  29.746  34.424  0.00  0.00     0.100 C 
ATOM     18  C   UNL d   1     -48.014  29.132  35.451  0.00  0.00     0.100 C 
ENDBRANCH  13  16
ENDBRANCH   8  10
ENDBRANCH   1   7
BRANCH   3  19
ATOM     19  O   UNL d   1     -52.488  26.226  33.309  0.00  0.00    -0.326 OA
ATOM     20  C   UNL d   1     -52.234  27.023  33.374  0.00  0.00     0.181 C 
ENDBRANCH   3  19
BRANCH   4  21
ATOM     21  O   UNL d   1     -51.895  23.440  33.406  0.00  0.00    -0.326 OA
ATOM     22  C   UNL d   1     -52.538  23.214  33.884  0.00  0.00     0.181 C 
ENDBRANCH   4  21
BRANCH   2  23
ATOM     23  O   UNL d   1     -52.993  24.664  33.306  0.00  0.00    -0.324 OA
ATOM     24  C   UNL d   1     -53.304  23.996  33.672  0.00  0.00     0.182 C 
ENDBRANCH   2  23
TORSDOF 6
ENDMDL
MODEL 2
REMARK VINA RESULT:      52.8      0.710      1.815
REMARK  6 active torsions:
REMARK  status: ('A' for Active; 'I' for Inactive)
REMARK    1  A    between atoms: C_2  and  C_1 
REMARK       I    between atoms: N_6  and  C_1 
REMARK    2  A    between atoms: O_15  and  C_3 
REMARK    3  A    between atoms: O_17  and  C_4 
REMARK    4  A    between atoms: O_16  and  C_5 
REMARK    5  A    between atoms: C_12  and  N_6 
REMARK    6  A    between atoms: N_11  and  C_9 
ROOT
ATOM      1  C   UNL d   1     -50.097  25.739  33.503  0.00  0.00     0.074 A 
ATOM      2  C   UNL d   1     -51.707  25.423  33.372  0.00  0.00     0.138 A 
ATOM      3  C   UNL d   1     -51.172  24.808  33.432  0.00  0.00     0.118 A 
ATOM      4  C   UNL d   1     -51.433  26.195  33.377  0.00  0.00     0.118 A 
ATOM      5  C   UNL d   1     -50.369  24.952  33.498  0.00  0.00     0.032 A 
ATOM      6  C   UNL d   1     -50.628  26.369  33.443  0.00  0.00     0.032 A 
ENDROOT
BRANCH   1   7
ATOM      7  C   UNL d   1     -49.290  25.898  33.570  0.00  0.00     0.328 C 
ATOM      8  N   UNL d   1     -49.044  26.606  33.898  0.00  0.00    -0.365 NA
ATOM      9  O   UNL d   1     -48.736  25.345  33.306  0.00  0.00    -0.251 OA
BRANCH   8  10
ATOM     10  C   UNL d   1     -48.789  27.315  34.227  0.00  0.00     0.135 A 
ATOM     11  C   UNL d   1     -49.227  28.012  34.122  0.00  0.00     0.034 A 
ATOM     12  C   UNL d   1     -48.971  28.722  34.451  0.00  0.00     0.020 A 
ATOM     13  C   UNL d   1     -48.279  28.743  34.886  0.00  0.00     0.064 A 
ATOM     14  C   UNL d   1     -47.837  28.054  34.995  0.00  0.00     0.020 A 
ATOM     15  C   UNL d   1     -48.096  27.336  34.662  0.00  0.00     0.034 A 
BRANCH  13  16
ATOM     16  N   UNL d   1     -48.020  29.456  35.218  0.00  0.00    -0.301 N 
ATOM     17  C   UNL d   1     -48.481  30.138  35.136  0.00  0.00     0.100 C 
ATOM     18  C   UNL d   1     -47.296  29.484  35.634  0.00  0.00     0.100 C 
ENDBRANCH  13  16
ENDBRANCH   8  10
ENDBRANCH   1   7
BRANCH   3  19
ATOM     19  O   UNL d   1     -51.444  24.027  33.427  0.00  0.00    -0.326 OA
ATOM     20  C   UNL d   1     -50.892  23.396  33.402  0.00  0.00     0.181 C 
ENDBRANCH   3  19
BRANCH   4  21
ATOM     21  O   UNL d   1     -51.980  26.824  33.315  0.00  0.00    -0.326 OA
ATOM     22  C   UNL d   1     -51.848  27.530  33.736  0.00  0.00     0.181 C 
ENDBRANCH   4  21
BRANCH   2  23
ATOM     23  O   UNL d   1     -52.514  25.265  33.306  0.00  0.00    -0.324 OA
ATOM     24  C   UNL d   1     -52.854  24.635  33.713  0.00  0.00     0.182 C 
ENDBRANCH   2  23
TORSDOF 6
ENDMDL
MODEL 3
REMARK VINA RESULT:      54.3      0.986      1.879
REMARK  6 active torsions:
REMARK  status: ('A' for Active; 'I' for Inactive)
REMARK    1  A    between atoms: C_2  and  C_1 
REMARK       I    between atoms: N_6  and  C_1 
REMARK    2  A    between atoms: O_15  and  C_3 
REMARK    3  A    between atoms: O_17  and  C_4 
REMARK    4  A    between atoms: O_16  and  C_5 
REMARK    5  A    between atoms: C_12  and  N_6 
REMARK    6  A    between atoms: N_11  and  C_9 
ROOT
ATOM      1  C   UNL d   1     -50.878  26.416  33.533  0.00  0.00     0.074 A 
ATOM      2  C   UNL d   1     -50.876  24.777  33.383  0.00  0.00     0.138 A 
ATOM      3  C   UNL d   1     -51.584  25.185  33.420  0.00  0.00     0.118 A 
ATOM      4  C   UNL d   1     -50.171  25.193  33.422  0.00  0.00     0.118 A 
ATOM      5  C   UNL d   1     -51.598  26.001  33.495  0.00  0.00     0.032 A 
ATOM      6  C   UNL d   1     -50.157  26.016  33.497  0.00  0.00     0.032 A 
ENDROOT
BRANCH   1   7
ATOM      7  C   UNL d   1     -50.879  27.238  33.608  0.00  0.00     0.328 C 
ATOM      8  N   UNL d   1     -50.253  27.609  33.983  0.00  0.00    -0.365 NA
ATOM      9  O   UNL d   1     -51.507  27.681  33.307  0.00  0.00    -0.251 OA
BRANCH   8  10
ATOM     10  C   UNL d   1     -49.627  27.990  34.359  0.00  0.00     0.135 A 
ATOM     11  C   UNL d   1     -49.516  27.914  35.177  0.00  0.00     0.034 A 
ATOM     12  C   UNL d   1     -48.891  28.294  35.553  0.00  0.00     0.020 A 
ATOM     13  C   UNL d   1     -48.372  28.752  35.116  0.00  0.00     0.064 A 
ATOM     14  C   UNL d   1     -48.476  28.833  34.302  0.00  0.00     0.020 A 
ATOM     15  C   UNL d   1     -49.109  28.448  33.922  0.00  0.00     0.034 A 
BRANCH  13  16
ATOM     16  N   UNL d   1     -47.741  29.136  35.493  0.00  0.00    -0.301 N 
ATOM     17  C   UNL d   1     -47.483  28.872  36.233  0.00  0.00     0.100 C 
ATOM     18  C   UNL d   1     -47.370  29.787  35.124  0.00  0.00     0.100 C 
ENDBRANCH  13  16
ENDBRANCH   8  10
ENDBRANCH   1   7
BRANCH   3  19
ATOM     19  O   UNL d   1     -52.298  24.770  33.382  0.00  0.00    -0.326 OA
ATOM     20  C   UNL d   1     -52.958  25.038  33.824  0.00  0.00     0.181 C 
ENDBRANCH   3  19
BRANCH   4  21
ATOM     21  O   UNL d   1     -49.448  24.777  33.384  0.00  0.00    -0.326 OA
ATOM     22  C   UNL d   1     -49.272  24.200  33.958  0.00  0.00     0.181 C 
ENDBRANCH   4  21
BRANCH   2  23
ATOM     23  O   UNL d   1     -50.875  23.956  33.308  0.00  0.00    -0.324 OA
ATOM     24  C   UNL d   1     -50.848  23.473  33.974  0.00  0.00     0.182 C 
ENDBRANCH   2  23
TORSDOF 6
ENDMDL
