MODEL 1
REMARK VINA RESULT:       0.2      0.000      0.000
REMARK  2 active torsions:
REMARK  status: ('A' for Active; 'I' for Inactive)
REMARK    1  A    between atoms: C_6  and  C_1 
REMARK    2  A    between atoms: C_9  and  C_2 
ROOT
ATOM      1  C   UNL d   1      31.735  17.331 -24.608  0.00  0.00     0.039 A 
ATOM      2  C   UNL d   1      31.003  16.961 -24.607  0.00  0.00     0.120 A 
ATOM      3  N   UNL d   1      31.118  16.152 -24.736  0.00  0.00    -0.164 NA
ATOM      4  N   UNL d   1      31.924  16.031 -24.815  0.00  0.00    -0.228 N 
ATOM      5  C   UNL d   1      32.308  16.758 -24.737  0.00  0.00     0.085 A 
ATOM      6  C   UNL d   1      32.503  15.453 -24.945  0.00  0.00     0.101 A 
ATOM      7  C   UNL d   1      33.125  16.626 -24.819  0.00  0.00     0.021 A 
ATOM      8  C   UNL d   1      33.241  15.822 -24.947  0.00  0.00     0.022 A 
ENDROOT
BRANCH   1   9
ATOM      9  C   UNL d   1      31.876  18.135 -24.500  0.00  0.00     0.006 A 
ATOM     10  C   UNL d   1      32.214  18.405 -23.808  0.00  0.00     0.018 A 
ATOM     11  C   UNL d   1      32.355  19.209 -23.699  0.00  0.00     0.085 A 
ATOM     12  C   UNL d   1      32.417  17.867 -23.211  0.00  0.00     0.005 A 
ATOM     13  C   UNL d   1      32.700  19.484 -22.993  0.00  0.00     0.061 A 
ATOM     14  N   UNL d   1      32.153  19.747 -24.293  0.00  0.00    -0.244 NA
ATOM     15  C   UNL d   1      32.899  18.939 -22.404  0.00  0.00     0.197 A 
ATOM     16  C   UNL d   1      32.759  18.142 -22.511  0.00  0.00     0.042 A 
ATOM     17  O   UNL d   1      33.241  19.215 -21.705  0.00  0.00    -0.286 OA
ATOM     18  C   UNL d   1      31.812  19.479 -24.991  0.00  0.00     0.099 A 
ATOM     19  C   UNL d   1      31.672  18.669 -25.097  0.00  0.00     0.021 A 
ENDBRANCH   1   9
BRANCH   2  20
ATOM     20  C   UNL d   1      30.273  17.329 -24.497  0.00  0.00     0.101 A 
ATOM     21  N   UNL d   1      29.965  17.818 -25.081  0.00  0.00    -0.242 NA
ATOM     22  C   UNL d   1      29.245  18.184 -24.977  0.00  0.00     0.099 A 
ATOM     23  C   UNL d   1      28.816  18.062 -24.275  0.00  0.00     0.021 A 
ATOM     24  C   UNL d   1      29.125  17.569 -23.686  0.00  0.00     0.003 A 
ATOM     25  C   UNL d   1      29.854  17.206 -23.805  0.00  0.00     0.021 A 
ENDBRANCH   2  20
TORSDOF 2
ENDMDL
MODEL 2
REMARK VINA RESULT:       0.4      0.983      2.554
REMARK  2 active torsions:
REMARK  status: ('A' for Active; 'I' for Inactive)
REMARK    1  A    between atoms: C_6  and  C_1 
REMARK    2  A    between atoms: C_9  and  C_2 
ROOT
ATOM      1  C   UNL d   1      31.263  17.592 -24.344  0.00  0.00     0.039 A 
ATOM      2  C   UNL d   1      31.262  16.801 -24.129  0.00  0.00     0.120 A 
ATOM      3  N   UNL d   1      30.484  16.521 -24.164  0.00  0.00    -0.164 NA
ATOM      4  N   UNL d   1      30.012  17.147 -24.401  0.00  0.00    -0.228 N 
ATOM      5  C   UNL d   1      30.491  17.810 -24.513  0.00  0.00     0.085 A 
ATOM      6  C   UNL d   1      29.231  17.368 -24.572  0.00  0.00     0.101 A 
ATOM      7  C   UNL d   1      30.004  18.440 -24.753  0.00  0.00     0.021 A 
ATOM      8  C   UNL d   1      29.230  18.164 -24.788  0.00  0.00     0.022 A 
ENDROOT
BRANCH   1   9
ATOM      9  C   UNL d   1      31.922  18.086 -24.385  0.00  0.00     0.006 A 
ATOM     10  C   UNL d   1      32.093  18.596 -23.771  0.00  0.00     0.018 A 
ATOM     11  C   UNL d   1      32.751  19.089 -23.812  0.00  0.00     0.085 A 
ATOM     12  C   UNL d   1      31.603  18.617 -23.103  0.00  0.00     0.005 A 
ATOM     13  C   UNL d   1      32.926  19.609 -23.185  0.00  0.00     0.061 A 
ATOM     14  N   UNL d   1      33.241  19.069 -24.477  0.00  0.00    -0.244 NA
ATOM     15  C   UNL d   1      32.431  19.623 -22.523  0.00  0.00     0.197 A 
ATOM     16  C   UNL d   1      31.779  19.134 -22.483  0.00  0.00     0.042 A 
ATOM     17  O   UNL d   1      32.607  20.139 -21.904  0.00  0.00    -0.286 OA
ATOM     18  C   UNL d   1      33.071  18.558 -25.097  0.00  0.00     0.099 A 
ATOM     19  C   UNL d   1      32.408  18.063 -25.052  0.00  0.00     0.021 A 
ENDBRANCH   1   9
BRANCH   2  20
ATOM     20  C   UNL d   1      31.921  16.355 -23.914  0.00  0.00     0.101 A 
ATOM     21  N   UNL d   1      32.087  16.219 -23.121  0.00  0.00    -0.242 NA
ATOM     22  C   UNL d   1      32.737  15.779 -22.903  0.00  0.00     0.099 A 
ATOM     23  C   UNL d   1      33.239  15.464 -23.487  0.00  0.00     0.021 A 
ATOM     24  C   UNL d   1      33.073  15.600 -24.287  0.00  0.00     0.003 A 
ATOM     25  C   UNL d   1      32.412  16.047 -24.492  0.00  0.00     0.021 A 
ENDBRANCH   2  20
TORSDOF 2
ENDMDL
MODEL 3
REMARK VINA RESULT:       2.0      1.736      3.681
REMARK  2 active torsions:
REMARK  status: ('A' for Active; 'I' for Inactive)
REMARK    1  A    between atoms: C_6  and  C_1 
REMARK    2  A    between atoms: C_9  and  C_2 
ROOT
ATOM      1  C   UNL d   1      31.728  17.412 -24.237  0.00  0.00     0.039 A 
ATOM      2  C   UNL d   1      32.330  17.410 -23.679  0.00  0.00     0.120 A 
ATOM      3  N   UNL d   1      32.658  18.169 -23.645  0.00  0.00    -0.164 NA
ATOM      4  N   UNL d   1      32.252  18.633 -24.185  0.00  0.00    -0.228 N 
ATOM      5  C   UNL d   1      31.676  18.168 -24.551  0.00  0.00     0.085 A 
ATOM      6  C   UNL d   1      32.199  19.397 -24.503  0.00  0.00     0.101 A 
ATOM      7  C   UNL d   1      31.269  18.646 -25.097  0.00  0.00     0.021 A 
ATOM      8  C   UNL d   1      31.594  19.401 -25.064  0.00  0.00     0.022 A 
ENDROOT
BRANCH   1   9
ATOM      9  C   UNL d   1      31.255  16.771 -24.447  0.00  0.00     0.006 A 
ATOM     10  C   UNL d   1      30.469  16.750 -24.229  0.00  0.00     0.018 A 
ATOM     11  C   UNL d   1      29.996  16.108 -24.439  0.00  0.00     0.085 A 
ATOM     12  C   UNL d   1      30.145  17.376 -23.794  0.00  0.00     0.005 A 
ATOM     13  C   UNL d   1      29.194  16.087 -24.216  0.00  0.00     0.061 A 
ATOM     14  N   UNL d   1      30.319  15.483 -24.872  0.00  0.00    -0.244 NA
ATOM     15  C   UNL d   1      28.880  16.717 -23.783  0.00  0.00     0.197 A 
ATOM     16  C   UNL d   1      29.348  17.352 -23.575  0.00  0.00     0.042 A 
ATOM     17  O   UNL d   1      28.084  16.693 -23.564  0.00  0.00    -0.286 OA
ATOM     18  C   UNL d   1      31.110  15.501 -25.093  0.00  0.00     0.099 A 
ATOM     19  C   UNL d   1      31.582  16.148 -24.880  0.00  0.00     0.021 A 
ENDBRANCH   1   9
BRANCH   2  20
ATOM     20  C   UNL d   1      32.572  16.764 -23.228  0.00  0.00     0.101 A 
ATOM     21  N   UNL d   1      32.388  16.729 -22.427  0.00  0.00    -0.242 NA
ATOM     22  C   UNL d   1      32.624  16.093 -21.977  0.00  0.00     0.099 A 
ATOM     23  C   UNL d   1      33.055  15.474 -22.327  0.00  0.00     0.021 A 
ATOM     24  C   UNL d   1      33.241  15.509 -23.133  0.00  0.00     0.003 A 
ATOM     25  C   UNL d   1      32.995  16.158 -23.577  0.00  0.00     0.021 A 
ENDBRANCH   2  20
TORSDOF 2
ENDMDL
