MODEL 1
REMARK VINA RESULT:     124.7      0.000      0.000
REMARK  4 active torsions:
REMARK  status: ('A' for Active; 'I' for Inactive)
REMARK    1  A    between atoms: N_10  and  C_5 
REMARK    2  A    between atoms: C_12  and  N_6 
REMARK    3  A    between atoms: C_19  and  N_11 
REMARK    4  A    between atoms: C_20  and  C_12 
ROOT
ATOM      1  C   UNL d   1     -49.966  25.228  33.813  0.00  0.00     0.191 A 
ATOM      2  C   UNL d   1     -50.666  25.603  34.062  0.00  0.00     0.173 A 
ATOM      3  N   UNL d   1     -49.361  25.788  33.875  0.00  0.00    -0.042 NA
ATOM      4  N   UNL d   1     -49.986  24.414  33.560  0.00  0.00    -0.240 N 
ATOM      5  C   UNL d   1     -49.689  26.522  34.168  0.00  0.00     0.722 A 
ATOM      6  N   UNL d   1     -50.484  26.364  34.268  0.00  0.00    -0.133 N 
ATOM      7  N   UNL d   1     -51.361  24.383  33.809  0.00  0.00    -0.223 N 
ATOM      8  C   UNL d   1     -50.662  23.987  33.553  0.00  0.00     0.343 A 
ATOM      9  C   UNL d   1     -51.358  25.164  34.055  0.00  0.00     0.288 A 
ATOM     10  O   UNL d   1     -50.681  23.190  33.306  0.00  0.00    -0.245 OA
ATOM     11  O   UNL d   1     -52.064  25.523  34.300  0.00  0.00    -0.265 OA
ATOM     12  C   UNL d   1     -49.297  24.055  33.318  0.00  0.00     0.105 C 
ATOM     13  C   UNL d   1     -52.101  23.976  33.820  0.00  0.00     0.107 C 
ENDROOT
BRANCH   5  14
ATOM     14  N   UNL d   1     -49.310  27.260  34.329  0.00  0.00    -0.136 N 
ATOM     15  C   UNL d   1     -48.798  27.319  34.989  0.00  0.00     0.117 A 
ATOM     16  C   UNL d   1     -48.421  28.052  35.150  0.00  0.00     0.100 A 
ATOM     17  N   UNL d   1     -48.559  28.719  34.654  0.00  0.00    -0.301 N 
ATOM     18  C   UNL d   1     -49.076  28.643  33.997  0.00  0.00     0.100 A 
ATOM     19  C   UNL d   1     -49.454  27.917  33.830  0.00  0.00     0.117 A 
BRANCH  17  20
ATOM     20  C   UNL d   1     -48.152  29.408  34.876  0.00  0.00     0.064 A 
ATOM     21  C   UNL d   1     -47.486  29.359  35.369  0.00  0.00     0.018 A 
ATOM     22  C   UNL d   1     -47.089  30.049  35.585  0.00  0.00     0.002 A 
ATOM     23  C   UNL d   1     -47.352  30.787  35.311  0.00  0.00     0.000 A 
ATOM     24  C   UNL d   1     -48.021  30.837  34.816  0.00  0.00     0.002 A 
ATOM     25  C   UNL d   1     -48.420  30.148  34.600  0.00  0.00     0.018 A 
ENDBRANCH  17  20
ENDBRANCH   5  14
BRANCH   6  26
ATOM     26  C   UNL d   1     -51.156  26.739  34.512  0.00  0.00     0.098 C 
BRANCH  26  27
ATOM     27  C   UNL d   1     -51.363  26.721  35.287  0.00  0.00     0.018 A 
ATOM     28  C   UNL d   1     -50.807  26.793  35.840  0.00  0.00     0.002 A 
ATOM     29  C   UNL d   1     -51.008  26.776  36.616  0.00  0.00     0.000 A 
ATOM     30  C   UNL d   1     -50.600  26.832  37.314  0.00  0.00     0.000 C 
ATOM     31  C   UNL d   1     -51.776  26.685  36.835  0.00  0.00     0.000 A 
ATOM     32  C   UNL d   1     -52.342  26.611  36.256  0.00  0.00     0.000 A 
ATOM     33  C   UNL d   1     -52.138  26.629  35.493  0.00  0.00     0.002 A 
ENDBRANCH  26  27
ENDBRANCH   6  26
TORSDOF 4
ENDMDL
MODEL 2
REMARK VINA RESULT:     125.6      1.735      3.342
REMARK  4 active torsions:
REMARK  status: ('A' for Active; 'I' for Inactive)
REMARK    1  A    between atoms: N_10  and  C_5 
REMARK    2  A    between atoms: C_12  and  N_6 
REMARK    3  A    between atoms: C_19  and  N_11 
REMARK    4  A    between atoms: C_20  and  C_12 
ROOT
ATOM      1  C   UNL d   1     -50.594  27.955  33.619  0.00  0.00     0.191 A 
ATOM      2  C   UNL d   1     -49.821  27.737  33.837  0.00  0.00     0.173 A 
ATOM      3  N   UNL d   1     -50.597  28.779  33.547  0.00  0.00    -0.042 NA
ATOM      4  N   UNL d   1     -51.192  27.357  33.518  0.00  0.00    -0.240 N 
ATOM      5  C   UNL d   1     -49.814  29.078  33.721  0.00  0.00     0.722 A 
ATOM      6  N   UNL d   1     -49.375  28.410  33.892  0.00  0.00    -0.133 N 
ATOM      7  N   UNL d   1     -50.252  26.377  33.845  0.00  0.00    -0.223 N 
ATOM      8  C   UNL d   1     -51.040  26.580  33.625  0.00  0.00     0.343 A 
ATOM      9  C   UNL d   1     -49.666  26.940  33.946  0.00  0.00     0.288 A 
ATOM     10  O   UNL d   1     -51.627  25.994  33.526  0.00  0.00    -0.245 OA
ATOM     11  O   UNL d   1     -48.900  26.705  34.163  0.00  0.00    -0.265 OA
ATOM     12  C   UNL d   1     -51.946  27.580  33.306  0.00  0.00     0.105 C 
ATOM     13  C   UNL d   1     -50.039  25.569  33.970  0.00  0.00     0.107 C 
ENDROOT
BRANCH   5  14
ATOM     14  N   UNL d   1     -49.523  29.871  33.727  0.00  0.00    -0.136 N 
ATOM     15  C   UNL d   1     -48.764  30.029  33.409  0.00  0.00     0.117 A 
ATOM     16  C   UNL d   1     -48.474  30.816  33.414  0.00  0.00     0.100 A 
ATOM     17  N   UNL d   1     -48.942  31.440  33.734  0.00  0.00    -0.301 N 
ATOM     18  C   UNL d   1     -49.701  31.265  34.048  0.00  0.00     0.100 A 
ATOM     19  C   UNL d   1     -49.996  30.484  34.047  0.00  0.00     0.117 A 
BRANCH  17  20
ATOM     20  C   UNL d   1     -48.589  32.191  33.704  0.00  0.00     0.064 A 
ATOM     21  C   UNL d   1     -49.046  32.872  33.836  0.00  0.00     0.018 A 
ATOM     22  C   UNL d   1     -48.687  33.614  33.804  0.00  0.00     0.002 A 
ATOM     23  C   UNL d   1     -47.875  33.680  33.640  0.00  0.00     0.000 A 
ATOM     24  C   UNL d   1     -47.416  32.996  33.508  0.00  0.00     0.002 A 
ATOM     25  C   UNL d   1     -47.775  32.253  33.539  0.00  0.00     0.018 A 
ENDBRANCH  17  20
ENDBRANCH   5  14
BRANCH   6  26
ATOM     26  C   UNL d   1     -48.622  28.211  34.103  0.00  0.00     0.098 C 
BRANCH  26  27
ATOM     27  C   UNL d   1     -48.320  28.473  34.798  0.00  0.00     0.018 A 
ATOM     28  C   UNL d   1     -47.632  28.855  34.804  0.00  0.00     0.002 A 
ATOM     29  C   UNL d   1     -47.325  29.120  35.497  0.00  0.00     0.000 A 
ATOM     30  C   UNL d   1     -46.653  29.521  35.709  0.00  0.00     0.000 C 
ATOM     31  C   UNL d   1     -47.717  28.998  36.188  0.00  0.00     0.000 A 
ATOM     32  C   UNL d   1     -48.427  28.602  36.170  0.00  0.00     0.000 A 
ATOM     33  C   UNL d   1     -48.724  28.344  35.485  0.00  0.00     0.002 A 
ENDBRANCH  26  27
ENDBRANCH   6  26
TORSDOF 4
ENDMDL
