MODEL 1
REMARK VINA RESULT:      -8.3      0.000      0.000
REMARK  4 active torsions:
REMARK  status: ('A' for Active; 'I' for Inactive)
REMARK    1  A    between atoms: N_2  and  S_1 
REMARK    2  A    between atoms: C_8  and  S_1 
REMARK       I    between atoms: C_3  and  N_2 
REMARK    3  A    between atoms: C_11  and  N_2 
REMARK       I    between atoms: N_4  and  C_3 
REMARK       I    between atoms: C_5  and  N_4 
REMARK       I    between atoms: N_9  and  C_5 
REMARK    4  A    between atoms: C_13  and  N_9 
ROOT
ATOM      1  N   UNL d   1     -46.864  13.152  22.593  0.00  0.00    -0.182 N 
ATOM      2  C   UNL d   1     -47.041  13.949  22.586  0.00  0.00     0.367 C 
ATOM      3  N   UNL d   1     -47.831  14.179  22.674  0.00  0.00    -0.135 NA
ATOM      4  C   UNL d   1     -48.042  14.977  22.671  0.00  0.00     0.373 C 
ATOM      5  N   UNL d   1     -48.829  15.206  22.759  0.00  0.00    -0.191 NA
ATOM      6  O   UNL d   1     -46.464  14.518  22.495  0.00  0.00    -0.243 OA
ATOM      7  O   UNL d   1     -47.421  15.551  22.574  0.00  0.00    -0.242 OA
ENDROOT
BRANCH   1   8
ATOM      8  S   UNL d   1     -46.067  12.898  22.505  0.00  0.00     0.275 S 
ATOM      9  O   UNL d   1     -45.987  12.881  23.321  0.00  0.00    -0.199 OA
ATOM     10  O   UNL d   1     -46.171  12.923  21.692  0.00  0.00    -0.199 OA
BRANCH   8  11
ATOM     11  C   UNL d   1     -45.292  12.651  22.402  0.00  0.00     0.104 A 
ATOM     12  C   UNL d   1     -44.977  12.053  22.869  0.00  0.00     0.013 A 
ATOM     13  C   UNL d   1     -44.190  11.799  22.767  0.00  0.00     0.001 A 
ATOM     14  C   UNL d   1     -43.718  12.144  22.200  0.00  0.00     0.000 A 
ATOM     15  C   UNL d   1     -44.031  12.752  21.724  0.00  0.00     0.001 A 
ATOM     16  C   UNL d   1     -44.818  13.005  21.825  0.00  0.00     0.013 A 
ENDBRANCH   8  11
ENDBRANCH   1   8
BRANCH   1  17
ATOM     17  C   UNL d   1     -47.471  12.614  22.687  0.00  0.00     0.079 A 
ATOM     18  C   UNL d   1     -47.871  12.334  22.039  0.00  0.00     0.018 A 
ATOM     19  C   UNL d   1     -48.488  11.788  22.131  0.00  0.00     0.002 A 
ATOM     20  C   UNL d   1     -48.699  11.526  22.885  0.00  0.00     0.000 A 
ATOM     21  C   UNL d   1     -48.290  11.814  23.538  0.00  0.00     0.002 A 
ATOM     22  C   UNL d   1     -47.681  12.354  23.437  0.00  0.00     0.018 A 
ENDBRANCH   1  17
BRANCH   5  23
ATOM     23  C   UNL d   1     -49.415  14.631  22.852  0.00  0.00     0.086 A 
ATOM     24  C   UNL d   1     -49.628  14.351  23.612  0.00  0.00     0.019 A 
ATOM     25  C   UNL d   1     -50.207  13.783  23.698  0.00  0.00     0.002 A 
ATOM     26  C   UNL d   1     -50.594  13.476  23.027  0.00  0.00     0.000 A 
ATOM     27  C   UNL d   1     -50.390  13.749  22.259  0.00  0.00     0.002 A 
ATOM     28  C   UNL d   1     -51.064  13.014  23.101  0.00  0.00     0.000 C 
ATOM     29  C   UNL d   1     -49.796  14.328  22.192  0.00  0.00     0.019 A 
ENDBRANCH   5  23
TORSDOF 4
ENDMDL
MODEL 2
REMARK VINA RESULT:      -7.0      1.485      2.325
REMARK  4 active torsions:
REMARK  status: ('A' for Active; 'I' for Inactive)
REMARK    1  A    between atoms: N_2  and  S_1 
REMARK    2  A    between atoms: C_8  and  S_1 
REMARK       I    between atoms: C_3  and  N_2 
REMARK    3  A    between atoms: C_11  and  N_2 
REMARK       I    between atoms: N_4  and  C_3 
REMARK       I    between atoms: C_5  and  N_4 
REMARK       I    between atoms: N_9  and  C_5 
REMARK    4  A    between atoms: C_13  and  N_9 
ROOT
ATOM      1  N   UNL d   1     -46.958  12.108  23.113  0.00  0.00    -0.182 N 
ATOM      2  C   UNL d   1     -47.659  11.736  23.308  0.00  0.00     0.367 C 
ATOM      3  N   UNL d   1     -48.364  12.166  23.249  0.00  0.00    -0.135 NA
ATOM      4  C   UNL d   1     -49.088  11.819  23.438  0.00  0.00     0.373 C 
ATOM      5  N   UNL d   1     -49.790  12.247  23.380  0.00  0.00    -0.191 NA
ATOM      6  O   UNL d   1     -47.681  10.960  23.556  0.00  0.00    -0.243 OA
ATOM      7  O   UNL d   1     -49.084  11.007  23.695  0.00  0.00    -0.242 OA
ENDROOT
BRANCH   1   8
ATOM      8  S   UNL d   1     -46.232  11.688  23.167  0.00  0.00     0.275 S 
ATOM      9  O   UNL d   1     -46.518  11.134  22.634  0.00  0.00    -0.199 OA
ATOM     10  O   UNL d   1     -45.967  12.254  23.698  0.00  0.00    -0.199 OA
BRANCH   8  11
ATOM     11  C   UNL d   1     -45.518  11.290  23.230  0.00  0.00     0.104 A 
ATOM     12  C   UNL d   1     -45.470  10.574  23.630  0.00  0.00     0.013 A 
ATOM     13  C   UNL d   1     -44.747  10.167  23.696  0.00  0.00     0.001 A 
ATOM     14  C   UNL d   1     -44.071  10.475  23.361  0.00  0.00     0.000 A 
ATOM     15  C   UNL d   1     -44.112  11.200  22.954  0.00  0.00     0.001 A 
ATOM     16  C   UNL d   1     -44.835  11.608  22.888  0.00  0.00     0.013 A 
ENDBRANCH   8  11
ENDBRANCH   1   8
BRANCH   1  17
ATOM     17  C   UNL d   1     -46.980  12.886  22.869  0.00  0.00     0.079 A 
ATOM     18  C   UNL d   1     -46.911  13.486  23.413  0.00  0.00     0.018 A 
ATOM     19  C   UNL d   1     -46.933  14.278  23.167  0.00  0.00     0.002 A 
ATOM     20  C   UNL d   1     -47.024  14.460  22.368  0.00  0.00     0.000 A 
ATOM     21  C   UNL d   1     -47.093  13.849  21.823  0.00  0.00     0.002 A 
ATOM     22  C   UNL d   1     -47.071  13.068  22.074  0.00  0.00     0.018 A 
ENDBRANCH   1  17
BRANCH   5  23
ATOM     23  C   UNL d   1     -49.770  13.034  23.128  0.00  0.00     0.086 A 
ATOM     24  C   UNL d   1     -49.686  13.660  23.678  0.00  0.00     0.019 A 
ATOM     25  C   UNL d   1     -49.667  14.435  23.424  0.00  0.00     0.002 A 
ATOM     26  C   UNL d   1     -49.731  14.611  22.612  0.00  0.00     0.000 A 
ATOM     27  C   UNL d   1     -49.816  13.991  22.050  0.00  0.00     0.002 A 
ATOM     28  C   UNL d   1     -49.715  15.242  22.410  0.00  0.00     0.000 C 
ATOM     29  C   UNL d   1     -49.833  13.207  22.329  0.00  0.00     0.019 A 
ENDBRANCH   5  23
TORSDOF 4
ENDMDL
MODEL 3
REMARK VINA RESULT:      -6.7      7.878      9.234
REMARK  4 active torsions:
REMARK  status: ('A' for Active; 'I' for Inactive)
REMARK    1  A    between atoms: N_2  and  S_1 
REMARK    2  A    between atoms: C_8  and  S_1 
REMARK       I    between atoms: C_3  and  N_2 
REMARK    3  A    between atoms: C_11  and  N_2 
REMARK       I    between atoms: N_4  and  C_3 
REMARK       I    between atoms: C_5  and  N_4 
REMARK       I    between atoms: N_9  and  C_5 
REMARK    4  A    between atoms: C_13  and  N_9 
ROOT
ATOM      1  N   UNL d   1     -39.013  14.092  20.565  0.00  0.00    -0.182 N 
ATOM      2  C   UNL d   1     -38.652  13.697  19.947  0.00  0.00     0.367 C 
ATOM      3  N   UNL d   1     -38.918  13.843  19.177  0.00  0.00    -0.135 NA
ATOM      4  C   UNL d   1     -38.575  13.460  18.531  0.00  0.00     0.373 C 
ATOM      5  N   UNL d   1     -38.840  13.606  17.764  0.00  0.00    -0.191 NA
ATOM      6  O   UNL d   1     -38.044  13.169  20.069  0.00  0.00    -0.243 OA
ATOM      7  O   UNL d   1     -37.942  12.914  18.686  0.00  0.00    -0.242 OA
ENDROOT
BRANCH   1   8
ATOM      8  S   UNL d   1     -38.757  13.957  21.354  0.00  0.00     0.275 S 
ATOM      9  O   UNL d   1     -38.129  14.472  21.234  0.00  0.00    -0.199 OA
ATOM     10  O   UNL d   1     -39.391  13.446  21.451  0.00  0.00    -0.199 OA
BRANCH   8  11
ATOM     11  C   UNL d   1     -38.520  13.815  22.127  0.00  0.00     0.104 A 
ATOM     12  C   UNL d   1     -38.604  13.070  22.461  0.00  0.00     0.013 A 
ATOM     13  C   UNL d   1     -38.364  12.922  23.245  0.00  0.00     0.001 A 
ATOM     14  C   UNL d   1     -38.040  13.519  23.695  0.00  0.00     0.000 A 
ATOM     15  C   UNL d   1     -37.952  14.278  23.361  0.00  0.00     0.001 A 
ATOM     16  C   UNL d   1     -38.192  14.426  22.577  0.00  0.00     0.013 A 
ENDBRANCH   8  11
ENDBRANCH   1   8
BRANCH   1  17
ATOM     17  C   UNL d   1     -39.619  14.612  20.400  0.00  0.00     0.079 A 
ATOM     18  C   UNL d   1     -39.452  15.386  20.218  0.00  0.00     0.018 A 
ATOM     19  C   UNL d   1     -40.067  15.918  20.050  0.00  0.00     0.002 A 
ATOM     20  C   UNL d   1     -40.851  15.663  20.067  0.00  0.00     0.000 A 
ATOM     21  C   UNL d   1     -41.013  14.878  20.251  0.00  0.00     0.002 A 
ATOM     22  C   UNL d   1     -40.399  14.358  20.416  0.00  0.00     0.018 A 
ENDBRANCH   1  17
BRANCH   5  23
ATOM     23  C   UNL d   1     -39.457  14.141  17.638  0.00  0.00     0.086 A 
ATOM     24  C   UNL d   1     -40.256  13.893  17.671  0.00  0.00     0.019 A 
ATOM     25  C   UNL d   1     -40.861  14.426  17.546  0.00  0.00     0.002 A 
ATOM     26  C   UNL d   1     -40.688  15.225  17.384  0.00  0.00     0.000 A 
ATOM     27  C   UNL d   1     -39.890  15.486  17.348  0.00  0.00     0.002 A 
ATOM     28  C   UNL d   1     -41.183  15.654  17.283  0.00  0.00     0.000 C 
ATOM     29  C   UNL d   1     -39.287  14.927  17.479  0.00  0.00     0.019 A 
ENDBRANCH   5  23
TORSDOF 4
ENDMDL
MODEL 4
REMARK VINA RESULT:      -6.4      7.778      9.407
REMARK  4 active torsions:
REMARK  status: ('A' for Active; 'I' for Inactive)
REMARK    1  A    between atoms: N_2  and  S_1 
REMARK    2  A    between atoms: C_8  and  S_1 
REMARK       I    between atoms: C_3  and  N_2 
REMARK    3  A    between atoms: C_11  and  N_2 
REMARK       I    between atoms: N_4  and  C_3 
REMARK       I    between atoms: C_5  and  N_4 
REMARK       I    between atoms: N_9  and  C_5 
REMARK    4  A    between atoms: C_13  and  N_9 
ROOT
ATOM      1  N   UNL d   1     -39.127  14.108  18.195  0.00  0.00    -0.182 N 
ATOM      2  C   UNL d   1     -38.746  13.887  18.882  0.00  0.00     0.367 C 
ATOM      3  N   UNL d   1     -39.061  14.135  19.606  0.00  0.00    -0.135 NA
ATOM      4  C   UNL d   1     -38.699  13.928  20.319  0.00  0.00     0.373 C 
ATOM      5  N   UNL d   1     -39.014  14.175  21.039  0.00  0.00    -0.191 NA
ATOM      6  O   UNL d   1     -38.069  13.432  18.873  0.00  0.00    -0.243 OA
ATOM      7  O   UNL d   1     -37.994  13.453  20.281  0.00  0.00    -0.242 OA
ENDROOT
BRANCH   1   8
ATOM      8  S   UNL d   1     -38.822  13.866  17.449  0.00  0.00     0.275 S 
ATOM      9  O   UNL d   1     -38.506  14.615  17.340  0.00  0.00    -0.199 OA
ATOM     10  O   UNL d   1     -39.147  13.125  17.580  0.00  0.00    -0.199 OA
BRANCH   8  11
ATOM     11  C   UNL d   1     -38.531  13.615  16.725  0.00  0.00     0.104 A 
ATOM     12  C   UNL d   1     -38.400  12.817  16.579  0.00  0.00     0.013 A 
ATOM     13  C   UNL d   1     -38.105  12.558  15.845  0.00  0.00     0.001 A 
ATOM     14  C   UNL d   1     -37.940  13.097  15.256  0.00  0.00     0.000 A 
ATOM     15  C   UNL d   1     -38.070  13.908  15.398  0.00  0.00     0.001 A 
ATOM     16  C   UNL d   1     -38.365  14.167  16.132  0.00  0.00     0.013 A 
ENDBRANCH   8  11
ENDBRANCH   1   8
BRANCH   1  17
ATOM     17  C   UNL d   1     -39.802  14.564  18.248  0.00  0.00     0.079 A 
ATOM     18  C   UNL d   1     -40.531  14.209  18.289  0.00  0.00     0.018 A 
ATOM     19  C   UNL d   1     -41.219  14.669  18.343  0.00  0.00     0.002 A 
ATOM     20  C   UNL d   1     -41.165  15.492  18.354  0.00  0.00     0.000 A 
ATOM     21  C   UNL d   1     -40.424  15.846  18.312  0.00  0.00     0.002 A 
ATOM     22  C   UNL d   1     -39.748  15.383  18.259  0.00  0.00     0.018 A 
ENDBRANCH   1  17
BRANCH   5  23
ATOM     23  C   UNL d   1     -39.700  14.636  21.051  0.00  0.00     0.086 A 
ATOM     24  C   UNL d   1     -39.657  15.473  21.054  0.00  0.00     0.019 A 
ATOM     25  C   UNL d   1     -40.337  15.922  21.066  0.00  0.00     0.002 A 
ATOM     26  C   UNL d   1     -41.084  15.552  21.074  0.00  0.00     0.000 A 
ATOM     27  C   UNL d   1     -41.140  14.714  21.070  0.00  0.00     0.002 A 
ATOM     28  C   UNL d   1     -41.634  15.922  21.083  0.00  0.00     0.000 C 
ATOM     29  C   UNL d   1     -40.435  14.272  21.059  0.00  0.00     0.019 A 
ENDBRANCH   5  23
TORSDOF 4
ENDMDL
MODEL 5
REMARK VINA RESULT:      -6.2      7.656      9.635
REMARK  4 active torsions:
REMARK  status: ('A' for Active; 'I' for Inactive)
REMARK    1  A    between atoms: N_2  and  S_1 
REMARK    2  A    between atoms: C_8  and  S_1 
REMARK       I    between atoms: C_3  and  N_2 
REMARK    3  A    between atoms: C_11  and  N_2 
REMARK       I    between atoms: N_4  and  C_3 
REMARK       I    between atoms: C_5  and  N_4 
REMARK       I    between atoms: N_9  and  C_5 
REMARK    4  A    between atoms: C_13  and  N_9 
ROOT
ATOM      1  N   UNL d   1     -39.320  14.699  17.574  0.00  0.00    -0.182 N 
ATOM      2  C   UNL d   1     -40.085  14.979  17.625  0.00  0.00     0.367 C 
ATOM      3  N   UNL d   1     -40.413  15.096  18.376  0.00  0.00    -0.135 NA
ATOM      4  C   UNL d   1     -41.185  15.378  18.461  0.00  0.00     0.373 C 
ATOM      5  N   UNL d   1     -41.512  15.494  19.208  0.00  0.00    -0.191 NA
ATOM      6  O   UNL d   1     -40.529  15.144  16.962  0.00  0.00    -0.243 OA
ATOM      7  O   UNL d   1     -41.627  15.542  17.753  0.00  0.00    -0.242 OA
ENDROOT
BRANCH   1   8
ATOM      8  S   UNL d   1     -38.968  14.574  16.820  0.00  0.00     0.275 S 
ATOM      9  O   UNL d   1     -38.761  15.367  16.790  0.00  0.00    -0.199 OA
ATOM     10  O   UNL d   1     -39.186  13.785  16.873  0.00  0.00    -0.199 OA
BRANCH   8  11
ATOM     11  C   UNL d   1     -38.630  14.435  16.086  0.00  0.00     0.104 A 
ATOM     12  C   UNL d   1     -38.298  15.050  15.655  0.00  0.00     0.013 A 
ATOM     13  C   UNL d   1     -37.953  14.914  14.909  0.00  0.00     0.001 A 
ATOM     14  C   UNL d   1     -37.941  14.163  14.594  0.00  0.00     0.000 A 
ATOM     15  C   UNL d   1     -38.276  13.534  15.026  0.00  0.00     0.001 A 
ATOM     16  C   UNL d   1     -38.621  13.671  15.772  0.00  0.00     0.013 A 
ENDBRANCH   8  11
ENDBRANCH   1   8
BRANCH   1  17
ATOM     17  C   UNL d   1     -38.909  14.546  18.262  0.00  0.00     0.079 A 
ATOM     18  C   UNL d   1     -38.964  13.817  18.616  0.00  0.00     0.018 A 
ATOM     19  C   UNL d   1     -38.547  13.659  19.316  0.00  0.00     0.002 A 
ATOM     20  C   UNL d   1     -38.075  14.243  19.657  0.00  0.00     0.000 A 
ATOM     21  C   UNL d   1     -38.024  14.980  19.294  0.00  0.00     0.002 A 
ATOM     22  C   UNL d   1     -38.439  15.128  18.602  0.00  0.00     0.018 A 
ENDBRANCH   1  17
BRANCH   5  23
ATOM     23  C   UNL d   1     -41.063  15.327  19.883  0.00  0.00     0.086 A 
ATOM     24  C   UNL d   1     -41.052  14.558  20.213  0.00  0.00     0.019 A 
ATOM     25  C   UNL d   1     -40.608  14.400  20.879  0.00  0.00     0.002 A 
ATOM     26  C   UNL d   1     -40.159  15.004  21.236  0.00  0.00     0.000 A 
ATOM     27  C   UNL d   1     -40.161  15.780  20.913  0.00  0.00     0.002 A 
ATOM     28  C   UNL d   1     -39.799  14.870  21.777  0.00  0.00     0.000 C 
ATOM     29  C   UNL d   1     -40.621  15.922  20.234  0.00  0.00     0.019 A 
ENDBRANCH   5  23
TORSDOF 4
ENDMDL
