MODEL 1
REMARK VINA RESULT:      -6.1      0.000      0.000
REMARK  4 active torsions:
REMARK  status: ('A' for Active; 'I' for Inactive)
REMARK    1  A    between atoms: N_8  and  S_1 
REMARK    2  A    between atoms: C_12  and  S_1 
REMARK    3  A    between atoms: C_5  and  C_9 
REMARK    4  A    between atoms: C_15  and  N_8 
ROOT
ATOM      1  C   UNL d   1      58.768  -0.748  29.570  0.00  0.00     0.021 A 
ATOM      2  C   UNL d   1      57.778  -0.047  30.320  0.00  0.00     0.094 A 
ATOM      3  C   UNL d   1      58.125  -0.755  30.083  0.00  0.00     0.021 A 
ATOM      4  C   UNL d   1      59.076  -0.035  29.285  0.00  0.00     0.002 A 
ATOM      5  C   UNL d   1      58.728   0.681  29.522  0.00  0.00     0.002 A 
ATOM      6  C   UNL d   1      58.077   0.682  30.041  0.00  0.00     0.020 A 
ENDROOT
BRANCH   2   7
ATOM      7  N   UNL d   1      57.136  -0.056  30.833  0.00  0.00    -0.158 NA
BRANCH   7   8
ATOM      8  S   UNL d   1      57.257   0.045  31.641  0.00  0.00     0.285 S 
ATOM      9  O   UNL d   1      58.018   0.358  31.708  0.00  0.00    -0.198 OA
ATOM     10  O   UNL d   1      57.572   0.221  32.386  0.00  0.00    -0.198 OA
BRANCH   8  11
ATOM     11  C   UNL d   1      56.659  -0.163  32.172  0.00  0.00     0.105 A 
ATOM     12  C   UNL d   1      56.533  -0.952  32.361  0.00  0.00     0.013 A 
ATOM     13  C   UNL d   1      55.938  -1.157  32.889  0.00  0.00     0.001 A 
ATOM     14  C   UNL d   1      55.464  -0.565  33.232  0.00  0.00     0.000 A 
ATOM     15  C   UNL d   1      55.601   0.228  33.033  0.00  0.00     0.001 A 
ATOM     16  C   UNL d   1      56.192   0.426  32.509  0.00  0.00     0.013 A 
ENDBRANCH   8  11
ENDBRANCH   7   8
ENDBRANCH   2   7
BRANCH   1  17
ATOM     17  C   UNL d   1      59.117  -1.458  29.332  0.00  0.00     0.118 A 
ATOM     18  N   UNL d   1      58.728  -2.164  29.151  0.00  0.00    -0.059 NA
ATOM     19  C   UNL d   1      59.293  -2.722  28.942  0.00  0.00     0.735 A 
ATOM     20  N   UNL d   1      59.221  -3.516  28.711  0.00  0.00    -0.059 NA
ATOM     21  N   UNL d   1      60.035  -2.368  28.991  0.00  0.00    -0.136 N 
ATOM     22  C   UNL d   1      59.897  -3.951  28.530  0.00  0.00     0.119 A 
ATOM     23  C   UNL d   1      60.640  -3.602  28.577  0.00  0.00     0.041 A 
ATOM     24  C   UNL d   1      60.713  -2.816  28.806  0.00  0.00     0.100 A 
ATOM     25  C   UNL d   1      59.929  -1.588  29.232  0.00  0.00     0.118 A 
ENDBRANCH   1  17
TORSDOF 4
ENDMDL
MODEL 2
REMARK VINA RESULT:      -5.3      1.580      4.839
REMARK  4 active torsions:
REMARK  status: ('A' for Active; 'I' for Inactive)
REMARK    1  A    between atoms: N_8  and  S_1 
REMARK    2  A    between atoms: C_12  and  S_1 
REMARK    3  A    between atoms: C_5  and  C_9 
REMARK    4  A    between atoms: C_15  and  N_8 
ROOT
ATOM      1  C   UNL d   1      57.601  -0.142  30.687  0.00  0.00     0.021 A 
ATOM      2  C   UNL d   1      58.720  -0.484  29.872  0.00  0.00     0.094 A 
ATOM      3  C   UNL d   1      58.233  -0.640  30.517  0.00  0.00     0.021 A 
ATOM      4  C   UNL d   1      57.444   0.520  30.218  0.00  0.00     0.002 A 
ATOM      5  C   UNL d   1      57.933   0.681  29.566  0.00  0.00     0.002 A 
ATOM      6  C   UNL d   1      58.575   0.182  29.387  0.00  0.00     0.020 A 
ENDROOT
BRANCH   2   7
ATOM      7  N   UNL d   1      59.351  -0.982  29.703  0.00  0.00    -0.158 NA
BRANCH   7   8
ATOM      8  S   UNL d   1      59.274  -1.554  29.115  0.00  0.00     0.285 S 
ATOM      9  O   UNL d   1      58.625  -1.315  28.665  0.00  0.00    -0.198 OA
ATOM     10  O   UNL d   1      59.029  -2.003  28.464  0.00  0.00    -0.198 OA
BRANCH   8  11
ATOM     11  C   UNL d   1      59.804  -2.187  29.091  0.00  0.00     0.105 A 
ATOM     12  C   UNL d   1      60.599  -2.053  28.935  0.00  0.00     0.013 A 
ATOM     13  C   UNL d   1      61.124  -2.684  28.911  0.00  0.00     0.001 A 
ATOM     14  C   UNL d   1      60.850  -3.459  29.045  0.00  0.00     0.000 A 
ATOM     15  C   UNL d   1      60.045  -3.581  29.201  0.00  0.00     0.001 A 
ATOM     16  C   UNL d   1      59.528  -2.952  29.223  0.00  0.00     0.013 A 
ENDBRANCH   8  11
ENDBRANCH   7   8
ENDBRANCH   2   7
BRANCH   1  17
ATOM     17  C   UNL d   1      57.112  -0.299  31.335  0.00  0.00     0.118 A 
ATOM     18  N   UNL d   1      56.817  -1.035  31.566  0.00  0.00    -0.059 NA
ATOM     19  C   UNL d   1      56.357  -0.928  32.237  0.00  0.00     0.735 A 
ATOM     20  N   UNL d   1      55.931  -1.469  32.702  0.00  0.00    -0.059 NA
ATOM     21  N   UNL d   1      56.362  -0.128  32.428  0.00  0.00    -0.136 N 
ATOM     22  C   UNL d   1      55.511  -1.200  33.357  0.00  0.00     0.119 A 
ATOM     23  C   UNL d   1      55.512  -0.400  33.552  0.00  0.00     0.041 A 
ATOM     24  C   UNL d   1      55.934   0.135  33.093  0.00  0.00     0.100 A 
ATOM     25  C   UNL d   1      56.827   0.264  31.873  0.00  0.00     0.118 A 
ENDBRANCH   1  17
TORSDOF 4
ENDMDL
MODEL 3
REMARK VINA RESULT:      -3.7      1.271      1.861
REMARK  4 active torsions:
REMARK  status: ('A' for Active; 'I' for Inactive)
REMARK    1  A    between atoms: N_8  and  S_1 
REMARK    2  A    between atoms: C_12  and  S_1 
REMARK    3  A    between atoms: C_5  and  C_9 
REMARK    4  A    between atoms: C_15  and  N_8 
ROOT
ATOM      1  C   UNL d   1      58.068  -0.093  30.373  0.00  0.00     0.021 A 
ATOM      2  C   UNL d   1      57.329   0.095  31.578  0.00  0.00     0.094 A 
ATOM      3  C   UNL d   1      57.975  -0.224  31.179  0.00  0.00     0.021 A 
ATOM      4  C   UNL d   1      57.519   0.358  29.949  0.00  0.00     0.002 A 
ATOM      5  C   UNL d   1      56.866   0.682  30.348  0.00  0.00     0.002 A 
ATOM      6  C   UNL d   1      56.765   0.553  31.164  0.00  0.00     0.020 A 
ENDROOT
BRANCH   2   7
ATOM      7  N   UNL d   1      57.237  -0.037  32.383  0.00  0.00    -0.158 NA
BRANCH   7   8
ATOM      8  S   UNL d   1      56.549  -0.394  32.663  0.00  0.00     0.285 S 
ATOM      9  O   UNL d   1      56.452  -1.070  32.199  0.00  0.00    -0.198 OA
ATOM     10  O   UNL d   1      55.905  -0.898  32.789  0.00  0.00    -0.198 OA
BRANCH   8  11
ATOM     11  C   UNL d   1      56.134  -0.046  33.286  0.00  0.00     0.105 A 
ATOM     12  C   UNL d   1      55.313  -0.038  33.280  0.00  0.00     0.013 A 
ATOM     13  C   UNL d   1      54.902   0.309  33.901  0.00  0.00     0.001 A 
ATOM     14  C   UNL d   1      55.317   0.652  34.535  0.00  0.00     0.000 A 
ATOM     15  C   UNL d   1      56.146   0.638  34.530  0.00  0.00     0.001 A 
ATOM     16  C   UNL d   1      56.549   0.292  33.912  0.00  0.00     0.013 A 
ENDBRANCH   8  11
ENDBRANCH   7   8
ENDBRANCH   2   7
BRANCH   1  17
ATOM     17  C   UNL d   1      58.717  -0.413  29.972  0.00  0.00     0.118 A 
ATOM     18  N   UNL d   1      59.490  -0.122  29.969  0.00  0.00    -0.059 NA
ATOM     19  C   UNL d   1      59.948  -0.615  29.499  0.00  0.00     0.735 A 
ATOM     20  N   UNL d   1      60.754  -0.589  29.300  0.00  0.00    -0.059 NA
ATOM     21  N   UNL d   1      59.465  -1.214  29.207  0.00  0.00    -0.136 N 
ATOM     22  C   UNL d   1      61.070  -1.169  28.807  0.00  0.00     0.119 A 
ATOM     23  C   UNL d   1      60.591  -1.770  28.512  0.00  0.00     0.041 A 
ATOM     24  C   UNL d   1      59.794  -1.796  28.709  0.00  0.00     0.100 A 
ATOM     25  C   UNL d   1      58.704  -1.093  29.497  0.00  0.00     0.118 A 
ENDBRANCH   1  17
TORSDOF 4
ENDMDL
