MODEL 1
REMARK VINA RESULT:      -3.2      0.000      0.000
REMARK  6 active torsions:
REMARK  status: ('A' for Active; 'I' for Inactive)
REMARK    1  A    between atoms: C_7  and  C_1 
REMARK    2  A    between atoms: C_9  and  N_10 
REMARK       I    between atoms: N_10  and  C_11 
REMARK    3  A    between atoms: C_11  and  C_19 
REMARK    4  A    between atoms: S_15  and  C_12 
REMARK    5  A    between atoms: O_24  and  C_13 
REMARK    6  A    between atoms: C_19  and  S_15 
ROOT
ATOM      1  S   UNL d   1      33.103  19.434 -23.068  0.00  0.00    -0.061 SA
ENDROOT
BRANCH   1   2
ATOM      2  C   UNL d   1      33.058  20.084 -22.537  0.00  0.00     0.133 A 
ATOM      3  C   UNL d   1      33.241  20.841 -22.806  0.00  0.00     0.029 A 
ATOM      4  C   UNL d   1      33.198  21.480 -22.289  0.00  0.00     0.024 A 
ATOM      5  C   UNL d   1      32.974  21.362 -21.504  0.00  0.00     0.111 A 
ATOM      6  N   UNL d   1      32.792  20.606 -21.236  0.00  0.00    -0.147 NA
ATOM      7  N   UNL d   1      32.834  19.966 -21.752  0.00  0.00    -0.141 NA
BRANCH   5   8
ATOM      8  C   UNL d   1      32.932  22.002 -20.987  0.00  0.00     0.068 A 
ATOM      9  C   UNL d   1      32.702  22.785 -21.145  0.00  0.00     0.089 A 
ATOM     10  N   UNL d   1      32.754  23.217 -20.443  0.00  0.00    -0.238 NA
ATOM     11  C   UNL d   1      32.463  23.083 -21.879  0.00  0.00     0.021 C 
ATOM     12  C   UNL d   1      33.014  22.702 -19.854  0.00  0.00     0.111 A 
ATOM     13  S   UNL d   1      33.125  21.954 -20.185  0.00  0.00    -0.065 SA
ATOM     14  C   UNL d   1      33.147  22.901 -19.049  0.00  0.00     0.028 C 
ENDBRANCH   5   8
ENDBRANCH   1   2
BRANCH   1  15
ATOM     15  C   UNL d   1      32.754  18.714 -22.865  0.00  0.00     0.099 C 
BRANCH  15  16
ATOM     16  C   UNL d   1      32.672  18.127 -23.437  0.00  0.00     0.286 C 
ATOM     17  N   UNL d   1      32.072  17.554 -23.365  0.00  0.00    -0.206 NA
ATOM     18  O   UNL d   1      33.188  18.105 -24.089  0.00  0.00    -0.265 OA
BRANCH  17  19
ATOM     19  C   UNL d   1      31.990  16.968 -23.936  0.00  0.00     0.107 A 
ATOM     20  C   UNL d   1      31.237  16.776 -24.231  0.00  0.00     0.112 A 
ATOM     21  C   UNL d   1      31.154  16.189 -24.804  0.00  0.00     0.026 A 
ATOM     22  C   UNL d   1      31.822  15.788 -25.087  0.00  0.00     0.002 A 
ATOM     23  C   UNL d   1      32.574  15.979 -24.792  0.00  0.00     0.002 A 
ATOM     24  C   UNL d   1      32.658  16.566 -24.220  0.00  0.00     0.021 A 
ATOM     25  C   UNL d   1      33.241  15.582 -25.071  0.00  0.00     0.000 C 
BRANCH  20  26
ATOM     26  O   UNL d   1      30.573  17.176 -23.950  0.00  0.00    -0.327 OA
ATOM     27  C   UNL d   1      29.820  16.942 -24.186  0.00  0.00     0.181 C 
ENDBRANCH  20  26
ENDBRANCH  17  19
ENDBRANCH  15  16
ENDBRANCH   1  15
TORSDOF 6
ENDMDL
MODEL 2
REMARK VINA RESULT:      -0.8      1.753      6.129
REMARK  6 active torsions:
REMARK  status: ('A' for Active; 'I' for Inactive)
REMARK    1  A    between atoms: C_7  and  C_1 
REMARK    2  A    between atoms: C_9  and  N_10 
REMARK       I    between atoms: N_10  and  C_11 
REMARK    3  A    between atoms: C_11  and  C_19 
REMARK    4  A    between atoms: S_15  and  C_12 
REMARK    5  A    between atoms: O_24  and  C_13 
REMARK    6  A    between atoms: C_19  and  S_15 
ROOT
ATOM      1  S   UNL d   1      32.905  19.539 -21.721  0.00  0.00    -0.061 SA
ENDROOT
BRANCH   1   2
ATOM      2  C   UNL d   1      32.652  18.993 -22.308  0.00  0.00     0.133 A 
ATOM      3  C   UNL d   1      32.253  19.268 -22.974  0.00  0.00     0.029 A 
ATOM      4  C   UNL d   1      32.004  18.736 -23.550  0.00  0.00     0.024 A 
ATOM      5  C   UNL d   1      32.153  17.929 -23.461  0.00  0.00     0.111 A 
ATOM      6  N   UNL d   1      32.551  17.655 -22.796  0.00  0.00    -0.147 NA
ATOM      7  N   UNL d   1      32.801  18.186 -22.218  0.00  0.00    -0.141 NA
BRANCH   5   8
ATOM      8  C   UNL d   1      31.903  17.398 -24.038  0.00  0.00     0.068 A 
ATOM      9  C   UNL d   1      32.339  17.063 -24.662  0.00  0.00     0.089 A 
ATOM     10  N   UNL d   1      31.838  16.563 -25.089  0.00  0.00    -0.238 NA
ATOM     11  C   UNL d   1      33.137  17.204 -24.828  0.00  0.00     0.021 C 
ATOM     12  C   UNL d   1      31.096  16.590 -24.730  0.00  0.00     0.111 A 
ATOM     13  S   UNL d   1      31.132  17.102 -24.083  0.00  0.00    -0.065 SA
ATOM     14  C   UNL d   1      30.414  16.168 -24.976  0.00  0.00     0.028 C 
ENDBRANCH   5   8
ENDBRANCH   1   2
BRANCH   1  15
ATOM     15  C   UNL d   1      33.239  20.259 -21.949  0.00  0.00     0.099 C 
BRANCH  15  16
ATOM     16  C   UNL d   1      33.077  20.937 -21.510  0.00  0.00     0.286 C 
ATOM     17  N   UNL d   1      32.853  21.641 -21.896  0.00  0.00    -0.206 NA
ATOM     18  O   UNL d   1      33.136  20.922 -20.682  0.00  0.00    -0.265 OA
BRANCH  17  19
ATOM     19  C   UNL d   1      32.691  22.319 -21.459  0.00  0.00     0.107 A 
ATOM     20  C   UNL d   1      32.418  23.005 -21.839  0.00  0.00     0.112 A 
ATOM     21  C   UNL d   1      32.255  23.684 -21.402  0.00  0.00     0.026 A 
ATOM     22  C   UNL d   1      32.364  23.684 -20.580  0.00  0.00     0.002 A 
ATOM     23  C   UNL d   1      32.638  22.998 -20.200  0.00  0.00     0.002 A 
ATOM     24  C   UNL d   1      32.800  22.319 -20.637  0.00  0.00     0.021 A 
ATOM     25  C   UNL d   1      32.748  22.995 -19.382  0.00  0.00     0.000 C 
BRANCH  20  26
ATOM     26  O   UNL d   1      32.309  23.004 -22.657  0.00  0.00    -0.327 OA
ATOM     27  C   UNL d   1      32.409  23.700 -23.086  0.00  0.00     0.181 C 
ENDBRANCH  20  26
ENDBRANCH  17  19
ENDBRANCH  15  16
ENDBRANCH   1  15
TORSDOF 6
ENDMDL
