MODEL 1
REMARK VINA RESULT:      21.7      0.000      0.000
REMARK  3 active torsions:
REMARK  status: ('A' for Active; 'I' for Inactive)
REMARK    1  A    between atoms: S_10  and  C_3 
REMARK    2  A    between atoms: C_14  and  S_10 
REMARK    3  A    between atoms: C_16  and  C_14 
ROOT
ATOM      1  C   UNL d   1     -50.402  25.372  33.337  0.00  0.00     0.155 A 
ATOM      2  C   UNL d   1     -51.217  25.513  33.329  0.00  0.00     0.107 A 
ATOM      3  C   UNL d   1     -51.453  24.108  33.320  0.00  0.00     0.182 A 
ATOM      4  N   UNL d   1     -50.648  23.966  33.328  0.00  0.00    -0.250 N 
ATOM      5  N   UNL d   1     -51.746  24.875  33.320  0.00  0.00    -0.220 NA
ATOM      6  C   UNL d   1     -50.118  24.604  33.337  0.00  0.00     0.285 A 
ATOM      7  N   UNL d   1     -50.016  26.099  33.345  0.00  0.00    -0.239 NA
ATOM      8  C   UNL d   1     -51.340  26.324  33.331  0.00  0.00     0.037 A 
ATOM      9  C   UNL d   1     -50.593  26.693  33.341  0.00  0.00     0.083 A 
ATOM     10  O   UNL d   1     -49.302  24.454  33.345  0.00  0.00    -0.265 OA
ATOM     11  C   UNL d   1     -50.361  23.188  33.328  0.00  0.00     0.104 C 
ATOM     12  C   UNL d   1     -52.022  26.782  33.325  0.00  0.00     0.003 A 
ATOM     13  C   UNL d   1     -50.539  27.518  33.345  0.00  0.00     0.019 A 
ATOM     14  C   UNL d   1     -51.966  27.607  33.330  0.00  0.00     0.000 A 
ATOM     15  C   UNL d   1     -51.229  27.970  33.339  0.00  0.00     0.002 A 
ENDROOT
BRANCH   3  16
ATOM     16  S   UNL d   1     -51.977  23.471  33.312  0.00  0.00    -0.050 SA
BRANCH  16  17
ATOM     17  C   UNL d   1     -52.642  23.474  33.799  0.00  0.00     0.032 C 
ATOM     18  C   UNL d   1     -52.557  23.388  34.612  0.00  0.00     0.007 C 
BRANCH  17  19
ATOM     19  C   UNL d   1     -53.389  23.563  33.464  0.00  0.00     0.007 C 
ATOM     20  C   UNL d   1     -54.059  23.287  33.865  0.00  0.00     0.001 C 
ENDBRANCH  17  19
ENDBRANCH  16  17
ENDBRANCH   3  16
TORSDOF 3
ENDMDL
