MODEL 1
REMARK VINA RESULT:      -2.5      0.000      0.000
REMARK  5 active torsions:
REMARK  status: ('A' for Active; 'I' for Inactive)
REMARK       I    between atoms: C_2  and  N_1 
REMARK    1  A    between atoms: C_5  and  C_2 
REMARK    2  A    between atoms: S_7  and  C_3 
REMARK    3  A    between atoms: N_4  and  C_8 
REMARK    4  A    between atoms: C_17  and  S_7 
REMARK    5  A    between atoms: C_18  and  C_17 
ROOT
ATOM      1  N   UNL d   1      32.424  18.354 -24.009  0.00  0.00    -0.251 N 
ATOM      2  C   UNL d   1      32.261  17.709 -23.522  0.00  0.00     0.266 C 
ATOM      3  C   UNL d   1      32.704  19.095 -23.767  0.00  0.00     0.182 A 
ATOM      4  N   UNL d   1      32.785  19.564 -24.436  0.00  0.00    -0.219 NA
ATOM      5  O   UNL d   1      32.377  17.765 -22.705  0.00  0.00    -0.267 OA
ATOM      6  C   UNL d   1      32.332  18.371 -24.837  0.00  0.00     0.106 A 
ATOM      7  C   UNL d   1      32.558  19.126 -25.097  0.00  0.00     0.120 A 
ENDROOT
BRANCH   3   8
ATOM      8  S   UNL d   1      32.869  19.310 -22.989  0.00  0.00    -0.049 SA
BRANCH   8   9
ATOM      9  C   UNL d   1      33.241  20.022 -22.834  0.00  0.00     0.038 C 
BRANCH   9  10
ATOM     10  C   UNL d   1      32.991  20.488 -22.208  0.00  0.00     0.007 A 
ATOM     11  C   UNL d   1      32.787  21.276 -22.329  0.00  0.00     0.002 A 
ATOM     12  C   UNL d   1      32.536  21.747 -21.699  0.00  0.00     0.024 A 
ATOM     13  C   UNL d   1      32.490  21.422 -20.947  0.00  0.00     0.127 A 
ATOM     14  C   UNL d   1      32.690  20.637 -20.813  0.00  0.00     0.024 A 
ATOM     15  C   UNL d   1      32.943  20.165 -21.444  0.00  0.00     0.002 A 
BRANCH  13  16
ATOM     16  N   UNL d   1      32.238  21.890 -20.310  0.00  0.00    -0.114 N 
ATOM     17  O   UNL d   1      32.782  22.397 -19.916  0.00  0.00    -0.532 OA
ATOM     18  O   UNL d   1      31.447  21.866 -20.050  0.00  0.00    -0.532 OA
ENDBRANCH  13  16
ENDBRANCH   9  10
ENDBRANCH   8   9
ENDBRANCH   3   8
BRANCH   2  19
ATOM     19  C   UNL d   1      31.981  17.000 -23.850  0.00  0.00     0.057 A 
ATOM     20  C   UNL d   1      32.351  16.284 -23.652  0.00  0.00     0.005 A 
ATOM     21  C   UNL d   1      32.992  16.278 -23.132  0.00  0.00     0.000 C 
ATOM     22  C   UNL d   1      32.070  15.591 -23.980  0.00  0.00     0.000 A 
ATOM     23  C   UNL d   1      31.422  15.606 -24.503  0.00  0.00     0.000 A 
ATOM     24  C   UNL d   1      31.059  16.313 -24.698  0.00  0.00     0.000 A 
ATOM     25  C   UNL d   1      31.340  17.014 -24.369  0.00  0.00     0.005 A 
ENDBRANCH   2  19
TORSDOF 5
ENDMDL
MODEL 2
REMARK VINA RESULT:      -1.6      1.899      2.986
REMARK  5 active torsions:
REMARK  status: ('A' for Active; 'I' for Inactive)
REMARK       I    between atoms: C_2  and  N_1 
REMARK    1  A    between atoms: C_5  and  C_2 
REMARK    2  A    between atoms: S_7  and  C_3 
REMARK    3  A    between atoms: N_4  and  C_8 
REMARK    4  A    between atoms: C_17  and  S_7 
REMARK    5  A    between atoms: C_18  and  C_17 
ROOT
ATOM      1  N   UNL d   1      31.181  16.531 -24.653  0.00  0.00    -0.251 N 
ATOM      2  C   UNL d   1      30.485  16.974 -24.631  0.00  0.00     0.266 C 
ATOM      3  C   UNL d   1      31.954  16.828 -24.623  0.00  0.00     0.182 A 
ATOM      4  N   UNL d   1      32.469  16.190 -24.660  0.00  0.00    -0.219 NA
ATOM      5  O   UNL d   1      30.518  17.798 -24.576  0.00  0.00    -0.267 OA
ATOM      6  C   UNL d   1      31.225  15.701 -24.708  0.00  0.00     0.106 A 
ATOM      7  C   UNL d   1      32.028  15.494 -24.712  0.00  0.00     0.120 A 
ENDROOT
BRANCH   3   8
ATOM      8  S   UNL d   1      32.156  17.624 -24.568  0.00  0.00    -0.049 SA
BRANCH   8   9
ATOM      9  C   UNL d   1      32.818  17.847 -24.143  0.00  0.00     0.038 C 
BRANCH   9  10
ATOM     10  C   UNL d   1      32.908  18.625 -23.900  0.00  0.00     0.007 A 
ATOM     11  C   UNL d   1      32.955  18.810 -23.100  0.00  0.00     0.002 A 
ATOM     12  C   UNL d   1      33.046  19.593 -22.854  0.00  0.00     0.024 A 
ATOM     13  C   UNL d   1      33.089  20.188 -23.416  0.00  0.00     0.127 A 
ATOM     14  C   UNL d   1      33.044  20.017 -24.218  0.00  0.00     0.024 A 
ATOM     15  C   UNL d   1      32.953  19.232 -24.465  0.00  0.00     0.002 A 
BRANCH  13  16
ATOM     16  N   UNL d   1      33.181  20.977 -23.176  0.00  0.00    -0.114 N 
ATOM     17  O   UNL d   1      33.235  21.167 -22.359  0.00  0.00    -0.532 OA
ATOM     18  O   UNL d   1      33.221  21.592 -23.737  0.00  0.00    -0.532 OA
ENDBRANCH  13  16
ENDBRANCH   9  10
ENDBRANCH   8   9
ENDBRANCH   3   8
BRANCH   2  19
ATOM     19  C   UNL d   1      29.748  16.593 -24.666  0.00  0.00     0.057 A 
ATOM     20  C   UNL d   1      29.082  16.963 -24.338  0.00  0.00     0.005 A 
ATOM     21  C   UNL d   1      29.152  17.704 -23.982  0.00  0.00     0.000 C 
ATOM     22  C   UNL d   1      28.361  16.581 -24.377  0.00  0.00     0.000 A 
ATOM     23  C   UNL d   1      28.299  15.833 -24.738  0.00  0.00     0.000 A 
ATOM     24  C   UNL d   1      28.958  15.470 -25.060  0.00  0.00     0.000 A 
ATOM     25  C   UNL d   1      29.687  15.852 -25.024  0.00  0.00     0.005 A 
ENDBRANCH   2  19
TORSDOF 5
ENDMDL
