MODEL 1
REMARK VINA RESULT:      -6.3      0.000      0.000
REMARK  5 active torsions:
REMARK  status: ('A' for Active; 'I' for Inactive)
REMARK    1  A    between atoms: N_2  and  S_1 
REMARK    2  A    between atoms: C_5  and  S_1 
REMARK    3  A    between atoms: C_3  and  N_2 
REMARK    4  A    between atoms: C_4  and  C_3 
REMARK       I    between atoms: N_8  and  C_4 
REMARK    5  A    between atoms: C_13  and  N_8 
ROOT
ATOM      1  N   UNL d   1     -47.291  13.157  22.777  0.00  0.00    -0.223 N 
ATOM      2  C   UNL d   1     -47.275  13.088  21.955  0.00  0.00     0.112 C 
ENDROOT
BRANCH   1   3
ATOM      3  S   UNL d   1     -46.590  13.140  23.202  0.00  0.00     0.272 S 
ATOM      4  O   UNL d   1     -46.323  13.818  23.590  0.00  0.00    -0.200 OA
ATOM      5  O   UNL d   1     -47.014  12.589  22.760  0.00  0.00    -0.200 OA
BRANCH   3   6
ATOM      6  C   UNL d   1     -46.148  12.446  23.244  0.00  0.00     0.104 A 
ATOM      7  C   UNL d   1     -45.405  12.405  22.885  0.00  0.00     0.013 A 
ATOM      8  C   UNL d   1     -44.967  11.705  22.932  0.00  0.00     0.001 A 
ATOM      9  C   UNL d   1     -45.267  11.049  23.332  0.00  0.00     0.000 A 
ATOM     10  C   UNL d   1     -46.006  11.087  23.691  0.00  0.00     0.001 A 
ATOM     11  C   UNL d   1     -44.819  10.351  23.373  0.00  0.00     0.000 C 
ATOM     12  C   UNL d   1     -46.451  11.784  23.649  0.00  0.00     0.013 A 
ENDBRANCH   3   6
ENDBRANCH   1   3
BRANCH   1  13
ATOM     13  C   UNL d   1     -48.011  13.243  23.169  0.00  0.00     0.154 C 
BRANCH  13  14
ATOM     14  C   UNL d   1     -48.584  13.765  22.886  0.00  0.00     0.298 C 
ATOM     15  N   UNL d   1     -49.379  13.658  23.076  0.00  0.00    -0.207 NA
ATOM     16  O   UNL d   1     -48.355  14.398  22.409  0.00  0.00    -0.264 OA
BRANCH  15  17
ATOM     17  C   UNL d   1     -49.943  14.185  22.789  0.00  0.00     0.088 A 
ATOM     18  C   UNL d   1     -50.081  14.887  23.188  0.00  0.00     0.040 A 
ATOM     19  C   UNL d   1     -50.646  15.414  22.900  0.00  0.00     0.101 A 
ATOM     20  N   UNL d   1     -51.064  15.231  22.216  0.00  0.00    -0.242 NA
ATOM     21  C   UNL d   1     -50.920  14.523  21.820  0.00  0.00     0.101 A 
ATOM     22  C   UNL d   1     -50.357  14.000  22.109  0.00  0.00     0.040 A 
ENDBRANCH  15  17
ENDBRANCH  13  14
ENDBRANCH   1  13
TORSDOF 5
ENDMDL
MODEL 2
REMARK VINA RESULT:      -6.3      1.285      4.834
REMARK  5 active torsions:
REMARK  status: ('A' for Active; 'I' for Inactive)
REMARK    1  A    between atoms: N_2  and  S_1 
REMARK    2  A    between atoms: C_5  and  S_1 
REMARK    3  A    between atoms: C_3  and  N_2 
REMARK    4  A    between atoms: C_4  and  C_3 
REMARK       I    between atoms: N_8  and  C_4 
REMARK    5  A    between atoms: C_13  and  N_8 
ROOT
ATOM      1  N   UNL d   1     -47.600  13.658  22.761  0.00  0.00    -0.223 N 
ATOM      2  C   UNL d   1     -47.003  14.188  22.553  0.00  0.00     0.112 C 
ENDROOT
BRANCH   1   3
ATOM      3  S   UNL d   1     -48.343  13.726  22.419  0.00  0.00     0.272 S 
ATOM      4  O   UNL d   1     -48.537  13.274  21.757  0.00  0.00    -0.200 OA
ATOM      5  O   UNL d   1     -47.967  14.077  23.062  0.00  0.00    -0.200 OA
BRANCH   3   6
ATOM      6  C   UNL d   1     -48.899  14.245  22.735  0.00  0.00     0.104 A 
ATOM      7  C   UNL d   1     -48.800  15.062  22.646  0.00  0.00     0.013 A 
ATOM      8  C   UNL d   1     -49.363  15.577  22.966  0.00  0.00     0.001 A 
ATOM      9  C   UNL d   1     -50.018  15.284  23.371  0.00  0.00     0.000 A 
ATOM     10  C   UNL d   1     -50.118  14.472  23.461  0.00  0.00     0.001 A 
ATOM     11  C   UNL d   1     -50.576  15.811  23.688  0.00  0.00     0.000 C 
ATOM     12  C   UNL d   1     -49.561  13.949  23.144  0.00  0.00     0.013 A 
ENDBRANCH   3   6
ENDBRANCH   1   3
BRANCH   1  13
ATOM     13  C   UNL d   1     -47.451  13.064  23.311  0.00  0.00     0.154 C 
BRANCH  13  14
ATOM     14  C   UNL d   1     -46.702  12.719  23.365  0.00  0.00     0.298 C 
ATOM     15  N   UNL d   1     -46.573  11.953  23.090  0.00  0.00    -0.207 NA
ATOM     16  O   UNL d   1     -46.083  13.149  23.698  0.00  0.00    -0.264 OA
BRANCH  15  17
ATOM     17  C   UNL d   1     -45.823  11.619  23.149  0.00  0.00     0.088 A 
ATOM     18  C   UNL d   1     -45.203  11.938  22.718  0.00  0.00     0.040 A 
ATOM     19  C   UNL d   1     -44.452  11.603  22.777  0.00  0.00     0.101 A 
ATOM     20  N   UNL d   1     -44.332  10.953  23.268  0.00  0.00    -0.242 NA
ATOM     21  C   UNL d   1     -44.960  10.638  23.698  0.00  0.00     0.101 A 
ATOM     22  C   UNL d   1     -45.707  10.973  23.637  0.00  0.00     0.040 A 
ENDBRANCH  15  17
ENDBRANCH  13  14
ENDBRANCH   1  13
TORSDOF 5
ENDMDL
MODEL 3
REMARK VINA RESULT:      -5.8      1.454      4.861
REMARK  5 active torsions:
REMARK  status: ('A' for Active; 'I' for Inactive)
REMARK    1  A    between atoms: N_2  and  S_1 
REMARK    2  A    between atoms: C_5  and  S_1 
REMARK    3  A    between atoms: C_3  and  N_2 
REMARK    4  A    between atoms: C_4  and  C_3 
REMARK       I    between atoms: N_8  and  C_4 
REMARK    5  A    between atoms: C_13  and  N_8 
ROOT
ATOM      1  N   UNL d   1     -47.928  13.275  22.377  0.00  0.00    -0.223 N 
ATOM      2  C   UNL d   1     -48.069  12.983  21.619  0.00  0.00     0.112 C 
ENDROOT
BRANCH   1   3
ATOM      3  S   UNL d   1     -48.527  13.260  22.938  0.00  0.00     0.272 S 
ATOM      4  O   UNL d   1     -48.499  12.718  23.559  0.00  0.00    -0.200 OA
ATOM      5  O   UNL d   1     -48.375  13.709  22.264  0.00  0.00    -0.200 OA
BRANCH   3   6
ATOM      6  C   UNL d   1     -49.159  13.785  22.883  0.00  0.00     0.104 A 
ATOM      7  C   UNL d   1     -49.831  13.581  22.447  0.00  0.00     0.013 A 
ATOM      8  C   UNL d   1     -50.462  14.114  22.396  0.00  0.00     0.001 A 
ATOM      9  C   UNL d   1     -50.425  14.844  22.776  0.00  0.00     0.000 A 
ATOM     10  C   UNL d   1     -49.758  15.050  23.212  0.00  0.00     0.001 A 
ATOM     11  C   UNL d   1     -51.064  15.372  22.719  0.00  0.00     0.000 C 
ATOM     12  C   UNL d   1     -49.122  14.523  23.267  0.00  0.00     0.013 A 
ENDBRANCH   3   6
ENDBRANCH   1   3
BRANCH   1  13
ATOM     13  C   UNL d   1     -47.189  13.581  22.570  0.00  0.00     0.154 C 
BRANCH  13  14
ATOM     14  C   UNL d   1     -46.498  13.213  22.307  0.00  0.00     0.298 C 
ATOM     15  N   UNL d   1     -45.777  13.361  22.676  0.00  0.00    -0.207 NA
ATOM     16  O   UNL d   1     -46.537  12.692  21.668  0.00  0.00    -0.264 OA
BRANCH  15  17
ATOM     17  C   UNL d   1     -45.095  12.988  22.405  0.00  0.00     0.088 A 
ATOM     18  C   UNL d   1     -44.639  13.348  21.826  0.00  0.00     0.040 A 
ATOM     19  C   UNL d   1     -43.957  12.974  21.555  0.00  0.00     0.101 A 
ATOM     20  N   UNL d   1     -43.739  12.245  21.867  0.00  0.00    -0.242 NA
ATOM     21  C   UNL d   1     -44.201  11.889  22.449  0.00  0.00     0.101 A 
ATOM     22  C   UNL d   1     -44.881  12.263  22.717  0.00  0.00     0.040 A 
ENDBRANCH  15  17
ENDBRANCH  13  14
ENDBRANCH   1  13
TORSDOF 5
ENDMDL
MODEL 4
REMARK VINA RESULT:      -5.5      8.830      9.889
REMARK  5 active torsions:
REMARK  status: ('A' for Active; 'I' for Inactive)
REMARK    1  A    between atoms: N_2  and  S_1 
REMARK    2  A    between atoms: C_5  and  S_1 
REMARK    3  A    between atoms: C_3  and  N_2 
REMARK    4  A    between atoms: C_4  and  C_3 
REMARK       I    between atoms: N_8  and  C_4 
REMARK    5  A    between atoms: C_13  and  N_8 
ROOT
ATOM      1  N   UNL d   1     -39.326  14.585  19.232  0.00  0.00    -0.223 N 
ATOM      2  C   UNL d   1     -38.694  15.112  19.191  0.00  0.00     0.112 C 
ENDROOT
BRANCH   1   3
ATOM      3  S   UNL d   1     -39.597  14.218  18.550  0.00  0.00     0.272 S 
ATOM      4  O   UNL d   1     -39.424  13.424  18.408  0.00  0.00    -0.200 OA
ATOM      5  O   UNL d   1     -39.661  14.977  18.865  0.00  0.00    -0.200 OA
BRANCH   3   6
ATOM      6  C   UNL d   1     -40.044  14.641  18.003  0.00  0.00     0.104 A 
ATOM      7  C   UNL d   1     -39.679  14.980  17.342  0.00  0.00     0.013 A 
ATOM      8  C   UNL d   1     -40.135  15.403  16.797  0.00  0.00     0.001 A 
ATOM      9  C   UNL d   1     -40.947  15.490  16.907  0.00  0.00     0.000 A 
ATOM     10  C   UNL d   1     -41.313  15.154  17.563  0.00  0.00     0.001 A 
ATOM     11  C   UNL d   1     -41.396  15.918  16.353  0.00  0.00     0.000 C 
ATOM     12  C   UNL d   1     -40.865  14.729  18.114  0.00  0.00     0.013 A 
ENDBRANCH   3   6
ENDBRANCH   1   3
BRANCH   1  13
ATOM     13  C   UNL d   1     -39.684  14.426  19.957  0.00  0.00     0.154 C 
BRANCH  13  14
ATOM     14  C   UNL d   1     -39.232  14.367  20.645  0.00  0.00     0.298 C 
ATOM     15  N   UNL d   1     -39.572  14.102  21.348  0.00  0.00    -0.207 NA
ATOM     16  O   UNL d   1     -38.435  14.576  20.624  0.00  0.00    -0.264 OA
BRANCH  15  17
ATOM     17  C   UNL d   1     -39.112  14.047  22.029  0.00  0.00     0.088 A 
ATOM     18  C   UNL d   1     -38.712  13.349  22.191  0.00  0.00     0.040 A 
ATOM     19  C   UNL d   1     -38.252  13.295  22.873  0.00  0.00     0.101 A 
ATOM     20  N   UNL d   1     -38.198  13.938  23.383  0.00  0.00    -0.242 NA
ATOM     21  C   UNL d   1     -38.603  14.636  23.213  0.00  0.00     0.101 A 
ATOM     22  C   UNL d   1     -39.061  14.688  22.533  0.00  0.00     0.040 A 
ENDBRANCH  15  17
ENDBRANCH  13  14
ENDBRANCH   1  13
TORSDOF 5
ENDMDL
MODEL 5
REMARK VINA RESULT:      -5.5      1.622      4.927
REMARK  5 active torsions:
REMARK  status: ('A' for Active; 'I' for Inactive)
REMARK    1  A    between atoms: N_2  and  S_1 
REMARK    2  A    between atoms: C_5  and  S_1 
REMARK    3  A    between atoms: C_3  and  N_2 
REMARK    4  A    between atoms: C_4  and  C_3 
REMARK       I    between atoms: N_8  and  C_4 
REMARK    5  A    between atoms: C_13  and  N_8 
ROOT
ATOM      1  N   UNL d   1     -48.803  12.031  22.822  0.00  0.00    -0.223 N 
ATOM      2  C   UNL d   1     -48.494  12.018  22.057  0.00  0.00     0.112 C 
ENDROOT
BRANCH   1   3
ATOM      3  S   UNL d   1     -49.610  12.129  22.935  0.00  0.00     0.272 S 
ATOM      4  O   UNL d   1     -50.062  11.515  23.248  0.00  0.00    -0.200 OA
ATOM      5  O   UNL d   1     -49.003  12.605  22.644  0.00  0.00    -0.200 OA
BRANCH   3   6
ATOM      6  C   UNL d   1     -49.972  12.841  22.735  0.00  0.00     0.104 A 
ATOM      7  C   UNL d   1     -50.388  12.910  22.024  0.00  0.00     0.013 A 
ATOM      8  C   UNL d   1     -50.749  13.628  21.830  0.00  0.00     0.001 A 
ATOM      9  C   UNL d   1     -50.698  14.274  22.339  0.00  0.00     0.000 A 
ATOM     10  C   UNL d   1     -50.285  14.209  23.048  0.00  0.00     0.001 A 
ATOM     11  C   UNL d   1     -51.064  14.991  22.135  0.00  0.00     0.000 C 
ATOM     12  C   UNL d   1     -49.920  13.494  23.250  0.00  0.00     0.013 A 
ENDBRANCH   3   6
ENDBRANCH   1   3
BRANCH   1  13
ATOM     13  C   UNL d   1     -48.302  11.946  23.470  0.00  0.00     0.154 C 
BRANCH  13  14
ATOM     14  C   UNL d   1     -47.555  11.607  23.383  0.00  0.00     0.298 C 
ATOM     15  N   UNL d   1     -46.874  12.064  23.464  0.00  0.00    -0.207 NA
ATOM     16  O   UNL d   1     -47.494  10.802  23.214  0.00  0.00    -0.264 OA
BRANCH  15  17
ATOM     17  C   UNL d   1     -46.134  11.716  23.375  0.00  0.00     0.088 A 
ATOM     18  C   UNL d   1     -45.546  12.113  22.964  0.00  0.00     0.040 A 
ATOM     19  C   UNL d   1     -44.805  11.764  22.875  0.00  0.00     0.101 A 
ATOM     20  N   UNL d   1     -44.662  11.021  23.199  0.00  0.00    -0.242 NA
ATOM     21  C   UNL d   1     -45.257  10.628  23.611  0.00  0.00     0.101 A 
ATOM     22  C   UNL d   1     -45.995  10.978  23.698  0.00  0.00     0.040 A 
ENDBRANCH  15  17
ENDBRANCH  13  14
ENDBRANCH   1  13
TORSDOF 5
ENDMDL
MODEL 6
REMARK VINA RESULT:      -5.4      8.473      9.050
REMARK  5 active torsions:
REMARK  status: ('A' for Active; 'I' for Inactive)
REMARK    1  A    between atoms: N_2  and  S_1 
REMARK    2  A    between atoms: C_5  and  S_1 
REMARK    3  A    between atoms: C_3  and  N_2 
REMARK    4  A    between atoms: C_4  and  C_3 
REMARK       I    between atoms: N_8  and  C_4 
REMARK    5  A    between atoms: C_13  and  N_8 
ROOT
ATOM      1  N   UNL d   1     -39.623  15.290  20.494  0.00  0.00    -0.223 N 
ATOM      2  C   UNL d   1     -38.943  15.716  20.303  0.00  0.00     0.112 C 
ENDROOT
BRANCH   1   3
ATOM      3  S   UNL d   1     -39.893  15.280  21.269  0.00  0.00     0.272 S 
ATOM      4  O   UNL d   1     -40.574  15.698  21.476  0.00  0.00    -0.200 OA
ATOM      5  O   UNL d   1     -39.256  14.941  20.873  0.00  0.00    -0.200 OA
BRANCH   3   6
ATOM      6  C   UNL d   1     -39.486  14.853  21.844  0.00  0.00     0.104 A 
ATOM      7  C   UNL d   1     -39.597  14.036  21.909  0.00  0.00     0.013 A 
ATOM      8  C   UNL d   1     -39.185  13.614  22.489  0.00  0.00     0.001 A 
ATOM      9  C   UNL d   1     -38.666  14.001  23.000  0.00  0.00     0.000 A 
ATOM     10  C   UNL d   1     -38.554  14.814  22.937  0.00  0.00     0.001 A 
ATOM     11  C   UNL d   1     -38.257  13.567  23.578  0.00  0.00     0.000 C 
ATOM     12  C   UNL d   1     -38.962  15.244  22.360  0.00  0.00     0.013 A 
ENDBRANCH   3   6
ENDBRANCH   1   3
BRANCH   1  13
ATOM     13  C   UNL d   1     -40.029  14.877  19.909  0.00  0.00     0.154 C 
BRANCH  13  14
ATOM     14  C   UNL d   1     -40.107  15.191  19.149  0.00  0.00     0.298 C 
ATOM     15  N   UNL d   1     -40.520  14.780  18.566  0.00  0.00    -0.207 NA
ATOM     16  O   UNL d   1     -39.766  15.922  18.977  0.00  0.00    -0.264 OA
BRANCH  15  17
ATOM     17  C   UNL d   1     -40.591  15.102  17.812  0.00  0.00     0.088 A 
ATOM     18  C   UNL d   1     -41.220  15.600  17.642  0.00  0.00     0.040 A 
ATOM     19  C   UNL d   1     -41.291  15.922  16.887  0.00  0.00     0.101 A 
ATOM     20  N   UNL d   1     -40.732  15.741  16.311  0.00  0.00    -0.242 NA
ATOM     21  C   UNL d   1     -40.102  15.239  16.489  0.00  0.00     0.101 A 
ATOM     22  C   UNL d   1     -40.034  14.920  17.242  0.00  0.00     0.040 A 
ENDBRANCH  15  17
ENDBRANCH  13  14
ENDBRANCH   1  13
TORSDOF 5
ENDMDL
MODEL 7
REMARK VINA RESULT:      -4.9      9.167     10.271
REMARK  5 active torsions:
REMARK  status: ('A' for Active; 'I' for Inactive)
REMARK    1  A    between atoms: N_2  and  S_1 
REMARK    2  A    between atoms: C_5  and  S_1 
REMARK    3  A    between atoms: C_3  and  N_2 
REMARK    4  A    between atoms: C_4  and  C_3 
REMARK       I    between atoms: N_8  and  C_4 
REMARK    5  A    between atoms: C_13  and  N_8 
ROOT
ATOM      1  N   UNL d   1     -39.472  14.499  18.831  0.00  0.00    -0.223 N 
ATOM      2  C   UNL d   1     -38.965  13.906  19.099  0.00  0.00     0.112 C 
ENDROOT
BRANCH   1   3
ATOM      3  S   UNL d   1     -39.821  14.434  18.092  0.00  0.00     0.272 S 
ATOM      4  O   UNL d   1     -40.643  14.420  18.022  0.00  0.00    -0.200 OA
ATOM      5  O   UNL d   1     -39.045  14.465  18.366  0.00  0.00    -0.200 OA
BRANCH   3   6
ATOM      6  C   UNL d   1     -39.354  14.383  17.416  0.00  0.00     0.104 A 
ATOM      7  C   UNL d   1     -39.006  13.663  17.206  0.00  0.00     0.013 A 
ATOM      8  C   UNL d   1     -38.538  13.619  16.526  0.00  0.00     0.001 A 
ATOM      9  C   UNL d   1     -38.415  14.286  16.058  0.00  0.00     0.000 A 
ATOM     10  C   UNL d   1     -38.759  15.005  16.264  0.00  0.00     0.001 A 
ATOM     11  C   UNL d   1     -37.942  14.232  15.377  0.00  0.00     0.000 C 
ATOM     12  C   UNL d   1     -39.229  15.058  16.943  0.00  0.00     0.013 A 
ENDBRANCH   3   6
ENDBRANCH   1   3
BRANCH   1  13
ATOM     13  C   UNL d   1     -39.626  15.154  19.306  0.00  0.00     0.154 C 
BRANCH  13  14
ATOM     14  C   UNL d   1     -39.372  15.175  20.091  0.00  0.00     0.298 C 
ATOM     15  N   UNL d   1     -39.288  15.893  20.486  0.00  0.00    -0.207 NA
ATOM     16  O   UNL d   1     -39.202  14.467  20.479  0.00  0.00    -0.264 OA
BRANCH  15  17
ATOM     17  C   UNL d   1     -39.033  15.902  21.269  0.00  0.00     0.088 A 
ATOM     18  C   UNL d   1     -39.587  15.912  21.874  0.00  0.00     0.040 A 
ATOM     19  C   UNL d   1     -39.332  15.921  22.658  0.00  0.00     0.101 A 
ATOM     20  N   UNL d   1     -38.526  15.919  22.826  0.00  0.00    -0.242 NA
ATOM     21  C   UNL d   1     -37.976  15.908  22.213  0.00  0.00     0.101 A 
ATOM     22  C   UNL d   1     -38.233  15.899  21.433  0.00  0.00     0.040 A 
ENDBRANCH  15  17
ENDBRANCH  13  14
ENDBRANCH   1  13
TORSDOF 5
ENDMDL
