MODEL 1
REMARK VINA RESULT:      -5.6      0.000      0.000
REMARK  3 active torsions:
REMARK  status: ('A' for Active; 'I' for Inactive)
REMARK    1  A    between atoms: N_2  and  S_1 
REMARK    2  A    between atoms: C_3  and  S_1 
REMARK    3  A    between atoms: C_11  and  C_6 
ROOT
ATOM      1  C   UNL d   1     -41.511-122.619 -52.495  0.00  0.00     0.104 A 
ATOM      2  C   UNL d   1     -41.290-122.904 -50.875  0.00  0.00     0.000 A 
ATOM      3  C   UNL d   1     -41.571-122.001 -51.953  0.00  0.00     0.013 A 
ATOM      4  C   UNL d   1     -41.341-123.380 -52.227  0.00  0.00     0.013 A 
ATOM      5  C   UNL d   1     -41.230-123.522 -51.420  0.00  0.00     0.001 A 
ATOM      6  C   UNL d   1     -41.461-122.143 -51.146  0.00  0.00     0.001 A 
ENDROOT
BRANCH   1   7
ATOM      7  S   UNL d   1     -41.621-122.478 -53.298  0.00  0.00     0.271 S 
ATOM      8  O   UNL d   1     -41.358-121.706 -53.199  0.00  0.00    -0.200 OA
ATOM      9  O   UNL d   1     -41.888-123.261 -53.400  0.00  0.00    -0.200 OA
BRANCH   7  10
ATOM     10  N   UNL d   1     -41.731-122.337 -54.104  0.00  0.00    -0.229 N 
ATOM     11  C   UNL d   1     -41.138-122.506 -54.628  0.00  0.00     0.092 A 
ATOM     12  C   UNL d   1     -41.250-122.361 -55.451  0.00  0.00     0.020 A 
ATOM     13  C   UNL d   1     -41.951-122.053 -55.721  0.00  0.00     0.003 A 
ATOM     14  C   UNL d   1     -42.554-121.882 -55.179  0.00  0.00     0.020 A 
ATOM     15  C   UNL d   1     -42.447-122.020 -54.394  0.00  0.00     0.092 A 
ENDBRANCH   7  10
ENDBRANCH   1   7
BRANCH   2  16
ATOM     16  C   UNL d   1     -41.181-123.045 -50.074  0.00  0.00     0.000 C 
ATOM     17  C   UNL d   1     -41.129-122.414 -49.551  0.00  0.00     0.000 C 
ATOM     18  C   UNL d   1     -41.123-123.817 -49.791  0.00  0.00     0.000 C 
ENDBRANCH   2  16
TORSDOF 3
ENDMDL
MODEL 2
REMARK VINA RESULT:      -5.1      1.788      2.682
REMARK  3 active torsions:
REMARK  status: ('A' for Active; 'I' for Inactive)
REMARK    1  A    between atoms: N_2  and  S_1 
REMARK    2  A    between atoms: C_3  and  S_1 
REMARK    3  A    between atoms: C_11  and  C_6 
ROOT
ATOM      1  C   UNL d   1     -41.749-123.065 -50.047  0.00  0.00     0.104 A 
ATOM      2  C   UNL d   1     -42.060-123.248 -48.426  0.00  0.00     0.000 A 
ATOM      3  C   UNL d   1     -42.434-122.747 -49.717  0.00  0.00     0.013 A 
ATOM      4  C   UNL d   1     -41.219-123.474 -49.566  0.00  0.00     0.013 A 
ATOM      5  C   UNL d   1     -41.374-123.565 -48.759  0.00  0.00     0.001 A 
ATOM      6  C   UNL d   1     -42.589-122.838 -48.910  0.00  0.00     0.001 A 
ENDROOT
BRANCH   1   7
ATOM      7  S   UNL d   1     -41.595-122.974 -50.850  0.00  0.00     0.271 S 
ATOM      8  O   UNL d   1     -42.061-123.631 -51.014  0.00  0.00    -0.200 OA
ATOM      9  O   UNL d   1     -41.123-122.308 -50.684  0.00  0.00    -0.200 OA
BRANCH   7  10
ATOM     10  N   UNL d   1     -41.441-122.883 -51.655  0.00  0.00    -0.229 N 
ATOM     11  C   UNL d   1     -41.283-123.532 -52.112  0.00  0.00     0.092 A 
ATOM     12  C   UNL d   1     -41.125-123.439 -52.935  0.00  0.00     0.020 A 
ATOM     13  C   UNL d   1     -41.131-122.700 -53.273  0.00  0.00     0.003 A 
ATOM     14  C   UNL d   1     -41.293-122.040 -52.799  0.00  0.00     0.020 A 
ATOM     15  C   UNL d   1     -41.443-122.129 -52.014  0.00  0.00     0.092 A 
ENDBRANCH   7  10
ENDBRANCH   1   7
BRANCH   2  16
ATOM     16  C   UNL d   1     -42.213-123.338 -47.626  0.00  0.00     0.000 C 
ATOM     17  C   UNL d   1     -41.717-122.990 -47.072  0.00  0.00     0.000 C 
ATOM     18  C   UNL d   1     -42.864-123.777 -47.373  0.00  0.00     0.000 C 
ENDBRANCH   2  16
TORSDOF 3
ENDMDL
MODEL 3
REMARK VINA RESULT:      -5.0      0.990      4.041
REMARK  3 active torsions:
REMARK  status: ('A' for Active; 'I' for Inactive)
REMARK    1  A    between atoms: N_2  and  S_1 
REMARK    2  A    between atoms: C_3  and  S_1 
REMARK    3  A    between atoms: C_11  and  C_6 
ROOT
ATOM      1  C   UNL d   1     -41.600-122.609 -52.975  0.00  0.00     0.104 A 
ATOM      2  C   UNL d   1     -41.838-122.309 -54.591  0.00  0.00     0.000 A 
ATOM      3  C   UNL d   1     -41.177-123.031 -53.543  0.00  0.00     0.013 A 
ATOM      4  C   UNL d   1     -42.143-122.037 -53.216  0.00  0.00     0.013 A 
ATOM      5  C   UNL d   1     -42.261-121.888 -54.021  0.00  0.00     0.001 A 
ATOM      6  C   UNL d   1     -41.295-122.881 -54.347  0.00  0.00     0.001 A 
ENDROOT
BRANCH   1   7
ATOM      7  S   UNL d   1     -41.483-122.758 -52.175  0.00  0.00     0.271 S 
ATOM      8  O   UNL d   1     -41.838-123.494 -52.259  0.00  0.00    -0.200 OA
ATOM      9  O   UNL d   1     -41.122-122.012 -52.089  0.00  0.00    -0.200 OA
BRANCH   7  10
ATOM     10  N   UNL d   1     -41.365-122.907 -51.372  0.00  0.00    -0.229 N 
ATOM     11  C   UNL d   1     -41.243-123.665 -51.115  0.00  0.00     0.092 A 
ATOM     12  C   UNL d   1     -41.123-123.817 -50.295  0.00  0.00     0.020 A 
ATOM     13  C   UNL d   1     -41.128-123.207 -49.759  0.00  0.00     0.003 A 
ATOM     14  C   UNL d   1     -41.253-122.434 -50.029  0.00  0.00     0.020 A 
ATOM     15  C   UNL d   1     -41.368-122.288 -50.811  0.00  0.00     0.092 A 
ENDBRANCH   7  10
ENDBRANCH   1   7
BRANCH   2  16
ATOM     16  C   UNL d   1     -41.955-122.161 -55.389  0.00  0.00     0.000 C 
ATOM     17  C   UNL d   1     -42.703-122.250 -55.716  0.00  0.00     0.000 C 
ATOM     18  C   UNL d   1     -41.325-121.922 -55.865  0.00  0.00     0.000 C 
ENDBRANCH   2  16
TORSDOF 3
ENDMDL
