MODEL 1
REMARK VINA RESULT:       1.9      0.000      0.000
REMARK  7 active torsions:
REMARK  status: ('A' for Active; 'I' for Inactive)
REMARK    1  A    between atoms: N_3  and  C_1 
REMARK       I    between atoms: C_7  and  N_3 
REMARK    2  A    between atoms: C_11  and  N_3 
REMARK    3  A    between atoms: S_5  and  C_10 
REMARK    4  A    between atoms: C_14  and  S_5 
REMARK    5  A    between atoms: C_9  and  C_7 
REMARK    6  A    between atoms: C_10  and  C_9 
REMARK    7  A    between atoms: C_18  and  C_11 
ROOT
ATOM      1  N   UNL d   1      31.914  18.106 -23.891  0.00  0.00    -0.253 N 
ATOM      2  C   UNL d   1      32.037  18.639 -23.255  0.00  0.00     0.267 C 
ATOM      3  O   UNL d   1      31.391  18.920 -22.833  0.00  0.00    -0.267 OA
ENDROOT
BRANCH   1   4
ATOM      4  C   UNL d   1      31.148  17.872 -24.084  0.00  0.00     0.182 A 
ATOM      5  N   UNL d   1      30.765  17.181 -23.826  0.00  0.00    -0.219 NA
ATOM      6  C   UNL d   1      30.003  17.169 -24.155  0.00  0.00     0.117 A 
ATOM      7  C   UNL d   1      29.399  16.624 -24.084  0.00  0.00     0.158 A 
ATOM      8  C   UNL d   1      29.913  17.844 -24.610  0.00  0.00     0.052 A 
ATOM      9  F   UNL d   1      29.485  15.949 -23.630  0.00  0.00    -0.203 F 
ATOM     10  C   UNL d   1      28.695  16.758 -24.477  0.00  0.00     0.031 A 
ATOM     11  C   UNL d   1      28.596  17.435 -24.939  0.00  0.00     0.003 A 
ATOM     12  C   UNL d   1      29.210  17.979 -25.003  0.00  0.00     0.008 A 
ATOM     13  S   UNL d   1      30.615  18.282 -24.572  0.00  0.00    -0.048 SA
ENDBRANCH   1   4
BRANCH   1  14
ATOM     14  C   UNL d   1      32.556  17.820 -24.319  0.00  0.00     0.086 C 
BRANCH  14  15
ATOM     15  C   UNL d   1      32.785  17.031 -24.242  0.00  0.00     0.037 A 
ATOM     16  C   UNL d   1      32.952  16.720 -23.499  0.00  0.00     0.100 A 
ATOM     17  N   UNL d   1      33.180  15.931 -23.422  0.00  0.00    -0.242 NA
ATOM     18  C   UNL d   1      33.241  15.453 -24.089  0.00  0.00     0.099 A 
ATOM     19  C   UNL d   1      33.073  15.762 -24.837  0.00  0.00     0.021 A 
ATOM     20  C   UNL d   1      32.845  16.551 -24.914  0.00  0.00     0.005 A 
ENDBRANCH  14  15
ENDBRANCH   1  14
BRANCH   2  21
ATOM     21  C   UNL d   1      32.800  18.871 -23.065  0.00  0.00     0.073 C 
BRANCH  21  22
ATOM     22  C   UNL d   1      32.962  19.155 -22.303  0.00  0.00     0.104 C 
BRANCH  22  23
ATOM     23  S   UNL d   1      33.028  19.970 -22.172  0.00  0.00     0.211 S 
ATOM     24  O   UNL d   1      33.240  20.085 -22.975  0.00  0.00    -0.217 OA
ATOM     25  O   UNL d   1      32.817  19.857 -21.374  0.00  0.00    -0.217 OA
BRANCH  23  26
ATOM     26  C   UNL d   1      33.095  20.787 -22.043  0.00  0.00     0.088 A 
ATOM     27  C   UNL d   1      33.104  21.081 -21.272  0.00  0.00     0.011 A 
ATOM     28  C   UNL d   1      33.170  21.890 -21.139  0.00  0.00     0.001 A 
ATOM     29  C   UNL d   1      33.227  22.407 -21.778  0.00  0.00     0.000 A 
ATOM     30  C   UNL d   1      33.219  22.120 -22.542  0.00  0.00     0.001 A 
ATOM     31  C   UNL d   1      33.152  21.307 -22.683  0.00  0.00     0.011 A 
ENDBRANCH  23  26
ENDBRANCH  22  23
ENDBRANCH  21  22
ENDBRANCH   2  21
TORSDOF 7
ENDMDL
MODEL 2
REMARK VINA RESULT:       2.9      1.565      4.784
REMARK  7 active torsions:
REMARK  status: ('A' for Active; 'I' for Inactive)
REMARK    1  A    between atoms: N_3  and  C_1 
REMARK       I    between atoms: C_7  and  N_3 
REMARK    2  A    between atoms: C_11  and  N_3 
REMARK    3  A    between atoms: S_5  and  C_10 
REMARK    4  A    between atoms: C_14  and  S_5 
REMARK    5  A    between atoms: C_9  and  C_7 
REMARK    6  A    between atoms: C_10  and  C_9 
REMARK    7  A    between atoms: C_18  and  C_11 
ROOT
ATOM      1  N   UNL d   1      31.949  18.486 -23.772  0.00  0.00    -0.253 N 
ATOM      2  C   UNL d   1      31.146  18.262 -23.687  0.00  0.00     0.267 C 
ATOM      3  O   UNL d   1      30.656  18.694 -23.187  0.00  0.00    -0.267 OA
ENDROOT
BRANCH   1   4
ATOM      4  C   UNL d   1      32.237  19.136 -23.356  0.00  0.00     0.182 A 
ATOM      5  N   UNL d   1      32.312  19.198 -22.531  0.00  0.00    -0.219 NA
ATOM      6  C   UNL d   1      32.626  19.945 -22.354  0.00  0.00     0.117 A 
ATOM      7  C   UNL d   1      32.810  20.293 -21.638  0.00  0.00     0.158 A 
ATOM      8  C   UNL d   1      32.745  20.343 -23.060  0.00  0.00     0.052 A 
ATOM      9  F   UNL d   1      32.692  19.899 -20.931  0.00  0.00    -0.203 F 
ATOM     10  C   UNL d   1      33.117  21.049 -21.631  0.00  0.00     0.031 A 
ATOM     11  C   UNL d   1      33.240  21.458 -22.338  0.00  0.00     0.003 A 
ATOM     12  C   UNL d   1      33.052  21.100 -23.054  0.00  0.00     0.008 A 
ATOM     13  S   UNL d   1      32.507  19.850 -23.682  0.00  0.00    -0.048 SA
ENDBRANCH   1   4
BRANCH   1  14
ATOM     14  C   UNL d   1      32.445  18.058 -24.270  0.00  0.00     0.086 C 
BRANCH  14  15
ATOM     15  C   UNL d   1      32.710  17.310 -24.046  0.00  0.00     0.037 A 
ATOM     16  C   UNL d   1      32.738  17.104 -23.249  0.00  0.00     0.100 A 
ATOM     17  N   UNL d   1      33.004  16.355 -23.024  0.00  0.00    -0.242 NA
ATOM     18  C   UNL d   1      33.241  15.813 -23.596  0.00  0.00     0.099 A 
ATOM     19  C   UNL d   1      33.214  16.018 -24.397  0.00  0.00     0.021 A 
ATOM     20  C   UNL d   1      32.949  16.766 -24.622  0.00  0.00     0.005 A 
ENDBRANCH  14  15
ENDBRANCH   1  14
BRANCH   2  21
ATOM     21  C   UNL d   1      30.861  17.615 -24.102  0.00  0.00     0.073 C 
BRANCH  21  22
ATOM     22  C   UNL d   1      30.151  17.682 -24.525  0.00  0.00     0.104 C 
BRANCH  22  23
ATOM     23  S   UNL d   1      29.545  17.131 -24.406  0.00  0.00     0.211 S 
ATOM     24  O   UNL d   1      30.031  16.524 -24.720  0.00  0.00    -0.217 OA
ATOM     25  O   UNL d   1      29.062  17.733 -24.093  0.00  0.00    -0.217 OA
BRANCH  23  26
ATOM     26  C   UNL d   1      28.939  16.576 -24.287  0.00  0.00     0.088 A 
ATOM     27  C   UNL d   1      28.753  16.039 -24.884  0.00  0.00     0.011 A 
ATOM     28  C   UNL d   1      28.153  15.487 -24.772  0.00  0.00     0.001 A 
ATOM     29  C   UNL d   1      27.738  15.473 -24.060  0.00  0.00     0.000 A 
ATOM     30  C   UNL d   1      27.919  16.003 -23.466  0.00  0.00     0.001 A 
ATOM     31  C   UNL d   1      28.522  16.561 -23.574  0.00  0.00     0.011 A 
ENDBRANCH  23  26
ENDBRANCH  22  23
ENDBRANCH  21  22
ENDBRANCH   2  21
TORSDOF 7
ENDMDL
MODEL 3
REMARK VINA RESULT:       4.3      1.176      2.654
REMARK  7 active torsions:
REMARK  status: ('A' for Active; 'I' for Inactive)
REMARK    1  A    between atoms: N_3  and  C_1 
REMARK       I    between atoms: C_7  and  N_3 
REMARK    2  A    between atoms: C_11  and  N_3 
REMARK    3  A    between atoms: S_5  and  C_10 
REMARK    4  A    between atoms: C_14  and  S_5 
REMARK    5  A    between atoms: C_9  and  C_7 
REMARK    6  A    between atoms: C_10  and  C_9 
REMARK    7  A    between atoms: C_18  and  C_11 
ROOT
ATOM      1  N   UNL d   1      32.127  18.843 -23.590  0.00  0.00    -0.253 N 
ATOM      2  C   UNL d   1      32.560  19.152 -22.941  0.00  0.00     0.267 C 
ATOM      3  O   UNL d   1      33.148  18.695 -22.593  0.00  0.00    -0.267 OA
ENDROOT
BRANCH   1   4
ATOM      4  C   UNL d   1      32.296  18.087 -23.869  0.00  0.00     0.182 A 
ATOM      5  N   UNL d   1      31.980  17.374 -23.583  0.00  0.00    -0.219 NA
ATOM      6  C   UNL d   1      32.302  16.751 -24.026  0.00  0.00     0.117 A 
ATOM      7  C   UNL d   1      32.184  15.944 -23.978  0.00  0.00     0.158 A 
ATOM      8  C   UNL d   1      32.813  17.072 -24.580  0.00  0.00     0.052 A 
ATOM      9  F   UNL d   1      31.675  15.620 -23.426  0.00  0.00    -0.203 F 
ATOM     10  C   UNL d   1      32.583  15.453 -24.495  0.00  0.00     0.031 A 
ATOM     11  C   UNL d   1      33.100  15.768 -25.057  0.00  0.00     0.003 A 
ATOM     12  C   UNL d   1      33.212  16.581 -25.097  0.00  0.00     0.008 A 
ATOM     13  S   UNL d   1      32.814  17.896 -24.490  0.00  0.00    -0.048 SA
ENDBRANCH   1   4
BRANCH   1  14
ATOM     14  C   UNL d   1      31.537  19.295 -23.944  0.00  0.00     0.086 C 
BRANCH  14  15
ATOM     15  C   UNL d   1      30.798  18.962 -24.097  0.00  0.00     0.037 A 
ATOM     16  C   UNL d   1      30.353  18.643 -23.483  0.00  0.00     0.100 A 
ATOM     17  N   UNL d   1      29.614  18.309 -23.637  0.00  0.00    -0.242 NA
ATOM     18  C   UNL d   1      29.321  18.294 -24.405  0.00  0.00     0.099 A 
ATOM     19  C   UNL d   1      29.766  18.614 -25.025  0.00  0.00     0.021 A 
ATOM     20  C   UNL d   1      30.504  18.947 -24.871  0.00  0.00     0.005 A 
ENDBRANCH  14  15
ENDBRANCH   1  14
BRANCH   2  21
ATOM     21  C   UNL d   1      32.390  19.905 -22.664  0.00  0.00     0.073 C 
BRANCH  21  22
ATOM     22  C   UNL d   1      32.708  20.155 -21.941  0.00  0.00     0.104 C 
BRANCH  22  23
ATOM     23  S   UNL d   1      32.602  20.937 -21.691  0.00  0.00     0.211 S 
ATOM     24  O   UNL d   1      33.212  21.188 -22.208  0.00  0.00    -0.217 OA
ATOM     25  O   UNL d   1      31.994  20.688 -21.178  0.00  0.00    -0.217 OA
BRANCH  23  26
ATOM     26  C   UNL d   1      32.497  21.722 -21.443  0.00  0.00     0.088 A 
ATOM     27  C   UNL d   1      32.697  22.342 -21.949  0.00  0.00     0.011 A 
ATOM     28  C   UNL d   1      32.595  23.122 -21.707  0.00  0.00     0.001 A 
ATOM     29  C   UNL d   1      32.292  23.282 -20.958  0.00  0.00     0.000 A 
ATOM     30  C   UNL d   1      32.093  22.672 -20.454  0.00  0.00     0.001 A 
ATOM     31  C   UNL d   1      32.193  21.885 -20.692  0.00  0.00     0.011 A 
ENDBRANCH  23  26
ENDBRANCH  22  23
ENDBRANCH  21  22
ENDBRANCH   2  21
TORSDOF 7
ENDMDL
