MODEL 1
REMARK VINA RESULT:      -7.5      0.000      0.000
REMARK  5 active torsions:
REMARK  status: ('A' for Active; 'I' for Inactive)
REMARK    1  A    between atoms: N_8  and  C_1 
REMARK    2  A    between atoms: C_3  and  S_13 
REMARK       I    between atoms: C_12  and  N_8 
REMARK    3  A    between atoms: C_16  and  C_9 
REMARK    4  A    between atoms: C_15  and  C_12 
REMARK    5  A    between atoms: S_13  and  C_15 
ROOT
ATOM      1  C   UNL d   1      50.891  34.144  53.039  0.00  0.00     0.100 C 
ENDROOT
BRANCH   1   2
ATOM      2  S   UNL d   1      51.657  34.066  52.739  0.00  0.00    -0.056 SA
BRANCH   2   3
ATOM      3  C   UNL d   1      52.264  33.851  53.247  0.00  0.00     0.141 A 
ATOM      4  N   UNL d   1      52.639  34.332  53.808  0.00  0.00    -0.232 NA
ATOM      5  C   UNL d   1      53.216  33.891  54.195  0.00  0.00     0.088 A 
ATOM      6  C   UNL d   1      53.757  34.070  54.798  0.00  0.00     0.020 A 
ATOM      7  C   UNL d   1      53.206  33.119  53.873  0.00  0.00     0.049 A 
ATOM      8  C   UNL d   1      54.277  33.493  55.075  0.00  0.00     0.002 A 
ATOM      9  C   UNL d   1      54.262  32.739  54.754  0.00  0.00     0.001 A 
ATOM     10  C   UNL d   1      53.721  32.548  54.147  0.00  0.00     0.008 A 
ATOM     11  S   UNL d   1      52.616  33.101  53.288  0.00  0.00    -0.060 SA
ENDBRANCH   2   3
ENDBRANCH   1   2
BRANCH   1  12
ATOM     12  C   UNL d   1      50.289  34.412  52.546  0.00  0.00     0.288 C 
ATOM     13  N   UNL d   1      49.576  34.672  52.870  0.00  0.00    -0.181 NA
ATOM     14  O   UNL d   1      50.391  34.424  51.732  0.00  0.00    -0.265 OA
BRANCH  13  15
ATOM     15  C   UNL d   1      48.972  34.941  52.386  0.00  0.00     0.219 A 
ATOM     16  S   UNL d   1      48.437  35.538  52.561  0.00  0.00    -0.026 SA
ATOM     17  C   UNL d   1      47.926  35.626  51.919  0.00  0.00     0.135 A 
ATOM     18  N   UNL d   1      48.152  35.076  51.344  0.00  0.00    -0.139 NA
ATOM     19  N   UNL d   1      48.796  34.653  51.632  0.00  0.00    -0.121 NA
BRANCH  17  20
ATOM     20  C   UNL d   1      47.304  36.162  51.855  0.00  0.00     0.028 C 
ATOM     21  C   UNL d   1      46.544  35.879  51.687  0.00  0.00     0.002 C 
ENDBRANCH  17  20
ENDBRANCH  13  15
ENDBRANCH   1  12
TORSDOF 5
ENDMDL
MODEL 2
REMARK VINA RESULT:      -7.1      1.201      5.468
REMARK  5 active torsions:
REMARK  status: ('A' for Active; 'I' for Inactive)
REMARK    1  A    between atoms: N_8  and  C_1 
REMARK    2  A    between atoms: C_3  and  S_13 
REMARK       I    between atoms: C_12  and  N_8 
REMARK    3  A    between atoms: C_16  and  C_9 
REMARK    4  A    between atoms: C_15  and  C_12 
REMARK    5  A    between atoms: S_13  and  C_15 
ROOT
ATOM      1  C   UNL d   1      50.352  34.244  52.947  0.00  0.00     0.100 C 
ENDROOT
BRANCH   1   2
ATOM      2  S   UNL d   1      49.947  34.587  52.312  0.00  0.00    -0.056 SA
BRANCH   2   3
ATOM      3  C   UNL d   1      49.274  35.031  52.463  0.00  0.00     0.141 A 
ATOM      4  N   UNL d   1      49.108  35.469  53.146  0.00  0.00    -0.232 NA
ATOM      5  C   UNL d   1      48.372  35.828  53.062  0.00  0.00     0.088 A 
ATOM      6  C   UNL d   1      47.923  36.323  53.553  0.00  0.00     0.020 A 
ATOM      7  C   UNL d   1      48.069  35.612  52.313  0.00  0.00     0.049 A 
ATOM      8  C   UNL d   1      47.187  36.599  53.305  0.00  0.00     0.002 A 
ATOM      9  C   UNL d   1      46.895  36.383  52.569  0.00  0.00     0.001 A 
ATOM     10  C   UNL d   1      47.339  35.885  52.067  0.00  0.00     0.008 A 
ATOM     11  S   UNL d   1      48.630  35.120  51.948  0.00  0.00    -0.060 SA
ENDBRANCH   2   3
ENDBRANCH   1   2
BRANCH   1  12
ATOM     12  C   UNL d   1      51.092  33.906  52.818  0.00  0.00     0.288 C 
ATOM     13  N   UNL d   1      51.405  33.378  53.369  0.00  0.00    -0.181 NA
ATOM     14  O   UNL d   1      51.523  34.091  52.145  0.00  0.00    -0.265 OA
BRANCH  13  15
ATOM     15  C   UNL d   1      52.141  33.038  53.248  0.00  0.00     0.219 A 
ATOM     16  S   UNL d   1      52.842  33.249  53.620  0.00  0.00    -0.026 SA
ATOM     17  C   UNL d   1      53.444  32.763  53.333  0.00  0.00     0.135 A 
ATOM     18  N   UNL d   1      53.108  32.249  52.780  0.00  0.00    -0.139 NA
ATOM     19  N   UNL d   1      52.304  32.418  52.727  0.00  0.00    -0.121 NA
BRANCH  17  20
ATOM     20  C   UNL d   1      54.238  32.782  53.553  0.00  0.00     0.028 C 
ATOM     21  C   UNL d   1      54.439  33.025  54.318  0.00  0.00     0.002 C 
ENDBRANCH  17  20
ENDBRANCH  13  15
ENDBRANCH   1  12
TORSDOF 5
ENDMDL
MODEL 3
REMARK VINA RESULT:      -6.4      1.950      5.584
REMARK  5 active torsions:
REMARK  status: ('A' for Active; 'I' for Inactive)
REMARK    1  A    between atoms: N_8  and  C_1 
REMARK    2  A    between atoms: C_3  and  S_13 
REMARK       I    between atoms: C_12  and  N_8 
REMARK    3  A    between atoms: C_16  and  C_9 
REMARK    4  A    between atoms: C_15  and  C_12 
REMARK    5  A    between atoms: S_13  and  C_15 
ROOT
ATOM      1  C   UNL d   1      51.741  33.477  52.633  0.00  0.00     0.100 C 
ENDROOT
BRANCH   1   2
ATOM      2  S   UNL d   1      51.259  33.977  53.082  0.00  0.00    -0.056 SA
BRANCH   2   3
ATOM      3  C   UNL d   1      50.564  34.261  52.753  0.00  0.00     0.141 A 
ATOM      4  N   UNL d   1      50.300  34.154  51.975  0.00  0.00    -0.232 NA
ATOM      5  C   UNL d   1      49.575  34.533  51.884  0.00  0.00     0.088 A 
ATOM      6  C   UNL d   1      49.055  34.616  51.243  0.00  0.00     0.020 A 
ATOM      7  C   UNL d   1      49.378  34.885  52.616  0.00  0.00     0.049 A 
ATOM      8  C   UNL d   1      48.353  35.040  51.328  0.00  0.00     0.002 A 
ATOM      9  C   UNL d   1      48.166  35.382  52.050  0.00  0.00     0.001 A 
ATOM     10  C   UNL d   1      48.683  35.305  52.702  0.00  0.00     0.008 A 
ATOM     11  S   UNL d   1      49.992  34.713  53.149  0.00  0.00    -0.060 SA
ENDBRANCH   2   3
ENDBRANCH   1   2
BRANCH   1  12
ATOM     12  C   UNL d   1      52.190  32.900  53.012  0.00  0.00     0.288 C 
ATOM     13  N   UNL d   1      52.380  32.201  52.618  0.00  0.00    -0.181 NA
ATOM     14  O   UNL d   1      52.451  33.015  53.781  0.00  0.00    -0.265 OA
BRANCH  13  15
ATOM     15  C   UNL d   1      52.826  31.622  52.989  0.00  0.00     0.219 A 
ATOM     16  S   UNL d   1      52.661  30.818  53.008  0.00  0.00    -0.026 SA
ATOM     17  C   UNL d   1      53.255  30.442  53.441  0.00  0.00     0.135 A 
ATOM     18  N   UNL d   1      53.789  31.022  53.689  0.00  0.00    -0.139 NA
ATOM     19  N   UNL d   1      53.525  31.750  53.410  0.00  0.00    -0.121 NA
BRANCH  17  20
ATOM     20  C   UNL d   1      53.312  29.636  53.600  0.00  0.00     0.028 C 
ATOM     21  C   UNL d   1      53.356  29.382  54.387  0.00  0.00     0.002 C 
ENDBRANCH  17  20
ENDBRANCH  13  15
ENDBRANCH   1  12
TORSDOF 5
ENDMDL
