MODEL 1
REMARK VINA RESULT:      -3.9      0.000      0.000
REMARK  2 active torsions:
REMARK  status: ('A' for Active; 'I' for Inactive)
REMARK    1  A    between atoms: N_2  and  S_1 
REMARK    2  A    between atoms: C_4  and  S_1 
ROOT
ATOM      1  N   UNL d   1      58.381  -0.177  29.826  0.00  0.00    -0.231 N 
ATOM      2  C   UNL d   1      59.157   0.105  29.916  0.00  0.00     0.075 A 
ATOM      3  C   UNL d   1      59.677   0.086  29.285  0.00  0.00     0.017 A 
ATOM      4  C   UNL d   1      58.135  -0.478  29.092  0.00  0.00     0.092 A 
ATOM      5  C   UNL d   1      59.403   0.405  30.650  0.00  0.00     0.018 A 
ATOM      6  C   UNL d   1      58.655  -0.496  28.461  0.00  0.00     0.020 A 
ATOM      7  C   UNL d   1      59.431  -0.214  28.550  0.00  0.00     0.003 A 
ATOM      8  C   UNL d   1      60.453   0.368  29.374  0.00  0.00     0.002 A 
ATOM      9  C   UNL d   1      60.171   0.682  30.733  0.00  0.00     0.002 A 
ATOM     10  C   UNL d   1      60.690   0.664  30.102  0.00  0.00     0.000 A 
ENDROOT
BRANCH   1  11
ATOM     11  S   UNL d   1      57.861  -0.159  30.459  0.00  0.00     0.271 S 
ATOM     12  O   UNL d   1      58.142  -1.144  30.718  0.00  0.00    -0.200 OA
ATOM     13  O   UNL d   1      57.622   0.682  30.237  0.00  0.00    -0.200 OA
BRANCH  11  14
ATOM     14  C   UNL d   1      57.335  -0.141  31.099  0.00  0.00     0.104 A 
ATOM     15  C   UNL d   1      57.103  -0.848  31.454  0.00  0.00     0.014 A 
ATOM     16  C   UNL d   1      56.584  -0.835  32.086  0.00  0.00     0.012 A 
ATOM     17  C   UNL d   1      56.292  -0.120  32.367  0.00  0.00     0.058 A 
ATOM     18  C   UNL d   1      56.524   0.587  32.011  0.00  0.00     0.012 A 
ATOM     19 CL   UNL d   1      55.766  -0.102  33.007  0.00  0.00    -0.082 Cl
ATOM     20  C   UNL d   1      57.051   0.569  31.371  0.00  0.00     0.014 A 
ENDBRANCH  11  14
ENDBRANCH   1  11
TORSDOF 2
ENDMDL
MODEL 2
REMARK VINA RESULT:      -3.7      1.084      1.644
REMARK  2 active torsions:
REMARK  status: ('A' for Active; 'I' for Inactive)
REMARK    1  A    between atoms: N_2  and  S_1 
REMARK    2  A    between atoms: C_4  and  S_1 
ROOT
ATOM      1  N   UNL d   1      58.336  -0.025  29.921  0.00  0.00    -0.231 N 
ATOM      2  C   UNL d   1      58.555  -0.752  29.583  0.00  0.00     0.075 A 
ATOM      3  C   UNL d   1      58.934  -0.770  28.859  0.00  0.00     0.017 A 
ATOM      4  C   UNL d   1      58.503   0.682  29.519  0.00  0.00     0.092 A 
ATOM      5  C   UNL d   1      58.388  -1.459  29.985  0.00  0.00     0.018 A 
ATOM      6  C   UNL d   1      58.882   0.663  28.794  0.00  0.00     0.020 A 
ATOM      7  C   UNL d   1      59.102  -0.063  28.456  0.00  0.00     0.003 A 
ATOM      8  C   UNL d   1      59.154  -1.497  28.520  0.00  0.00     0.002 A 
ATOM      9  C   UNL d   1      58.607  -2.173  29.647  0.00  0.00     0.002 A 
ATOM     10  C   UNL d   1      58.986  -2.192  28.922  0.00  0.00     0.000 A 
ENDROOT
BRANCH   1  11
ATOM     11  S   UNL d   1      57.957  -0.007  30.646  0.00  0.00     0.271 S 
ATOM     12  O   UNL d   1      58.889   0.104  31.131  0.00  0.00    -0.200 OA
ATOM     13  O   UNL d   1      57.161  -0.101  30.232  0.00  0.00    -0.200 OA
BRANCH  11  14
ATOM     14  C   UNL d   1      57.572   0.012  31.380  0.00  0.00     0.104 A 
ATOM     15  C   UNL d   1      57.803   0.567  31.945  0.00  0.00     0.014 A 
ATOM     16  C   UNL d   1      57.427   0.590  32.671  0.00  0.00     0.012 A 
ATOM     17  C   UNL d   1      56.821   0.062  32.840  0.00  0.00     0.058 A 
ATOM     18  C   UNL d   1      56.591  -0.493  32.274  0.00  0.00     0.012 A 
ATOM     19 CL   UNL d   1      56.437   0.081  33.574  0.00  0.00    -0.082 Cl
ATOM     20  C   UNL d   1      56.975  -0.512  31.540  0.00  0.00     0.014 A 
ENDBRANCH  11  14
ENDBRANCH   1  11
TORSDOF 2
ENDMDL
MODEL 3
REMARK VINA RESULT:      -3.2      9.179     10.182
REMARK  2 active torsions:
REMARK  status: ('A' for Active; 'I' for Inactive)
REMARK    1  A    between atoms: N_2  and  S_1 
REMARK    2  A    between atoms: C_4  and  S_1 
ROOT
ATOM      1  N   UNL d   1      59.989  -9.117  34.831  0.00  0.00    -0.231 N 
ATOM      2  C   UNL d   1      59.875  -8.391  35.217  0.00  0.00     0.075 A 
ATOM      3  C   UNL d   1      60.226  -8.253  35.943  0.00  0.00     0.017 A 
ATOM      4  C   UNL d   1      60.460  -9.702  35.184  0.00  0.00     0.092 A 
ATOM      5  C   UNL d   1      59.403  -7.807  34.864  0.00  0.00     0.018 A 
ATOM      6  C   UNL d   1      60.811  -9.563  35.910  0.00  0.00     0.020 A 
ATOM      7  C   UNL d   1      60.698  -8.837  36.297  0.00  0.00     0.003 A 
ATOM      8  C   UNL d   1      60.113  -7.526  36.330  0.00  0.00     0.002 A 
ATOM      9  C   UNL d   1      59.294  -7.091  35.250  0.00  0.00     0.002 A 
ATOM     10  C   UNL d   1      59.646  -6.953  35.975  0.00  0.00     0.000 A 
ENDROOT
BRANCH   1  11
ATOM     11  S   UNL d   1      59.637  -9.256  34.104  0.00  0.00     0.271 S 
ATOM     12  O   UNL d   1      60.486  -8.858  33.617  0.00  0.00    -0.200 OA
ATOM     13  O   UNL d   1      58.912  -9.596  34.520  0.00  0.00    -0.200 OA
BRANCH  11  14
ATOM     14  C   UNL d   1      59.281  -9.397  33.369  0.00  0.00     0.104 A 
ATOM     15  C   UNL d   1      58.463  -9.497  33.326  0.00  0.00     0.014 A 
ATOM     16  C   UNL d   1      58.108  -9.636  32.603  0.00  0.00     0.012 A 
ATOM     17  C   UNL d   1      58.562  -9.676  31.919  0.00  0.00     0.058 A 
ATOM     18  C   UNL d   1      59.380  -9.575  31.963  0.00  0.00     0.012 A 
ATOM     19 CL   UNL d   1      58.206  -9.816  31.184  0.00  0.00    -0.082 Cl
ATOM     20  C   UNL d   1      59.736  -9.435  32.698  0.00  0.00     0.014 A 
ENDBRANCH  11  14
ENDBRANCH   1  11
TORSDOF 2
ENDMDL
MODEL 4
REMARK VINA RESULT:      -0.9      1.867      2.536
REMARK  2 active torsions:
REMARK  status: ('A' for Active; 'I' for Inactive)
REMARK    1  A    between atoms: N_2  and  S_1 
REMARK    2  A    between atoms: C_4  and  S_1 
ROOT
ATOM      1  N   UNL d   1      59.698  -1.186  29.304  0.00  0.00    -0.231 N 
ATOM      2  C   UNL d   1      59.627  -1.980  29.072  0.00  0.00     0.075 A 
ATOM      3  C   UNL d   1      60.247  -2.352  28.690  0.00  0.00     0.017 A 
ATOM      4  C   UNL d   1      60.400  -0.772  29.147  0.00  0.00     0.092 A 
ATOM      5  C   UNL d   1      58.925  -2.394  29.229  0.00  0.00     0.018 A 
ATOM      6  C   UNL d   1      61.020  -1.144  28.765  0.00  0.00     0.020 A 
ATOM      7  C   UNL d   1      60.950  -1.939  28.532  0.00  0.00     0.003 A 
ATOM      8  C   UNL d   1      60.177  -3.147  28.457  0.00  0.00     0.002 A 
ATOM      9  C   UNL d   1      58.861  -3.178  28.998  0.00  0.00     0.002 A 
ATOM     10  C   UNL d   1      59.481  -3.550  28.615  0.00  0.00     0.000 A 
ENDROOT
BRANCH   1  11
ATOM     11  S   UNL d   1      59.077  -0.812  29.687  0.00  0.00     0.271 S 
ATOM     12  O   UNL d   1      59.695  -0.649  30.529  0.00  0.00    -0.200 OA
ATOM     13  O   UNL d   1      58.550  -0.952  28.969  0.00  0.00    -0.200 OA
BRANCH  11  14
ATOM     14  C   UNL d   1      58.449  -0.435  30.075  0.00  0.00     0.104 A 
ATOM     15  C   UNL d   1      58.260  -0.652  30.848  0.00  0.00     0.014 A 
ATOM     16  C   UNL d   1      57.641  -0.282  31.234  0.00  0.00     0.012 A 
ATOM     17  C   UNL d   1      57.208   0.304  30.855  0.00  0.00     0.058 A 
ATOM     18  C   UNL d   1      57.398   0.521  30.082  0.00  0.00     0.012 A 
ATOM     19 CL   UNL d   1      56.580   0.682  31.243  0.00  0.00    -0.082 Cl
ATOM     20  C   UNL d   1      58.026   0.143  29.694  0.00  0.00     0.014 A 
ENDBRANCH  11  14
ENDBRANCH   1  11
TORSDOF 2
ENDMDL
