MODEL 1
REMARK VINA RESULT:      51.2      0.000      0.000
REMARK  3 active torsions:
REMARK  status: ('A' for Active; 'I' for Inactive)
REMARK    1  A    between atoms: N_7  and  N_1 
REMARK    2  A    between atoms: N_2  and  N_8 
REMARK       I    between atoms: C_3  and  N_7 
REMARK    3  A    between atoms: C_4  and  C_3 
REMARK       I    between atoms: N_8  and  C_4 
ROOT
ATOM      1  C   UNL d   1     -52.410  26.594  33.661  0.00  0.00     0.355 C 
ATOM      2  N   UNL d   1     -51.836  27.083  33.952  0.00  0.00    -0.115 NA
ATOM      3  O   UNL d   1     -53.072  26.905  33.307  0.00  0.00    -0.258 OA
ENDROOT
BRANCH   1   4
ATOM      4  C   UNL d   1     -52.320  25.777  33.726  0.00  0.00     0.355 C 
ATOM      5  N   UNL d   1     -52.858  25.294  33.332  0.00  0.00    -0.115 NA
ATOM      6  O   UNL d   1     -51.900  25.565  34.032  0.00  0.00    -0.258 OA
BRANCH   5   7
ATOM      7  N   UNL d   1     -52.796  24.456  33.376  0.00  0.00    -0.175 N 
ATOM      8  C   UNL d   1     -53.455  24.024  33.436  0.00  0.00     0.170 A 
ATOM      9  S   UNL d   1     -53.196  23.190  33.469  0.00  0.00    -0.051 SA
ATOM     10  S   UNL d   1     -54.240  24.347  33.461  0.00  0.00    -0.050 SA
ATOM     11  C   UNL d   1     -52.364  23.210  33.422  0.00  0.00     0.100 A 
ATOM     12  C   UNL d   1     -52.134  24.003  33.365  0.00  0.00     0.288 A 
ATOM     13  O   UNL d   1     -51.346  24.293  33.306  0.00  0.00    -0.265 OA
ENDBRANCH   5   7
ENDBRANCH   1   4
BRANCH   2  14
ATOM     14  N   UNL d   1     -51.120  26.821  34.333  0.00  0.00    -0.175 N 
ATOM     15  C   UNL d   1     -50.344  26.950  34.120  0.00  0.00     0.170 A 
ATOM     16  S   UNL d   1     -49.902  26.573  34.682  0.00  0.00    -0.051 SA
ATOM     17  S   UNL d   1     -50.070  27.389  33.447  0.00  0.00    -0.050 SA
ATOM     18  C   UNL d   1     -50.353  26.222  35.226  0.00  0.00     0.100 A 
ATOM     19  C   UNL d   1     -51.121  26.354  35.043  0.00  0.00     0.288 A 
ATOM     20  O   UNL d   1     -51.520  26.215  35.263  0.00  0.00    -0.265 OA
ENDBRANCH   2  14
TORSDOF 3
ENDMDL
MODEL 2
REMARK VINA RESULT:      53.4      5.981      7.823
REMARK  3 active torsions:
REMARK  status: ('A' for Active; 'I' for Inactive)
REMARK    1  A    between atoms: N_7  and  N_1 
REMARK    2  A    between atoms: N_2  and  N_8 
REMARK       I    between atoms: C_3  and  N_7 
REMARK    3  A    between atoms: C_4  and  C_3 
REMARK       I    between atoms: N_8  and  C_4 
ROOT
ATOM      1  C   UNL d   1     -46.907  31.138  36.066  0.00  0.00     0.355 C 
ATOM      2  N   UNL d   1     -46.899  30.350  36.247  0.00  0.00    -0.115 NA
ATOM      3  O   UNL d   1     -46.499  31.668  36.528  0.00  0.00    -0.258 OA
ENDROOT
BRANCH   1   4
ATOM      4  C   UNL d   1     -47.331  31.401  35.410  0.00  0.00     0.355 C 
ATOM      5  N   UNL d   1     -47.267  32.195  35.199  0.00  0.00    -0.115 NA
ATOM      6  O   UNL d   1     -47.652  31.043  35.122  0.00  0.00    -0.258 OA
BRANCH   5   7
ATOM      7  N   UNL d   1     -47.687  32.498  34.535  0.00  0.00    -0.175 N 
ATOM      8  C   UNL d   1     -47.286  32.686  33.881  0.00  0.00     0.170 A 
ATOM      9  S   UNL d   1     -47.880  32.979  33.309  0.00  0.00    -0.051 SA
ATOM     10  S   UNL d   1     -46.445  32.604  33.792  0.00  0.00    -0.050 SA
ATOM     11  C   UNL d   1     -48.613  32.933  33.702  0.00  0.00     0.100 A 
ATOM     12  C   UNL d   1     -48.474  32.633  34.461  0.00  0.00     0.288 A 
ATOM     13  O   UNL d   1     -49.051  32.491  35.057  0.00  0.00    -0.265 OA
ENDBRANCH   5   7
ENDBRANCH   1   4
BRANCH   2  14
ATOM     14  N   UNL d   1     -47.304  29.745  35.804  0.00  0.00    -0.175 N 
ATOM     15  C   UNL d   1     -47.039  29.299  35.176  0.00  0.00     0.170 A 
ATOM     16  S   UNL d   1     -47.657  28.816  34.980  0.00  0.00    -0.051 SA
ATOM     17  S   UNL d   1     -46.272  29.340  34.813  0.00  0.00    -0.050 SA
ATOM     18  C   UNL d   1     -48.284  28.936  35.444  0.00  0.00     0.100 A 
ATOM     19  C   UNL d   1     -48.103  29.509  35.972  0.00  0.00     0.288 A 
ATOM     20  O   UNL d   1     -48.364  29.702  36.321  0.00  0.00    -0.265 OA
ENDBRANCH   2  14
TORSDOF 3
ENDMDL
MODEL 3
REMARK VINA RESULT:      54.1      6.204      7.546
REMARK  3 active torsions:
REMARK  status: ('A' for Active; 'I' for Inactive)
REMARK    1  A    between atoms: N_7  and  N_1 
REMARK    2  A    between atoms: N_2  and  N_8 
REMARK       I    between atoms: C_3  and  N_7 
REMARK    3  A    between atoms: C_4  and  C_3 
REMARK       I    between atoms: N_8  and  C_4 
ROOT
ATOM      1  C   UNL d   1     -46.927  32.063  35.592  0.00  0.00     0.355 C 
ATOM      2  N   UNL d   1     -47.105  32.714  35.147  0.00  0.00    -0.115 NA
ATOM      3  O   UNL d   1     -46.413  32.124  36.219  0.00  0.00    -0.258 OA
ENDROOT
BRANCH   1   4
ATOM      4  C   UNL d   1     -47.269  31.336  35.405  0.00  0.00     0.355 C 
ATOM      5  N   UNL d   1     -47.010  30.670  35.814  0.00  0.00    -0.115 NA
ATOM      6  O   UNL d   1     -47.665  31.307  35.010  0.00  0.00    -0.258 OA
BRANCH   5   7
ATOM      7  N   UNL d   1     -47.337  29.911  35.650  0.00  0.00    -0.175 N 
ATOM      8  C   UNL d   1     -47.818  29.577  36.180  0.00  0.00     0.170 A 
ATOM      9  S   UNL d   1     -48.054  28.807  35.841  0.00  0.00    -0.051 SA
ATOM     10  S   UNL d   1     -48.037  29.931  36.920  0.00  0.00    -0.050 SA
ATOM     11  C   UNL d   1     -47.669  28.757  35.103  0.00  0.00     0.100 A 
ATOM     12  C   UNL d   1     -47.229  29.451  35.002  0.00  0.00     0.288 A 
ATOM     13  O   UNL d   1     -46.750  29.647  34.339  0.00  0.00    -0.265 OA
ENDBRANCH   5   7
ENDBRANCH   1   4
BRANCH   2  14
ATOM     14  N   UNL d   1     -47.634  32.717  34.478  0.00  0.00    -0.175 N 
ATOM     15  C   UNL d   1     -47.461  32.701  33.682  0.00  0.00     0.170 A 
ATOM     16  S   UNL d   1     -48.177  32.713  33.307  0.00  0.00    -0.051 SA
ATOM     17  S   UNL d   1     -46.687  32.677  33.332  0.00  0.00    -0.050 SA
ATOM     18  C   UNL d   1     -48.777  32.735  33.818  0.00  0.00     0.100 A 
ATOM     19  C   UNL d   1     -48.479  32.738  34.560  0.00  0.00     0.288 A 
ATOM     20  O   UNL d   1     -48.700  32.750  34.983  0.00  0.00    -0.265 OA
ENDBRANCH   2  14
TORSDOF 3
ENDMDL
