MODEL 1
REMARK VINA RESULT:      -3.1      0.000      0.000
REMARK  1 active torsions:
REMARK  status: ('A' for Active; 'I' for Inactive)
REMARK       I    between atoms: N_2  and  C_1 
REMARK       I    between atoms: N_3  and  C_1 
REMARK    1  A    between atoms: C_4  and  N_2 
ROOT
ATOM      1  C   UNL d   1      33.005  21.371 -21.307  0.00  0.00     0.086 A 
ATOM      2  C   UNL d   1      32.718  22.148 -21.300  0.00  0.00     0.018 A 
ATOM      3  C   UNL d   1      32.665  22.565 -20.592  0.00  0.00     0.002 A 
ATOM      4  C   UNL d   1      33.241  21.009 -20.606  0.00  0.00     0.019 A 
ATOM      5  C   UNL d   1      33.189  21.426 -19.898  0.00  0.00     0.002 A 
ATOM      6  C   UNL d   1      32.481  22.510 -22.010  0.00  0.00     0.002 A 
ATOM      7  C   UNL d   1      32.901  22.203 -19.891  0.00  0.00     0.000 A 
ATOM      8  C   UNL d   1      32.377  23.337 -20.602  0.00  0.00     0.000 A 
ATOM      9  C   UNL d   1      32.195  23.283 -22.002  0.00  0.00     0.000 A 
ATOM     10  C   UNL d   1      32.142  23.697 -21.303  0.00  0.00     0.000 A 
ENDROOT
BRANCH   1  11
ATOM     11  N   UNL d   1      33.062  20.942 -22.015  0.00  0.00    -0.192 NA
ATOM     12  C   UNL d   1      33.007  20.116 -22.019  0.00  0.00     0.354 C 
ATOM     13  N   UNL d   1      33.066  19.715 -22.730  0.00  0.00    -0.252 N 
ATOM     14  O   UNL d   1      32.892  19.704 -21.297  0.00  0.00    -0.244 OA
ATOM     15  C   UNL d   1      33.010  18.871 -22.735  0.00  0.00     0.111 A 
ATOM     16  C   UNL d   1      33.180  20.140 -23.431  0.00  0.00     0.111 A 
ATOM     17  C   UNL d   1      33.071  18.473 -23.467  0.00  0.00     0.142 A 
ATOM     18  O   UNL d   1      33.189  18.913 -24.189  0.00  0.00    -0.300 OA
ATOM     19  C   UNL d   1      33.241  19.730 -24.166  0.00  0.00     0.142 A 
ENDBRANCH   1  11
TORSDOF 1
ENDMDL
MODEL 2
REMARK VINA RESULT:      -2.9      4.521      5.867
REMARK  1 active torsions:
REMARK  status: ('A' for Active; 'I' for Inactive)
REMARK       I    between atoms: N_2  and  C_1 
REMARK       I    between atoms: N_3  and  C_1 
REMARK    1  A    between atoms: C_4  and  N_2 
ROOT
ATOM      1  C   UNL d   1      31.596  16.395 -23.895  0.00  0.00     0.086 A 
ATOM      2  C   UNL d   1      32.018  17.092 -24.040  0.00  0.00     0.018 A 
ATOM      3  C   UNL d   1      32.831  17.121 -23.906  0.00  0.00     0.002 A 
ATOM      4  C   UNL d   1      31.983  15.725 -23.615  0.00  0.00     0.019 A 
ATOM      5  C   UNL d   1      32.795  15.753 -23.481  0.00  0.00     0.002 A 
ATOM      6  C   UNL d   1      31.623  17.767 -24.323  0.00  0.00     0.002 A 
ATOM      7  C   UNL d   1      33.218  16.450 -23.627  0.00  0.00     0.000 A 
ATOM      8  C   UNL d   1      33.236  17.823 -24.056  0.00  0.00     0.000 A 
ATOM      9  C   UNL d   1      32.044  18.460 -24.467  0.00  0.00     0.000 A 
ATOM     10  C   UNL d   1      32.847  18.491 -24.336  0.00  0.00     0.000 A 
ENDROOT
BRANCH   1  11
ATOM     11  N   UNL d   1      30.777  16.356 -24.026  0.00  0.00    -0.192 NA
ATOM     12  C   UNL d   1      30.283  15.930 -23.517  0.00  0.00     0.354 C 
ATOM     13  N   UNL d   1      29.479  15.905 -23.667  0.00  0.00    -0.252 N 
ATOM     14  O   UNL d   1      30.613  15.530 -22.856  0.00  0.00    -0.244 OA
ATOM     15  C   UNL d   1      28.973  15.470 -23.147  0.00  0.00     0.111 A 
ATOM     16  C   UNL d   1      29.174  16.306 -24.324  0.00  0.00     0.111 A 
ATOM     17  C   UNL d   1      28.155  15.453 -23.311  0.00  0.00     0.142 A 
ATOM     18  O   UNL d   1      27.841  15.867 -23.989  0.00  0.00    -0.300 OA
ATOM     19  C   UNL d   1      28.345  16.283 -24.482  0.00  0.00     0.142 A 
ENDBRANCH   1  11
TORSDOF 1
ENDMDL
MODEL 3
REMARK VINA RESULT:      -2.8      1.064      3.921
REMARK  1 active torsions:
REMARK  status: ('A' for Active; 'I' for Inactive)
REMARK       I    between atoms: N_2  and  C_1 
REMARK       I    between atoms: N_3  and  C_1 
REMARK    1  A    between atoms: C_4  and  N_2 
ROOT
ATOM      1  C   UNL d   1      33.209  19.634 -22.687  0.00  0.00     0.086 A 
ATOM      2  C   UNL d   1      33.204  19.431 -23.490  0.00  0.00     0.018 A 
ATOM      3  C   UNL d   1      33.217  18.640 -23.720  0.00  0.00     0.002 A 
ATOM      4  C   UNL d   1      33.228  19.046 -22.111  0.00  0.00     0.019 A 
ATOM      5  C   UNL d   1      33.241  18.255 -22.340  0.00  0.00     0.002 A 
ATOM      6  C   UNL d   1      33.185  20.028 -24.069  0.00  0.00     0.002 A 
ATOM      7  C   UNL d   1      33.236  18.053 -23.143  0.00  0.00     0.000 A 
ATOM      8  C   UNL d   1      33.211  18.456 -24.523  0.00  0.00     0.000 A 
ATOM      9  C   UNL d   1      33.179  19.826 -24.868  0.00  0.00     0.000 A 
ATOM     10  C   UNL d   1      33.192  19.045 -25.097  0.00  0.00     0.000 A 
ENDROOT
BRANCH   1  11
ATOM     11  N   UNL d   1      33.196  20.427 -22.445  0.00  0.00    -0.192 NA
ATOM     12  C   UNL d   1      33.008  20.634 -21.666  0.00  0.00     0.354 C 
ATOM     13  N   UNL d   1      33.002  21.423 -21.451  0.00  0.00    -0.252 N 
ATOM     14  O   UNL d   1      32.828  20.031 -21.109  0.00  0.00    -0.244 OA
ATOM     15  C   UNL d   1      32.810  21.634 -20.655  0.00  0.00     0.111 A 
ATOM     16  C   UNL d   1      33.182  22.001 -22.015  0.00  0.00     0.111 A 
ATOM     17  C   UNL d   1      32.806  22.443 -20.448  0.00  0.00     0.142 A 
ATOM     18  O   UNL d   1      32.993  23.039 -21.031  0.00  0.00    -0.300 OA
ATOM     19  C   UNL d   1      33.176  22.816 -21.798  0.00  0.00     0.142 A 
ENDBRANCH   1  11
TORSDOF 1
ENDMDL
MODEL 4
REMARK VINA RESULT:      -2.6      0.920      1.730
REMARK  1 active torsions:
REMARK  status: ('A' for Active; 'I' for Inactive)
REMARK       I    between atoms: N_2  and  C_1 
REMARK       I    between atoms: N_3  and  C_1 
REMARK    1  A    between atoms: C_4  and  N_2 
ROOT
ATOM      1  C   UNL d   1      33.209  21.807 -22.005  0.00  0.00     0.086 A 
ATOM      2  C   UNL d   1      33.179  22.139 -21.247  0.00  0.00     0.018 A 
ATOM      3  C   UNL d   1      33.176  22.957 -21.151  0.00  0.00     0.002 A 
ATOM      4  C   UNL d   1      33.237  22.292 -22.669  0.00  0.00     0.019 A 
ATOM      5  C   UNL d   1      33.235  23.109 -22.574  0.00  0.00     0.002 A 
ATOM      6  C   UNL d   1      33.150  21.646 -20.578  0.00  0.00     0.002 A 
ATOM      7  C   UNL d   1      33.205  23.441 -21.817  0.00  0.00     0.000 A 
ATOM      8  C   UNL d   1      33.146  23.271 -20.389  0.00  0.00     0.000 A 
ATOM      9  C   UNL d   1      33.120  21.977 -19.823  0.00  0.00     0.000 A 
ATOM     10  C   UNL d   1      33.117  22.785 -19.727  0.00  0.00     0.000 A 
ENDROOT
BRANCH   1  11
ATOM     11  N   UNL d   1      33.212  20.984 -22.111  0.00  0.00    -0.192 NA
ATOM     12  C   UNL d   1      33.224  20.652 -22.870  0.00  0.00     0.354 C 
ATOM     13  N   UNL d   1      33.226  19.837 -22.950  0.00  0.00    -0.252 N 
ATOM     14  O   UNL d   1      33.234  21.154 -23.543  0.00  0.00    -0.244 OA
ATOM     15  C   UNL d   1      33.239  19.498 -23.725  0.00  0.00     0.111 A 
ATOM     16  C   UNL d   1      33.216  19.360 -22.274  0.00  0.00     0.111 A 
ATOM     17  C   UNL d   1      33.241  18.665 -23.794  0.00  0.00     0.142 A 
ATOM     18  O   UNL d   1      33.231  18.174 -23.095  0.00  0.00    -0.300 OA
ATOM     19  C   UNL d   1      33.219  18.520 -22.353  0.00  0.00     0.142 A 
ENDBRANCH   1  11
TORSDOF 1
ENDMDL
MODEL 5
REMARK VINA RESULT:      -2.5      1.469      4.101
REMARK  1 active torsions:
REMARK  status: ('A' for Active; 'I' for Inactive)
REMARK       I    between atoms: N_2  and  C_1 
REMARK       I    between atoms: N_3  and  C_1 
REMARK    1  A    between atoms: C_4  and  N_2 
ROOT
ATOM      1  C   UNL d   1      33.216  21.200 -22.463  0.00  0.00     0.086 A 
ATOM      2  C   UNL d   1      33.224  20.387 -22.621  0.00  0.00     0.018 A 
ATOM      3  C   UNL d   1      33.232  20.114 -23.398  0.00  0.00     0.002 A 
ATOM      4  C   UNL d   1      33.216  21.743 -23.082  0.00  0.00     0.019 A 
ATOM      5  C   UNL d   1      33.224  21.471 -23.859  0.00  0.00     0.002 A 
ATOM      6  C   UNL d   1      33.225  19.842 -21.993  0.00  0.00     0.002 A 
ATOM      7  C   UNL d   1      33.232  20.658 -24.016  0.00  0.00     0.000 A 
ATOM      8  C   UNL d   1      33.240  19.302 -23.537  0.00  0.00     0.000 A 
ATOM      9  C   UNL d   1      33.233  19.033 -22.150  0.00  0.00     0.000 A 
ATOM     10  C   UNL d   1      33.241  18.761 -22.918  0.00  0.00     0.000 A 
ENDROOT
BRANCH   1  11
ATOM     11  N   UNL d   1      33.208  21.485 -21.683  0.00  0.00    -0.192 NA
ATOM     12  C   UNL d   1      32.876  22.221 -21.501  0.00  0.00     0.354 C 
ATOM     13  N   UNL d   1      32.880  22.480 -20.725  0.00  0.00    -0.252 N 
ATOM     14  O   UNL d   1      32.542  22.688 -22.113  0.00  0.00    -0.244 OA
ATOM     15  C   UNL d   1      32.540  23.233 -20.539  0.00  0.00     0.111 A 
ATOM     16  C   UNL d   1      33.214  22.004 -20.137  0.00  0.00     0.111 A 
ATOM     17  C   UNL d   1      32.550  23.486 -19.743  0.00  0.00     0.142 A 
ATOM     18  O   UNL d   1      32.896  22.994 -19.137  0.00  0.00    -0.300 OA
ATOM     19  C   UNL d   1      33.220  22.268 -19.335  0.00  0.00     0.142 A 
ENDBRANCH   1  11
TORSDOF 1
ENDMDL
MODEL 6
REMARK VINA RESULT:      -2.5      5.325      6.232
REMARK  1 active torsions:
REMARK  status: ('A' for Active; 'I' for Inactive)
REMARK       I    between atoms: N_2  and  C_1 
REMARK       I    between atoms: N_3  and  C_1 
REMARK    1  A    between atoms: C_4  and  N_2 
ROOT
ATOM      1  C   UNL d   1      29.656  16.966 -24.412  0.00  0.00     0.086 A 
ATOM      2  C   UNL d   1      29.111  16.595 -23.910  0.00  0.00     0.018 A 
ATOM      3  C   UNL d   1      28.385  16.950 -23.750  0.00  0.00     0.002 A 
ATOM      4  C   UNL d   1      29.477  17.693 -24.754  0.00  0.00     0.019 A 
ATOM      5  C   UNL d   1      28.752  18.048 -24.594  0.00  0.00     0.002 A 
ATOM      6  C   UNL d   1      29.295  15.861 -23.566  0.00  0.00     0.002 A 
ATOM      7  C   UNL d   1      28.207  17.678 -24.093  0.00  0.00     0.000 A 
ATOM      8  C   UNL d   1      27.854  16.568 -23.249  0.00  0.00     0.000 A 
ATOM      9  C   UNL d   1      28.753  15.492 -23.067  0.00  0.00     0.000 A 
ATOM     10  C   UNL d   1      28.035  15.842 -22.907  0.00  0.00     0.000 A 
ENDROOT
BRANCH   1  11
ATOM     11  N   UNL d   1      30.390  16.617 -24.580  0.00  0.00    -0.192 NA
ATOM     12  C   UNL d   1      31.086  17.065 -24.583  0.00  0.00     0.354 C 
ATOM     13  N   UNL d   1      31.797  16.698 -24.751  0.00  0.00    -0.252 N 
ATOM     14  O   UNL d   1      31.050  17.887 -24.414  0.00  0.00    -0.244 OA
ATOM     15  C   UNL d   1      32.508  17.157 -24.755  0.00  0.00     0.111 A 
ATOM     16  C   UNL d   1      31.810  15.887 -24.915  0.00  0.00     0.111 A 
ATOM     17  C   UNL d   1      33.229  16.771 -24.928  0.00  0.00     0.142 A 
ATOM     18  O   UNL d   1      33.240  15.934 -25.097  0.00  0.00    -0.300 OA
ATOM     19  C   UNL d   1      32.542  15.505 -25.089  0.00  0.00     0.142 A 
ENDBRANCH   1  11
TORSDOF 1
ENDMDL
MODEL 7
REMARK VINA RESULT:      -2.3      1.270      4.721
REMARK  1 active torsions:
REMARK  status: ('A' for Active; 'I' for Inactive)
REMARK       I    between atoms: N_2  and  C_1 
REMARK       I    between atoms: N_3  and  C_1 
REMARK    1  A    between atoms: C_4  and  N_2 
ROOT
ATOM      1  C   UNL d   1      33.011  18.774 -23.563  0.00  0.00     0.086 A 
ATOM      2  C   UNL d   1      33.061  17.947 -23.574  0.00  0.00     0.018 A 
ATOM      3  C   UNL d   1      33.016  17.537 -24.286  0.00  0.00     0.002 A 
ATOM      4  C   UNL d   1      32.916  19.193 -24.266  0.00  0.00     0.019 A 
ATOM      5  C   UNL d   1      32.870  18.783 -24.978  0.00  0.00     0.002 A 
ATOM      6  C   UNL d   1      33.158  17.527 -22.862  0.00  0.00     0.002 A 
ATOM      7  C   UNL d   1      32.920  17.957 -24.989  0.00  0.00     0.000 A 
ATOM      8  C   UNL d   1      33.067  16.714 -24.279  0.00  0.00     0.000 A 
ATOM      9  C   UNL d   1      33.207  16.705 -22.873  0.00  0.00     0.000 A 
ATOM     10  C   UNL d   1      33.163  16.297 -23.576  0.00  0.00     0.000 A 
ENDROOT
BRANCH   1  11
ATOM     11  N   UNL d   1      33.056  19.196 -22.850  0.00  0.00    -0.192 NA
ATOM     12  C   UNL d   1      33.104  20.023 -22.846  0.00  0.00     0.354 C 
ATOM     13  N   UNL d   1      33.148  20.418 -22.131  0.00  0.00    -0.252 N 
ATOM     14  O   UNL d   1      33.108  20.442 -23.574  0.00  0.00    -0.244 OA
ATOM     15  C   UNL d   1      33.197  21.262 -22.127  0.00  0.00     0.111 A 
ATOM     16  C   UNL d   1      33.142  19.986 -21.425  0.00  0.00     0.111 A 
ATOM     17  C   UNL d   1      33.241  21.654 -21.390  0.00  0.00     0.142 A 
ATOM     18  O   UNL d   1      33.235  21.207 -20.662  0.00  0.00    -0.300 OA
ATOM     19  C   UNL d   1      33.187  20.389 -20.685  0.00  0.00     0.142 A 
ENDBRANCH   1  11
TORSDOF 1
ENDMDL
MODEL 8
REMARK VINA RESULT:      -2.3      1.349      2.509
REMARK  1 active torsions:
REMARK  status: ('A' for Active; 'I' for Inactive)
REMARK       I    between atoms: N_2  and  C_1 
REMARK       I    between atoms: N_3  and  C_1 
REMARK    1  A    between atoms: C_4  and  N_2 
ROOT
ATOM      1  C   UNL d   1      33.226  20.128 -22.781  0.00  0.00     0.086 A 
ATOM      2  C   UNL d   1      33.229  20.473 -22.028  0.00  0.00     0.018 A 
ATOM      3  C   UNL d   1      33.237  21.292 -21.945  0.00  0.00     0.002 A 
ATOM      4  C   UNL d   1      33.231  20.602 -23.454  0.00  0.00     0.019 A 
ATOM      5  C   UNL d   1      33.238  21.421 -23.373  0.00  0.00     0.002 A 
ATOM      6  C   UNL d   1      33.225  19.991 -21.350  0.00  0.00     0.002 A 
ATOM      7  C   UNL d   1      33.241  21.766 -22.620  0.00  0.00     0.000 A 
ATOM      8  C   UNL d   1      33.240  21.619 -21.189  0.00  0.00     0.000 A 
ATOM      9  C   UNL d   1      33.228  20.334 -20.601  0.00  0.00     0.000 A 
ATOM     10  C   UNL d   1      33.235  21.144 -20.517  0.00  0.00     0.000 A 
ENDROOT
BRANCH   1  11
ATOM     11  N   UNL d   1      33.219  19.303 -22.874  0.00  0.00    -0.192 NA
ATOM     12  C   UNL d   1      33.051  18.958 -23.608  0.00  0.00     0.354 C 
ATOM     13  N   UNL d   1      33.049  18.143 -23.675  0.00  0.00    -0.252 N 
ATOM     14  O   UNL d   1      32.885  19.449 -24.269  0.00  0.00    -0.244 OA
ATOM     15  C   UNL d   1      32.878  17.790 -24.425  0.00  0.00     0.111 A 
ATOM     16  C   UNL d   1      33.216  17.678 -23.011  0.00  0.00     0.111 A 
ATOM     17  C   UNL d   1      32.879  16.956 -24.481  0.00  0.00     0.142 A 
ATOM     18  O   UNL d   1      33.051  16.478 -23.795  0.00  0.00    -0.300 OA
ATOM     19  C   UNL d   1      33.215  16.836 -23.077  0.00  0.00     0.142 A 
ENDBRANCH   1  11
TORSDOF 1
ENDMDL
MODEL 9
REMARK VINA RESULT:      -2.2      2.046      5.069
REMARK  1 active torsions:
REMARK  status: ('A' for Active; 'I' for Inactive)
REMARK       I    between atoms: N_2  and  C_1 
REMARK       I    between atoms: N_3  and  C_1 
REMARK    1  A    between atoms: C_4  and  N_2 
ROOT
ATOM      1  C   UNL d   1      32.644  17.261 -23.609  0.00  0.00     0.086 A 
ATOM      2  C   UNL d   1      31.990  16.943 -24.005  0.00  0.00     0.018 A 
ATOM      3  C   UNL d   1      31.878  16.128 -24.035  0.00  0.00     0.002 A 
ATOM      4  C   UNL d   1      33.189  16.765 -23.242  0.00  0.00     0.019 A 
ATOM      5  C   UNL d   1      33.078  15.950 -23.272  0.00  0.00     0.002 A 
ATOM      6  C   UNL d   1      31.442  17.448 -24.374  0.00  0.00     0.002 A 
ATOM      7  C   UNL d   1      32.424  15.632 -23.668  0.00  0.00     0.000 A 
ATOM      8  C   UNL d   1      31.222  15.828 -24.434  0.00  0.00     0.000 A 
ATOM      9  C   UNL d   1      30.791  17.131 -24.768  0.00  0.00     0.000 A 
ATOM     10  C   UNL d   1      30.679  16.325 -24.799  0.00  0.00     0.000 A 
ENDROOT
BRANCH   1  11
ATOM     11  N   UNL d   1      32.765  18.081 -23.572  0.00  0.00    -0.192 NA
ATOM     12  C   UNL d   1      32.884  18.464 -22.847  0.00  0.00     0.354 C 
ATOM     13  N   UNL d   1      33.001  19.274 -22.837  0.00  0.00    -0.252 N 
ATOM     14  O   UNL d   1      32.882  18.016 -22.137  0.00  0.00    -0.244 OA
ATOM     15  C   UNL d   1      33.122  19.664 -22.096  0.00  0.00     0.111 A 
ATOM     16  C   UNL d   1      32.999  19.696 -23.548  0.00  0.00     0.111 A 
ATOM     17  C   UNL d   1      33.241  20.491 -22.098  0.00  0.00     0.142 A 
ATOM     18  O   UNL d   1      33.239  20.926 -22.834  0.00  0.00    -0.300 OA
ATOM     19  C   UNL d   1      33.120  20.531 -23.541  0.00  0.00     0.142 A 
ENDBRANCH   1  11
TORSDOF 1
ENDMDL
