MODEL 1
REMARK VINA RESULT:       4.4      0.000      0.000
REMARK  5 active torsions:
REMARK  status: ('A' for Active; 'I' for Inactive)
REMARK    1  A    between atoms: N_7  and  C_1 
REMARK    2  A    between atoms: C_15  and  N_2 
REMARK    3  A    between atoms: C_5  and  C_10 
REMARK       I    between atoms: C_10  and  N_7 
REMARK    4  A    between atoms: C_13  and  C_11 
REMARK    5  A    between atoms: C_24  and  C_15 
ROOT
ATOM      1  N   UNL d   1      31.483  18.346 -23.652  0.00  0.00    -0.203 NA
ATOM      2  C   UNL d   1      31.183  18.937 -23.137  0.00  0.00     0.299 C 
ATOM      3  O   UNL d   1      30.395  19.008 -23.066  0.00  0.00    -0.263 OA
ENDROOT
BRANCH   1   4
ATOM      4  C   UNL d   1      30.950  17.846 -24.078  0.00  0.00     0.121 A 
ATOM      5  C   UNL d   1      30.765  17.046 -23.904  0.00  0.00     0.102 A 
ATOM      6  N   UNL d   1      30.223  16.788 -24.466  0.00  0.00    -0.227 N 
ATOM      7  C   UNL d   1      31.077  16.600 -23.275  0.00  0.00     0.022 C 
ATOM      8  N   UNL d   1      30.065  17.421 -24.993  0.00  0.00    -0.164 NA
ATOM      9  C   UNL d   1      30.523  18.078 -24.745  0.00  0.00     0.120 A 
ATOM     10  C   UNL d   1      30.553  18.840 -25.097  0.00  0.00     0.024 C 
BRANCH   6  11
ATOM     11  C   UNL d   1      29.932  15.991 -24.429  0.00  0.00     0.101 C 
BRANCH  11  12
ATOM     12  C   UNL d   1      29.119  15.855 -24.299  0.00  0.00     0.019 A 
ATOM     13  C   UNL d   1      28.630  15.605 -24.921  0.00  0.00     0.002 A 
ATOM     14  C   UNL d   1      27.816  15.467 -24.797  0.00  0.00     0.000 A 
ATOM     15  C   UNL d   1      27.489  15.583 -24.025  0.00  0.00     0.000 A 
ATOM     16  C   UNL d   1      27.967  15.828 -23.415  0.00  0.00     0.000 A 
ATOM     17  C   UNL d   1      26.679  15.453 -23.870  0.00  0.00     0.000 C 
ATOM     18  C   UNL d   1      28.788  15.968 -23.539  0.00  0.00     0.002 A 
ENDBRANCH  11  12
ENDBRANCH   6  11
ENDBRANCH   1   4
BRANCH   2  19
ATOM     19  C   UNL d   1      32.204  19.844 -22.365  0.00  0.00     0.168 A 
ATOM     20  N   UNL d   1      32.943  19.674 -22.128  0.00  0.00    -0.121 NA
ATOM     21  O   UNL d   1      33.241  20.303 -21.761  0.00  0.00    -0.211 OA
ATOM     22  C   UNL d   1      32.692  20.880 -21.761  0.00  0.00     0.127 A 
ATOM     23  C   UNL d   1      32.046  20.599 -22.136  0.00  0.00     0.053 A 
BRANCH  22  24
ATOM     24  C   UNL d   1      32.802  21.590 -21.440  0.00  0.00     0.027 A 
ATOM     25  C   UNL d   1      32.621  21.713 -20.670  0.00  0.00     0.028 A 
ATOM     26  C   UNL d   1      32.730  22.417 -20.353  0.00  0.00     0.119 A 
ATOM     27  O   UNL d   1      32.603  22.695 -19.620  0.00  0.00    -0.300 OA
ATOM     28  C   UNL d   1      33.020  23.023 -20.777  0.00  0.00     0.119 A 
ATOM     29  C   UNL d   1      32.812  23.457 -19.598  0.00  0.00     0.304 A 
ATOM     30  O   UNL d   1      33.071  23.660 -20.317  0.00  0.00    -0.300 OA
ATOM     31  C   UNL d   1      33.203  22.906 -21.548  0.00  0.00     0.026 A 
ATOM     32  C   UNL d   1      33.096  22.202 -21.872  0.00  0.00     0.004 A 
ENDBRANCH  22  24
ENDBRANCH   2  19
TORSDOF 5
ENDMDL
MODEL 2
REMARK VINA RESULT:       7.2      1.949      6.811
REMARK  5 active torsions:
REMARK  status: ('A' for Active; 'I' for Inactive)
REMARK    1  A    between atoms: N_7  and  C_1 
REMARK    2  A    between atoms: C_15  and  N_2 
REMARK    3  A    between atoms: C_5  and  C_10 
REMARK       I    between atoms: C_10  and  N_7 
REMARK    4  A    between atoms: C_13  and  C_11 
REMARK    5  A    between atoms: C_24  and  C_15 
ROOT
ATOM      1  N   UNL d   1      31.760  19.003 -23.741  0.00  0.00    -0.203 NA
ATOM      2  C   UNL d   1      32.043  18.220 -23.843  0.00  0.00     0.299 C 
ATOM      3  O   UNL d   1      32.811  18.076 -23.698  0.00  0.00    -0.263 OA
ENDROOT
BRANCH   1   4
ATOM      4  C   UNL d   1      32.289  19.614 -23.490  0.00  0.00     0.121 A 
ATOM      5  C   UNL d   1      32.426  19.867 -22.701  0.00  0.00     0.102 A 
ATOM      6  N   UNL d   1      32.982  20.472 -22.727  0.00  0.00    -0.227 N 
ATOM      7  C   UNL d   1      32.063  19.556 -22.021  0.00  0.00     0.022 C 
ATOM      8  N   UNL d   1      33.196  20.603 -23.528  0.00  0.00    -0.164 NA
ATOM      9  C   UNL d   1      32.759  20.064 -23.998  0.00  0.00     0.120 A 
ATOM     10  C   UNL d   1      32.782  19.982 -24.833  0.00  0.00     0.024 C 
BRANCH   6  11
ATOM     11  C   UNL d   1      33.232  20.839 -22.004  0.00  0.00     0.101 C 
BRANCH  11  12
ATOM     12  C   UNL d   1      32.728  21.383 -21.621  0.00  0.00     0.019 A 
ATOM     13  C   UNL d   1      32.290  21.152 -20.955  0.00  0.00     0.002 A 
ATOM     14  C   UNL d   1      31.784  21.691 -20.567  0.00  0.00     0.000 A 
ATOM     15  C   UNL d   1      31.719  22.483 -20.860  0.00  0.00     0.000 A 
ATOM     16  C   UNL d   1      32.148  22.710 -21.512  0.00  0.00     0.000 A 
ATOM     17  C   UNL d   1      31.221  23.045 -20.494  0.00  0.00     0.000 C 
ATOM     18  C   UNL d   1      32.659  22.167 -21.904  0.00  0.00     0.002 A 
ENDBRANCH  11  12
ENDBRANCH   6  11
ENDBRANCH   1   4
BRANCH   2  19
ATOM     19  C   UNL d   1      31.032  17.115 -24.308  0.00  0.00     0.168 A 
ATOM     20  N   UNL d   1      31.167  16.469 -24.752  0.00  0.00    -0.121 NA
ATOM     21  O   UNL d   1      30.490  16.079 -24.841  0.00  0.00    -0.211 OA
ATOM     22  C   UNL d   1      29.916  16.473 -24.454  0.00  0.00     0.127 A 
ATOM     23  C   UNL d   1      30.249  17.118 -24.122  0.00  0.00     0.053 A 
BRANCH  22  24
ATOM     24  C   UNL d   1      29.166  16.240 -24.425  0.00  0.00     0.027 A 
ATOM     25  C   UNL d   1      28.824  16.076 -23.721  0.00  0.00     0.028 A 
ATOM     26  C   UNL d   1      28.079  15.844 -23.694  0.00  0.00     0.119 A 
ATOM     27  O   UNL d   1      27.606  15.648 -23.088  0.00  0.00    -0.300 OA
ATOM     28  C   UNL d   1      27.646  15.766 -24.355  0.00  0.00     0.119 A 
ATOM     29  C   UNL d   1      26.896  15.453 -23.374  0.00  0.00     0.304 A 
ATOM     30  O   UNL d   1      26.921  15.526 -24.161  0.00  0.00    -0.300 OA
ATOM     31  C   UNL d   1      27.982  15.928 -25.063  0.00  0.00     0.026 A 
ATOM     32  C   UNL d   1      28.728  16.161 -25.097  0.00  0.00     0.004 A 
ENDBRANCH  22  24
ENDBRANCH   2  19
TORSDOF 5
ENDMDL
