MODEL 1
REMARK VINA RESULT:      -3.4      0.000      0.000
REMARK  4 active torsions:
REMARK  status: ('A' for Active; 'I' for Inactive)
REMARK    1  A    between atoms: C_5  and  C_4 
REMARK    2  A    between atoms: C_6  and  C_5 
REMARK       I    between atoms: N_11  and  C_6 
REMARK    3  A    between atoms: C_9  and  C_10 
REMARK    4  A    between atoms: C_14  and  N_11 
ROOT
ATOM      1  C   UNL d   1      33.197  18.498 -23.884  0.00  0.00     0.074 C 
ENDROOT
BRANCH   1   2
ATOM      2  C   UNL d   1      33.208  19.185 -23.450  0.00  0.00     0.092 A 
ATOM      3  C   UNL d   1      33.225  19.917 -23.843  0.00  0.00     0.285 A 
ATOM      4  N   UNL d   1      33.236  20.626 -23.404  0.00  0.00    -0.207 NA
ATOM      5  O   UNL d   1      33.232  19.950 -24.663  0.00  0.00    -0.265 OA
ATOM      6  C   UNL d   1      33.230  20.588 -22.593  0.00  0.00     0.091 A 
ATOM      7  C   UNL d   1      33.212  19.856 -22.200  0.00  0.00     0.047 A 
ATOM      8  C   UNL d   1      33.241  21.298 -22.151  0.00  0.00     0.020 A 
ATOM      9  S   UNL d   1      33.201  19.174 -22.625  0.00  0.00    -0.080 SA
ATOM     10  C   UNL d   1      33.206  19.848 -21.384  0.00  0.00     0.008 A 
ATOM     11  C   UNL d   1      33.216  20.539 -20.928  0.00  0.00     0.001 A 
ATOM     12  C   UNL d   1      33.234  21.271 -21.321  0.00  0.00     0.002 A 
ENDBRANCH   1   2
BRANCH   1  13
ATOM     13  C   UNL d   1      32.594  17.963 -23.801  0.00  0.00     0.280 C 
ATOM     14  N   UNL d   1      32.034  17.871 -24.393  0.00  0.00    -0.208 NA
ATOM     15  O   UNL d   1      32.547  17.511 -23.121  0.00  0.00    -0.265 OA
BRANCH  14  16
ATOM     16  C   UNL d   1      31.429  17.329 -24.303  0.00  0.00     0.085 A 
ATOM     17  C   UNL d   1      30.635  17.567 -24.377  0.00  0.00     0.025 A 
ATOM     18  C   UNL d   1      30.043  17.010 -24.283  0.00  0.00     0.066 A 
ATOM     19  C   UNL d   1      30.209  16.254 -24.125  0.00  0.00     0.006 A 
ATOM     20  C   UNL d   1      30.999  15.991 -24.047  0.00  0.00     0.002 A 
ATOM     21  C   UNL d   1      31.600  16.547 -24.140  0.00  0.00     0.019 A 
BRANCH  18  22
ATOM     22  C   UNL d   1      29.261  17.210 -24.349  0.00  0.00     0.211 C 
ATOM     23  O   UNL d   1      28.920  17.408 -25.068  0.00  0.00    -0.644 OA
ATOM     24  O   UNL d   1      28.815  17.208 -23.659  0.00  0.00    -0.644 OA
ENDBRANCH  18  22
ENDBRANCH  14  16
ENDBRANCH   1  13
TORSDOF 4
ENDMDL
MODEL 2
REMARK VINA RESULT:      -3.2      1.589      4.785
REMARK  4 active torsions:
REMARK  status: ('A' for Active; 'I' for Inactive)
REMARK    1  A    between atoms: C_5  and  C_4 
REMARK    2  A    between atoms: C_6  and  C_5 
REMARK       I    between atoms: N_11  and  C_6 
REMARK    3  A    between atoms: C_9  and  C_10 
REMARK    4  A    between atoms: C_14  and  N_11 
ROOT
ATOM      1  C   UNL d   1      32.462  17.288 -23.656  0.00  0.00     0.074 C 
ENDROOT
BRANCH   1   2
ATOM      2  C   UNL d   1      31.745  16.924 -23.769  0.00  0.00     0.092 A 
ATOM      3  C   UNL d   1      31.651  16.128 -23.551  0.00  0.00     0.285 A 
ATOM      4  N   UNL d   1      30.918  15.748 -23.664  0.00  0.00    -0.207 NA
ATOM      5  O   UNL d   1      32.276  15.710 -23.222  0.00  0.00    -0.265 OA
ATOM      6  C   UNL d   1      30.302  16.167 -23.989  0.00  0.00     0.091 A 
ATOM      7  C   UNL d   1      30.396  16.963 -24.208  0.00  0.00     0.047 A 
ATOM      8  C   UNL d   1      29.566  15.787 -24.103  0.00  0.00     0.020 A 
ATOM      9  S   UNL d   1      31.104  17.327 -24.098  0.00  0.00    -0.080 SA
ATOM     10  C   UNL d   1      29.761  17.359 -24.533  0.00  0.00     0.008 A 
ATOM     11  C   UNL d   1      29.024  17.002 -24.654  0.00  0.00     0.001 A 
ATOM     12  C   UNL d   1      28.930  16.206 -24.435  0.00  0.00     0.002 A 
ENDBRANCH   1   2
BRANCH   1  13
ATOM     13  C   UNL d   1      32.509  18.088 -23.533  0.00  0.00     0.280 C 
ATOM     14  N   UNL d   1      32.987  18.390 -22.938  0.00  0.00    -0.208 NA
ATOM     15  O   UNL d   1      32.076  18.595 -24.006  0.00  0.00    -0.265 OA
BRANCH  14  16
ATOM     16  C   UNL d   1      33.029  19.199 -22.819  0.00  0.00     0.085 A 
ATOM     17  C   UNL d   1      32.903  19.520 -22.062  0.00  0.00     0.025 A 
ATOM     18  C   UNL d   1      32.949  20.331 -21.962  0.00  0.00     0.066 A 
ATOM     19  C   UNL d   1      33.110  20.812 -22.568  0.00  0.00     0.006 A 
ATOM     20  C   UNL d   1      33.241  20.513 -23.338  0.00  0.00     0.002 A 
ATOM     21  C   UNL d   1      33.196  19.697 -23.445  0.00  0.00     0.019 A 
BRANCH  18  22
ATOM     22  C   UNL d   1      32.831  20.675 -21.239  0.00  0.00     0.211 C 
ATOM     23  O   UNL d   1      32.395  21.364 -21.149  0.00  0.00    -0.644 OA
ATOM     24  O   UNL d   1      33.169  20.304 -20.589  0.00  0.00    -0.644 OA
ENDBRANCH  18  22
ENDBRANCH  14  16
ENDBRANCH   1  13
TORSDOF 4
ENDMDL
MODEL 3
REMARK VINA RESULT:      -3.1      1.639      2.548
REMARK  4 active torsions:
REMARK  status: ('A' for Active; 'I' for Inactive)
REMARK    1  A    between atoms: C_5  and  C_4 
REMARK    2  A    between atoms: C_6  and  C_5 
REMARK       I    between atoms: N_11  and  C_6 
REMARK    3  A    between atoms: C_9  and  C_10 
REMARK    4  A    between atoms: C_14  and  N_11 
ROOT
ATOM      1  C   UNL d   1      33.241  19.957 -21.968  0.00  0.00     0.074 C 
ENDROOT
BRANCH   1   2
ATOM      2  C   UNL d   1      33.039  20.728 -21.810  0.00  0.00     0.092 A 
ATOM      3  C   UNL d   1      32.648  20.911 -21.100  0.00  0.00     0.285 A 
ATOM      4  N   UNL d   1      32.438  21.700 -20.932  0.00  0.00    -0.207 NA
ATOM      5  O   UNL d   1      32.465  20.321 -20.560  0.00  0.00    -0.265 OA
ATOM      6  C   UNL d   1      32.620  22.281 -21.469  0.00  0.00     0.091 A 
ATOM      7  C   UNL d   1      33.011  22.098 -22.179  0.00  0.00     0.047 A 
ATOM      8  C   UNL d   1      32.410  23.073 -21.302  0.00  0.00     0.020 A 
ATOM      9  S   UNL d   1      33.213  21.337 -22.340  0.00  0.00    -0.080 SA
ATOM     10  C   UNL d   1      33.182  22.701 -22.701  0.00  0.00     0.008 A 
ATOM     11  C   UNL d   1      32.983  23.491 -22.555  0.00  0.00     0.001 A 
ATOM     12  C   UNL d   1      32.592  23.674 -21.845  0.00  0.00     0.002 A 
ENDBRANCH   1   2
BRANCH   1  13
ATOM     13  C   UNL d   1      33.051  19.614 -22.677  0.00  0.00     0.280 C 
ATOM     14  N   UNL d   1      32.933  18.803 -22.729  0.00  0.00    -0.208 NA
ATOM     15  O   UNL d   1      32.977  20.080 -23.344  0.00  0.00    -0.265 OA
BRANCH  14  16
ATOM     16  C   UNL d   1      32.741  18.463 -23.447  0.00  0.00     0.085 A 
ATOM     17  C   UNL d   1      32.038  18.026 -23.533  0.00  0.00     0.025 A 
ATOM     18  C   UNL d   1      31.863  17.693 -24.259  0.00  0.00     0.066 A 
ATOM     19  C   UNL d   1      32.346  17.777 -24.879  0.00  0.00     0.006 A 
ATOM     20  C   UNL d   1      33.059  18.212 -24.817  0.00  0.00     0.002 A 
ATOM     21  C   UNL d   1      33.241  18.550 -24.088  0.00  0.00     0.019 A 
BRANCH  18  22
ATOM     22  C   UNL d   1      31.187  17.263 -24.375  0.00  0.00     0.211 C 
ATOM     23  O   UNL d   1      31.181  16.443 -24.341  0.00  0.00    -0.644 OA
ATOM     24  O   UNL d   1      30.498  17.682 -24.529  0.00  0.00    -0.644 OA
ENDBRANCH  18  22
ENDBRANCH  14  16
ENDBRANCH   1  13
TORSDOF 4
ENDMDL
MODEL 4
REMARK VINA RESULT:      -1.6      1.453      4.694
REMARK  4 active torsions:
REMARK  status: ('A' for Active; 'I' for Inactive)
REMARK    1  A    between atoms: C_5  and  C_4 
REMARK    2  A    between atoms: C_6  and  C_5 
REMARK       I    between atoms: N_11  and  C_6 
REMARK    3  A    between atoms: C_9  and  C_10 
REMARK    4  A    between atoms: C_14  and  N_11 
ROOT
ATOM      1  C   UNL d   1      32.910  18.551 -23.966  0.00  0.00     0.074 C 
ENDROOT
BRANCH   1   2
ATOM      2  C   UNL d   1      32.311  18.010 -24.054  0.00  0.00     0.092 A 
ATOM      3  C   UNL d   1      31.669  18.187 -24.551  0.00  0.00     0.285 A 
ATOM      4  N   UNL d   1      31.051  17.635 -24.646  0.00  0.00    -0.207 NA
ATOM      5  O   UNL d   1      31.636  18.902 -24.952  0.00  0.00    -0.265 OA
ATOM      6  C   UNL d   1      31.087  16.928 -24.247  0.00  0.00     0.091 A 
ATOM      7  C   UNL d   1      31.729  16.752 -23.750  0.00  0.00     0.047 A 
ATOM      8  C   UNL d   1      30.468  16.374 -24.341  0.00  0.00     0.020 A 
ATOM      9  S   UNL d   1      32.324  17.284 -23.660  0.00  0.00    -0.080 SA
ATOM     10  C   UNL d   1      31.740  16.034 -23.362  0.00  0.00     0.008 A 
ATOM     11  C   UNL d   1      31.138  15.472 -23.441  0.00  0.00     0.001 A 
ATOM     12  C   UNL d   1      30.496  15.649 -23.938  0.00  0.00     0.002 A 
ENDBRANCH   1   2
BRANCH   1  13
ATOM     13  C   UNL d   1      33.002  18.961 -23.273  0.00  0.00     0.280 C 
ATOM     14  N   UNL d   1      32.946  19.780 -23.263  0.00  0.00    -0.208 NA
ATOM     15  O   UNL d   1      33.153  18.554 -22.581  0.00  0.00    -0.265 OA
BRANCH  14  16
ATOM     16  C   UNL d   1      33.040  20.188 -22.560  0.00  0.00     0.085 A 
ATOM     17  C   UNL d   1      33.038  21.020 -22.552  0.00  0.00     0.025 A 
ATOM     18  C   UNL d   1      33.134  21.410 -21.839  0.00  0.00     0.066 A 
ATOM     19  C   UNL d   1      33.228  21.014 -21.162  0.00  0.00     0.006 A 
ATOM     20  C   UNL d   1      33.235  20.178 -21.145  0.00  0.00     0.002 A 
ATOM     21  C   UNL d   1      33.139  19.779 -21.860  0.00  0.00     0.019 A 
BRANCH  18  22
ATOM     22  C   UNL d   1      33.136  22.219 -21.797  0.00  0.00     0.211 C 
ATOM     23  O   UNL d   1      33.237  22.690 -22.462  0.00  0.00    -0.644 OA
ATOM     24  O   UNL d   1      33.030  22.555 -21.056  0.00  0.00    -0.644 OA
ENDBRANCH  18  22
ENDBRANCH  14  16
ENDBRANCH   1  13
TORSDOF 4
ENDMDL
MODEL 5
REMARK VINA RESULT:      -1.5      1.482      2.053
REMARK  4 active torsions:
REMARK  status: ('A' for Active; 'I' for Inactive)
REMARK    1  A    between atoms: C_5  and  C_4 
REMARK    2  A    between atoms: C_6  and  C_5 
REMARK       I    between atoms: N_11  and  C_6 
REMARK    3  A    between atoms: C_9  and  C_10 
REMARK    4  A    between atoms: C_14  and  N_11 
ROOT
ATOM      1  C   UNL d   1      32.731  16.958 -23.847  0.00  0.00     0.074 C 
ENDROOT
BRANCH   1   2
ATOM      2  C   UNL d   1      32.849  17.755 -23.745  0.00  0.00     0.092 A 
ATOM      3  C   UNL d   1      32.972  18.055 -22.980  0.00  0.00     0.285 A 
ATOM      4  N   UNL d   1      33.094  18.872 -22.868  0.00  0.00    -0.207 NA
ATOM      5  O   UNL d   1      32.976  17.553 -22.331  0.00  0.00    -0.265 OA
ATOM      6  C   UNL d   1      33.089  19.365 -23.514  0.00  0.00     0.091 A 
ATOM      7  C   UNL d   1      32.966  19.064 -24.278  0.00  0.00     0.047 A 
ATOM      8  C   UNL d   1      33.211  20.185 -23.402  0.00  0.00     0.020 A 
ATOM      9  S   UNL d   1      32.849  18.277 -24.385  0.00  0.00    -0.080 SA
ATOM     10  C   UNL d   1      32.967  19.582 -24.909  0.00  0.00     0.008 A 
ATOM     11  C   UNL d   1      33.085  20.396 -24.821  0.00  0.00     0.001 A 
ATOM     12  C   UNL d   1      33.209  20.697 -24.056  0.00  0.00     0.002 A 
ENDBRANCH   1   2
BRANCH   1  13
ATOM     13  C   UNL d   1      32.041  16.676 -24.167  0.00  0.00     0.280 C 
ATOM     14  N   UNL d   1      31.386  16.544 -23.691  0.00  0.00    -0.208 NA
ATOM     15  O   UNL d   1      32.001  16.523 -24.968  0.00  0.00    -0.265 OA
BRANCH  14  16
ATOM     16  C   UNL d   1      30.692  16.260 -24.019  0.00  0.00     0.085 A 
ATOM     17  C   UNL d   1      29.961  16.406 -23.651  0.00  0.00     0.025 A 
ATOM     18  C   UNL d   1      29.278  16.114 -23.994  0.00  0.00     0.066 A 
ATOM     19  C   UNL d   1      29.300  15.698 -24.666  0.00  0.00     0.006 A 
ATOM     20  C   UNL d   1      30.023  15.539 -25.054  0.00  0.00     0.002 A 
ATOM     21  C   UNL d   1      30.715  15.830 -24.714  0.00  0.00     0.019 A 
BRANCH  18  22
ATOM     22  C   UNL d   1      28.551  16.238 -23.661  0.00  0.00     0.211 C 
ATOM     23  O   UNL d   1      28.114  16.917 -23.807  0.00  0.00    -0.644 OA
ATOM     24  O   UNL d   1      28.262  15.652 -23.164  0.00  0.00    -0.644 OA
ENDBRANCH  18  22
ENDBRANCH  14  16
ENDBRANCH   1  13
TORSDOF 4
ENDMDL
