MODEL 1
REMARK VINA RESULT:      26.7      0.000      0.000
REMARK  2 active torsions:
REMARK  status: ('A' for Active; 'I' for Inactive)
REMARK    1  A    between atoms: C_9  and  C_4 
REMARK    2  A    between atoms: N_6  and  C_8 
ROOT
ATOM      1  N   UNL d   1      46.324 -15.783  43.284  0.00  0.00    -0.211 NA
ATOM      2  C   UNL d   1      46.204 -14.968  43.329  0.00  0.00     0.140 A 
ATOM      3  C   UNL d   1      45.655 -14.670  43.859  0.00  0.00     0.051 A 
ATOM      4  C   UNL d   1      45.896 -16.295  43.767  0.00  0.00     0.183 A 
ATOM      5  C   UNL d   1      45.219 -15.176  44.349  0.00  0.00     0.104 A 
ATOM      6  O   UNL d   1      45.341 -16.000  44.302  0.00  0.00    -0.289 OA
ATOM      7  S   UNL d   1      46.633 -14.460  42.846  0.00  0.00    -0.057 SA
ATOM      8  C   UNL d   1      45.532 -13.856  43.907  0.00  0.00     0.004 A 
ATOM      9  C   UNL d   1      44.670 -14.879  44.879  0.00  0.00     0.025 A 
ATOM     10  C   UNL d   1      44.980 -13.546  44.439  0.00  0.00     0.000 A 
ATOM     11  C   UNL d   1      44.552 -14.059  44.922  0.00  0.00     0.002 A 
ENDROOT
BRANCH   4  12
ATOM     12  C   UNL d   1      46.023 -17.112  43.715  0.00  0.00     0.041 A 
ATOM     13  C   UNL d   1      46.048 -17.468  42.967  0.00  0.00     0.005 A 
ATOM     14  C   UNL d   1      46.174 -18.280  42.915  0.00  0.00     0.024 A 
ATOM     15  C   UNL d   1      46.274 -18.737  43.597  0.00  0.00     0.127 A 
ATOM     16  C   UNL d   1      46.247 -18.369  44.343  0.00  0.00     0.024 A 
ATOM     17  C   UNL d   1      46.121 -17.556  44.396  0.00  0.00     0.005 A 
BRANCH  15  18
ATOM     18  N   UNL d   1      46.400 -19.550  43.536  0.00  0.00    -0.114 N 
ATOM     19  O   UNL d   1      46.283 -20.041  44.186  0.00  0.00    -0.532 OA
ATOM     20  O   UNL d   1      46.645 -19.880  42.817  0.00  0.00    -0.532 OA
ENDBRANCH  15  18
ENDBRANCH   4  12
TORSDOF 2
ENDMDL
