MODEL 1
REMARK VINA RESULT:      -1.5      0.000      0.000
REMARK  5 active torsions:
REMARK  status: ('A' for Active; 'I' for Inactive)
REMARK    1  A    between atoms: C_9  and  C_3 
REMARK    2  A    between atoms: C_8  and  C_4 
REMARK    3  A    between atoms: C_11  and  C_8 
REMARK    4  A    between atoms: O_16  and  C_9 
REMARK    5  A    between atoms: C_18  and  C_11 
ROOT
ATOM      1  N   UNL d   1      59.627   0.393  30.905  0.00  0.00    -0.254 N 
ATOM      2  C   UNL d   1      60.347   0.305  30.510  0.00  0.00     0.182 A 
ATOM      3  C   UNL d   1      58.930   0.106  29.696  0.00  0.00     0.097 A 
ATOM      4  C   UNL d   1      58.917   0.294  30.502  0.00  0.00     0.075 A 
ATOM      5  N   UNL d   1      60.353   0.117  29.709  0.00  0.00    -0.222 NA
ATOM      6  C   UNL d   1      59.648   0.017  29.298  0.00  0.00     0.090 A 
ATOM      7  C   UNL d   1      59.621   0.581  31.707  0.00  0.00     0.267 A 
ATOM      8  S   UNL d   1      61.055   0.403  30.911  0.00  0.00    -0.049 SA
ATOM      9  C   UNL d   1      60.332   0.679  32.110  0.00  0.00     0.068 A 
ATOM     10  O   UNL d   1      58.903   0.670  32.105  0.00  0.00    -0.267 OA
ATOM     11  C   UNL d   1      61.049   0.590  31.712  0.00  0.00     0.043 A 
ATOM     12  C   UNL d   1      59.660  -0.170  28.498  0.00  0.00     0.021 C 
ENDROOT
BRANCH   4  13
ATOM     13  C   UNL d   1      58.199   0.383  30.900  0.00  0.00     0.018 C 
BRANCH  13  14
ATOM     14  C   UNL d   1      58.070  -0.038  31.599  0.00  0.00     0.002 C 
BRANCH  14  15
ATOM     15  C   UNL d   1      57.320  -0.037  31.942  0.00  0.00     0.000 A 
ATOM     16  C   UNL d   1      56.921  -0.745  32.063  0.00  0.00     0.000 A 
ATOM     17  C   UNL d   1      56.171  -0.739  32.407  0.00  0.00     0.000 A 
ATOM     18  C   UNL d   1      55.824  -0.025  32.627  0.00  0.00     0.000 A 
ATOM     19  C   UNL d   1      56.227   0.682  32.504  0.00  0.00     0.000 A 
ATOM     20  C   UNL d   1      56.977   0.676  32.160  0.00  0.00     0.000 A 
ENDBRANCH  14  15
ENDBRANCH  13  14
ENDBRANCH   4  13
BRANCH   3  21
ATOM     21  C   UNL d   1      58.224   0.007  29.290  0.00  0.00     0.299 C 
ATOM     22  O   UNL d   1      57.931  -0.750  29.140  0.00  0.00    -0.259 OA
BRANCH  21  23
ATOM     23  O   UNL d   1      57.801   0.663  29.029  0.00  0.00    -0.296 OA
ATOM     24  C   UNL d   1      57.212   0.584  28.456  0.00  0.00     0.185 C 
ENDBRANCH  21  23
ENDBRANCH   3  21
TORSDOF 5
ENDMDL
MODEL 2
REMARK VINA RESULT:      -1.4      2.096      3.033
REMARK  5 active torsions:
REMARK  status: ('A' for Active; 'I' for Inactive)
REMARK    1  A    between atoms: C_9  and  C_3 
REMARK    2  A    between atoms: C_8  and  C_4 
REMARK    3  A    between atoms: C_11  and  C_8 
REMARK    4  A    between atoms: O_16  and  C_9 
REMARK    5  A    between atoms: C_18  and  C_11 
ROOT
ATOM      1  N   UNL d   1      58.972  -2.185  28.985  0.00  0.00    -0.254 N 
ATOM      2  C   UNL d   1      59.583  -2.618  28.639  0.00  0.00     0.182 A 
ATOM      3  C   UNL d   1      59.798  -1.024  28.989  0.00  0.00     0.097 A 
ATOM      4  C   UNL d   1      59.075  -1.388  29.162  0.00  0.00     0.075 A 
ATOM      5  N   UNL d   1      60.299  -2.250  28.469  0.00  0.00    -0.222 NA
ATOM      6  C   UNL d   1      60.411  -1.454  28.642  0.00  0.00     0.090 A 
ATOM      7  C   UNL d   1      58.255  -2.554  29.155  0.00  0.00     0.267 A 
ATOM      8  S   UNL d   1      59.481  -3.412  28.462  0.00  0.00    -0.049 SA
ATOM      9  C   UNL d   1      58.152  -3.351  28.978  0.00  0.00     0.068 A 
ATOM     10  O   UNL d   1      57.641  -2.124  29.502  0.00  0.00    -0.267 OA
ATOM     11  C   UNL d   1      58.765  -3.780  28.632  0.00  0.00     0.043 A 
ATOM     12  C   UNL d   1      61.129  -1.092  28.470  0.00  0.00     0.021 C 
ENDROOT
BRANCH   4  13
ATOM     13  C   UNL d   1      58.462  -0.959  29.509  0.00  0.00     0.018 C 
BRANCH  13  14
ATOM     14  C   UNL d   1      58.202  -1.164  30.266  0.00  0.00     0.002 C 
BRANCH  14  15
ATOM     15  C   UNL d   1      57.739  -0.634  30.695  0.00  0.00     0.000 A 
ATOM     16  C   UNL d   1      57.569   0.108  30.386  0.00  0.00     0.000 A 
ATOM     17  C   UNL d   1      57.105   0.636  30.818  0.00  0.00     0.000 A 
ATOM     18  C   UNL d   1      56.813   0.420  31.558  0.00  0.00     0.000 A 
ATOM     19  C   UNL d   1      56.986  -0.324  31.864  0.00  0.00     0.000 A 
ATOM     20  C   UNL d   1      57.450  -0.852  31.432  0.00  0.00     0.000 A 
ENDBRANCH  14  15
ENDBRANCH  13  14
ENDBRANCH   4  13
BRANCH   3  21
ATOM     21  C   UNL d   1      59.905  -0.230  29.164  0.00  0.00     0.299 C 
ATOM     22  O   UNL d   1      59.620   0.353  28.653  0.00  0.00    -0.259 OA
BRANCH  21  23
ATOM     23  O   UNL d   1      60.298  -0.007  29.852  0.00  0.00    -0.296 OA
ATOM     24  C   UNL d   1      60.779   0.664  29.864  0.00  0.00     0.185 C 
ENDBRANCH  21  23
ENDBRANCH   3  21
TORSDOF 5
ENDMDL
