MODEL 1
REMARK VINA RESULT:      -8.5      0.000      0.000
REMARK  6 active torsions:
REMARK  status: ('A' for Active; 'I' for Inactive)
REMARK    1  A    between atoms: O_10  and  C_1 
REMARK    2  A    between atoms: O_9  and  C_6 
REMARK    3  A    between atoms: O_12  and  C_8 
REMARK    4  A    between atoms: C_13  and  O_9 
REMARK    5  A    between atoms: C_19  and  O_10 
REMARK    6  A    between atoms: C_14  and  O_12 
ROOT
ATOM      1  C   UNL d   1     -48.449  13.604  23.185  0.00  0.00     0.161 A 
ATOM      2  C   UNL d   1     -46.927  12.962  23.096  0.00  0.00     0.128 A 
ATOM      3  C   UNL d   1     -47.573  12.497  23.372  0.00  0.00     0.066 A 
ATOM      4  C   UNL d   1     -48.326  12.826  23.412  0.00  0.00     0.222 A 
ATOM      5  O   UNL d   1     -47.046  13.747  22.866  0.00  0.00    -0.303 OA
ATOM      6  C   UNL d   1     -46.168  12.638  23.052  0.00  0.00     0.149 A 
ATOM      7  C   UNL d   1     -47.803  14.069  22.909  0.00  0.00     0.126 A 
ATOM      8  C   UNL d   1     -46.053  11.858  23.282  0.00  0.00     0.128 A 
ATOM      9  C   UNL d   1     -47.448  11.717  23.599  0.00  0.00     0.007 A 
ATOM     10  O   UNL d   1     -48.957  12.372  23.682  0.00  0.00    -0.284 OA
ATOM     11  C   UNL d   1     -46.700  11.393  23.558  0.00  0.00     0.027 A 
ATOM     12  C   UNL d   1     -47.932  14.866  22.677  0.00  0.00     0.029 C 
ENDROOT
BRANCH   1  13
ATOM     13  O   UNL d   1     -49.212  13.946  23.224  0.00  0.00    -0.302 OA
BRANCH  13  14
ATOM     14  C   UNL d   1     -49.767  13.758  22.645  0.00  0.00     0.100 A 
ATOM     15  C   UNL d   1     -49.669  14.039  21.877  0.00  0.00     0.025 A 
ATOM     16  C   UNL d   1     -50.226  13.851  21.296  0.00  0.00     0.002 A 
ATOM     17  C   UNL d   1     -50.879  13.382  21.484  0.00  0.00     0.000 A 
ATOM     18  C   UNL d   1     -50.974  13.102  22.255  0.00  0.00     0.002 A 
ATOM     19  C   UNL d   1     -50.417  13.291  22.836  0.00  0.00     0.025 A 
ENDBRANCH  13  14
ENDBRANCH   1  13
BRANCH   6  20
ATOM     20  O   UNL d   1     -45.539  13.090  22.784  0.00  0.00    -0.269 OA
BRANCH  20  21
ATOM     21  C   UNL d   1     -45.279  13.015  22.005  0.00  0.00     0.300 C 
ATOM     22  O   UNL d   1     -45.828  12.960  21.392  0.00  0.00    -0.259 OA
ATOM     23  C   UNL d   1     -44.470  12.994  21.839  0.00  0.00     0.074 C 
ENDBRANCH  20  21
ENDBRANCH   6  20
BRANCH   8  24
ATOM     24  O   UNL d   1     -45.282  11.518  23.241  0.00  0.00    -0.271 OA
BRANCH  24  25
ATOM     25  C   UNL d   1     -45.147  10.760  23.543  0.00  0.00     0.300 C 
ATOM     26  O   UNL d   1     -45.787  10.268  23.688  0.00  0.00    -0.259 OA
ATOM     27  C   UNL d   1     -44.380  10.506  23.696  0.00  0.00     0.074 C 
ENDBRANCH  24  25
ENDBRANCH   8  24
TORSDOF 6
ENDMDL
MODEL 2
REMARK VINA RESULT:      -8.4      1.252      4.672
REMARK  6 active torsions:
REMARK  status: ('A' for Active; 'I' for Inactive)
REMARK    1  A    between atoms: O_10  and  C_1 
REMARK    2  A    between atoms: O_9  and  C_6 
REMARK    3  A    between atoms: O_12  and  C_8 
REMARK    4  A    between atoms: C_13  and  O_9 
REMARK    5  A    between atoms: C_19  and  O_10 
REMARK    6  A    between atoms: C_14  and  O_12 
ROOT
ATOM      1  C   UNL d   1     -46.742  13.332  23.316  0.00  0.00     0.161 A 
ATOM      2  C   UNL d   1     -48.373  13.431  23.055  0.00  0.00     0.128 A 
ATOM      3  C   UNL d   1     -47.877  14.101  22.931  0.00  0.00     0.066 A 
ATOM      4  C   UNL d   1     -47.067  14.041  23.064  0.00  0.00     0.222 A 
ATOM      5  O   UNL d   1     -48.049  12.714  23.309  0.00  0.00    -0.303 OA
ATOM      6  C   UNL d   1     -49.187  13.484  22.923  0.00  0.00     0.149 A 
ATOM      7  C   UNL d   1     -47.238  12.662  23.439  0.00  0.00     0.126 A 
ATOM      8  C   UNL d   1     -49.505  14.197  22.671  0.00  0.00     0.128 A 
ATOM      9  C   UNL d   1     -48.205  14.811  22.679  0.00  0.00     0.007 A 
ATOM     10  O   UNL d   1     -46.583  14.696  22.944  0.00  0.00    -0.284 OA
ATOM     11  C   UNL d   1     -49.009  14.868  22.547  0.00  0.00     0.027 A 
ATOM     12  C   UNL d   1     -46.901  11.936  23.698  0.00  0.00     0.029 C 
ENDROOT
BRANCH   1  13
ATOM     13  O   UNL d   1     -45.919  13.264  23.453  0.00  0.00    -0.302 OA
BRANCH  13  14
ATOM     14  C   UNL d   1     -45.425  13.042  22.834  0.00  0.00     0.100 A 
ATOM     15  C   UNL d   1     -45.117  12.278  22.809  0.00  0.00     0.025 A 
ATOM     16  C   UNL d   1     -44.620  12.055  22.186  0.00  0.00     0.002 A 
ATOM     17  C   UNL d   1     -44.434  12.596  21.591  0.00  0.00     0.000 A 
ATOM     18  C   UNL d   1     -44.745  13.360  21.619  0.00  0.00     0.002 A 
ATOM     19  C   UNL d   1     -45.241  13.583  22.242  0.00  0.00     0.025 A 
ENDBRANCH  13  14
ENDBRANCH   1  13
BRANCH   6  20
ATOM     20  O   UNL d   1     -49.669  12.832  23.043  0.00  0.00    -0.269 OA
BRANCH  20  21
ATOM     21  C   UNL d   1     -49.850  12.331  22.415  0.00  0.00     0.300 C 
ATOM     22  O   UNL d   1     -49.605  12.524  21.651  0.00  0.00    -0.259 OA
ATOM     23  C   UNL d   1     -50.277  11.635  22.549  0.00  0.00     0.074 C 
ENDBRANCH  20  21
ENDBRANCH   6  20
BRANCH   8  24
ATOM     24  O   UNL d   1     -50.335  14.261  22.534  0.00  0.00    -0.271 OA
BRANCH  24  25
ATOM     25  C   UNL d   1     -50.714  14.991  22.622  0.00  0.00     0.300 C 
ATOM     26  O   UNL d   1     -50.737  15.509  21.987  0.00  0.00    -0.259 OA
ATOM     27  C   UNL d   1     -51.064  15.192  23.339  0.00  0.00     0.074 C 
ENDBRANCH  24  25
ENDBRANCH   8  24
TORSDOF 6
ENDMDL
MODEL 3
REMARK VINA RESULT:      -7.8      1.181      4.333
REMARK  6 active torsions:
REMARK  status: ('A' for Active; 'I' for Inactive)
REMARK    1  A    between atoms: O_10  and  C_1 
REMARK    2  A    between atoms: O_9  and  C_6 
REMARK    3  A    between atoms: O_12  and  C_8 
REMARK    4  A    between atoms: C_13  and  O_9 
REMARK    5  A    between atoms: C_19  and  O_10 
REMARK    6  A    between atoms: C_14  and  O_12 
ROOT
ATOM      1  C   UNL d   1     -46.500  13.277  23.150  0.00  0.00     0.161 A 
ATOM      2  C   UNL d   1     -48.074  13.592  22.748  0.00  0.00     0.128 A 
ATOM      3  C   UNL d   1     -47.830  12.810  22.947  0.00  0.00     0.066 A 
ATOM      4  C   UNL d   1     -47.044  12.665  23.145  0.00  0.00     0.222 A 
ATOM      5  O   UNL d   1     -47.528  14.213  22.752  0.00  0.00    -0.303 OA
ATOM      6  C   UNL d   1     -48.860  13.745  22.548  0.00  0.00     0.149 A 
ATOM      7  C   UNL d   1     -46.744  14.059  22.951  0.00  0.00     0.126 A 
ATOM      8  C   UNL d   1     -49.400  13.127  22.545  0.00  0.00     0.128 A 
ATOM      9  C   UNL d   1     -48.377  12.197  22.941  0.00  0.00     0.007 A 
ATOM     10  O   UNL d   1     -46.806  11.901  23.339  0.00  0.00    -0.284 OA
ATOM     11  C   UNL d   1     -49.156  12.345  22.744  0.00  0.00     0.027 A 
ATOM     12  C   UNL d   1     -46.183  14.685  22.958  0.00  0.00     0.029 C 
ENDROOT
BRANCH   1  13
ATOM     13  O   UNL d   1     -45.700  13.137  23.351  0.00  0.00    -0.302 OA
BRANCH  13  14
ATOM     14  C   UNL d   1     -45.173  12.901  22.764  0.00  0.00     0.100 A 
ATOM     15  C   UNL d   1     -45.023  13.397  22.124  0.00  0.00     0.025 A 
ATOM     16  C   UNL d   1     -44.494  13.159  21.534  0.00  0.00     0.002 A 
ATOM     17  C   UNL d   1     -44.117  12.427  21.586  0.00  0.00     0.000 A 
ATOM     18  C   UNL d   1     -44.269  11.932  22.229  0.00  0.00     0.002 A 
ATOM     19  C   UNL d   1     -44.798  12.170  22.819  0.00  0.00     0.025 A 
ENDBRANCH  13  14
ENDBRANCH   1  13
BRANCH   6  20
ATOM     20  O   UNL d   1     -49.098  14.506  22.355  0.00  0.00    -0.269 OA
BRANCH  20  21
ATOM     21  C   UNL d   1     -49.421  14.997  22.933  0.00  0.00     0.300 C 
ATOM     22  O   UNL d   1     -49.538  14.710  23.697  0.00  0.00    -0.259 OA
ATOM     23  C   UNL d   1     -49.627  15.776  22.746  0.00  0.00     0.074 C 
ENDBRANCH  20  21
ENDBRANCH   6  20
BRANCH   8  24
ATOM     24  O   UNL d   1     -50.205  13.273  22.343  0.00  0.00    -0.271 OA
BRANCH  24  25
ATOM     25  C   UNL d   1     -50.709  12.643  22.163  0.00  0.00     0.300 C 
ATOM     26  O   UNL d   1     -51.063  12.228  22.775  0.00  0.00    -0.259 OA
ATOM     27  C   UNL d   1     -50.851  12.435  21.379  0.00  0.00     0.074 C 
ENDBRANCH  24  25
ENDBRANCH   8  24
TORSDOF 6
ENDMDL
MODEL 4
REMARK VINA RESULT:      -7.4      7.371      9.787
REMARK  6 active torsions:
REMARK  status: ('A' for Active; 'I' for Inactive)
REMARK    1  A    between atoms: O_10  and  C_1 
REMARK    2  A    between atoms: O_9  and  C_6 
REMARK    3  A    between atoms: O_12  and  C_8 
REMARK    4  A    between atoms: C_13  and  O_9 
REMARK    5  A    between atoms: C_19  and  O_10 
REMARK    6  A    between atoms: C_14  and  O_12 
ROOT
ATOM      1  C   UNL d   1     -39.669  14.345  17.849  0.00  0.00     0.161 A 
ATOM      2  C   UNL d   1     -39.674  14.733  19.457  0.00  0.00     0.128 A 
ATOM      3  C   UNL d   1     -39.165  14.128  19.163  0.00  0.00     0.066 A 
ATOM      4  C   UNL d   1     -39.171  13.944  18.361  0.00  0.00     0.222 A 
ATOM      5  O   UNL d   1     -40.178  15.141  18.944  0.00  0.00    -0.303 OA
ATOM      6  C   UNL d   1     -39.673  14.923  20.261  0.00  0.00     0.149 A 
ATOM      7  C   UNL d   1     -40.177  14.950  18.143  0.00  0.00     0.126 A 
ATOM      8  C   UNL d   1     -39.172  14.517  20.768  0.00  0.00     0.128 A 
ATOM      9  C   UNL d   1     -38.667  13.727  19.678  0.00  0.00     0.007 A 
ATOM     10  O   UNL d   1     -38.675  13.354  18.074  0.00  0.00    -0.284 OA
ATOM     11  C   UNL d   1     -38.663  13.912  20.474  0.00  0.00     0.027 A 
ATOM     12  C   UNL d   1     -40.687  15.360  17.615  0.00  0.00     0.029 C 
ENDROOT
BRANCH   1  13
ATOM     13  O   UNL d   1     -39.680  14.163  17.032  0.00  0.00    -0.302 OA
BRANCH  13  14
ATOM     14  C   UNL d   1     -39.101  14.481  16.541  0.00  0.00     0.100 A 
ATOM     15  C   UNL d   1     -39.088  15.291  16.394  0.00  0.00     0.025 A 
ATOM     16  C   UNL d   1     -38.506  15.610  15.901  0.00  0.00     0.002 A 
ATOM     17  C   UNL d   1     -37.940  15.118  15.556  0.00  0.00     0.000 A 
ATOM     18  C   UNL d   1     -37.957  14.307  15.705  0.00  0.00     0.002 A 
ATOM     19  C   UNL d   1     -38.538  13.987  16.198  0.00  0.00     0.025 A 
ENDBRANCH  13  14
ENDBRANCH   1  13
BRANCH   6  20
ATOM     20  O   UNL d   1     -40.168  15.511  20.548  0.00  0.00    -0.269 OA
BRANCH  20  21
ATOM     21  C   UNL d   1     -40.923  15.321  20.816  0.00  0.00     0.300 C 
ATOM     22  O   UNL d   1     -41.145  14.531  20.893  0.00  0.00    -0.259 OA
ATOM     23  C   UNL d   1     -41.458  15.922  21.008  0.00  0.00     0.074 C 
ENDBRANCH  20  21
ENDBRANCH   6  20
BRANCH   8  24
ATOM     24  O   UNL d   1     -39.164  14.704  21.590  0.00  0.00    -0.271 OA
BRANCH  24  25
ATOM     25  C   UNL d   1     -38.498  14.530  22.049  0.00  0.00     0.300 C 
ATOM     26  O   UNL d   1     -37.960  15.127  22.214  0.00  0.00    -0.259 OA
ATOM     27  C   UNL d   1     -38.379  13.768  22.335  0.00  0.00     0.074 C 
ENDBRANCH  24  25
ENDBRANCH   8  24
TORSDOF 6
ENDMDL
MODEL 5
REMARK VINA RESULT:      -7.4      1.060      2.133
REMARK  6 active torsions:
REMARK  status: ('A' for Active; 'I' for Inactive)
REMARK    1  A    between atoms: O_10  and  C_1 
REMARK    2  A    between atoms: O_9  and  C_6 
REMARK    3  A    between atoms: O_12  and  C_8 
REMARK    4  A    between atoms: C_13  and  O_9 
REMARK    5  A    between atoms: C_19  and  O_10 
REMARK    6  A    between atoms: C_14  and  O_12 
ROOT
ATOM      1  C   UNL d   1     -48.928  12.656  22.573  0.00  0.00     0.161 A 
ATOM      2  C   UNL d   1     -47.305  12.480  22.844  0.00  0.00     0.128 A 
ATOM      3  C   UNL d   1     -47.585  12.966  22.215  0.00  0.00     0.066 A 
ATOM      4  C   UNL d   1     -48.395  13.046  22.089  0.00  0.00     0.222 A 
ATOM      5  O   UNL d   1     -47.840  12.084  23.335  0.00  0.00    -0.303 OA
ATOM      6  C   UNL d   1     -46.494  12.395  22.976  0.00  0.00     0.149 A 
ATOM      7  C   UNL d   1     -48.648  12.170  23.203  0.00  0.00     0.126 A 
ATOM      8  C   UNL d   1     -45.966  12.789  22.487  0.00  0.00     0.128 A 
ATOM      9  C   UNL d   1     -47.049  13.356  21.730  0.00  0.00     0.007 A 
ATOM     10  O   UNL d   1     -48.668  13.520  21.475  0.00  0.00    -0.284 OA
ATOM     11  C   UNL d   1     -46.246  13.275  21.857  0.00  0.00     0.027 A 
ATOM     12  C   UNL d   1     -49.198  11.771  23.698  0.00  0.00     0.029 C 
ENDROOT
BRANCH   1  13
ATOM     13  O   UNL d   1     -49.753  12.733  22.452  0.00  0.00    -0.302 OA
BRANCH  13  14
ATOM     14  C   UNL d   1     -50.127  13.434  22.663  0.00  0.00     0.100 A 
ATOM     15  C   UNL d   1     -50.327  13.983  22.083  0.00  0.00     0.025 A 
ATOM     16  C   UNL d   1     -50.703  14.689  22.296  0.00  0.00     0.002 A 
ATOM     17  C   UNL d   1     -50.877  14.842  23.088  0.00  0.00     0.000 A 
ATOM     18  C   UNL d   1     -50.676  14.290  23.667  0.00  0.00     0.002 A 
ATOM     19  C   UNL d   1     -50.299  13.585  23.454  0.00  0.00     0.025 A 
ENDBRANCH  13  14
ENDBRANCH   1  13
BRANCH   6  20
ATOM     20  O   UNL d   1     -46.222  11.922  23.589  0.00  0.00    -0.269 OA
BRANCH  20  21
ATOM     21  C   UNL d   1     -46.043  11.130  23.451  0.00  0.00     0.300 C 
ATOM     22  O   UNL d   1     -46.590  10.646  23.067  0.00  0.00    -0.259 OA
ATOM     23  C   UNL d   1     -45.317  10.820  23.697  0.00  0.00     0.074 C 
ENDBRANCH  20  21
ENDBRANCH   6  20
BRANCH   8  24
ATOM     24  O   UNL d   1     -45.136  12.708  22.614  0.00  0.00    -0.271 OA
BRANCH  24  25
ATOM     25  C   UNL d   1     -44.602  13.130  22.144  0.00  0.00     0.300 C 
ATOM     26  O   UNL d   1     -44.543  13.943  22.240  0.00  0.00    -0.259 OA
ATOM     27  C   UNL d   1     -44.138  12.739  21.589  0.00  0.00     0.074 C 
ENDBRANCH  24  25
ENDBRANCH   8  24
TORSDOF 6
ENDMDL
