MODEL 1
REMARK VINA RESULT:       4.5      0.000      0.000
REMARK  1 active torsions:
REMARK  status: ('A' for Active; 'I' for Inactive)
REMARK    1  A    between atoms: O_8  and  C_4 
ROOT
ATOM      1  C   UNL d   1      45.492 -13.356  44.387  0.00  0.00     0.021 A 
ATOM      2  C   UNL d   1      44.873 -13.370  43.842  0.00  0.00     0.024 A 
ATOM      3  C   UNL d   1      46.028 -12.729  44.402  0.00  0.00     0.103 A 
ATOM      4  C   UNL d   1      44.784 -12.756  43.307  0.00  0.00     0.094 A 
ATOM      5  C   UNL d   1      45.942 -12.108  43.864  0.00  0.00     0.023 A 
ATOM      6  C   UNL d   1      45.323 -12.121  43.319  0.00  0.00     0.026 A 
ATOM      7  N   UNL d   1      46.647 -12.726  44.955  0.00  0.00    -0.148 N 
ATOM      8  C   UNL d   1      45.580 -13.974  44.924  0.00  0.00     0.002 A 
ATOM      9  C   UNL d   1      44.345 -14.000  43.836  0.00  0.00     0.002 A 
ATOM     10  C   UNL d   1      45.051 -14.608  44.919  0.00  0.00     0.000 A 
ATOM     11  C   UNL d   1      44.431 -14.621  44.374  0.00  0.00     0.000 A 
ENDROOT
BRANCH   4  12
ATOM     12  O   UNL d   1      44.162 -12.769  42.759  0.00  0.00    -0.328 OA
ATOM     13  C   UNL d   1      44.026 -12.122  42.275  0.00  0.00     0.181 C 
ENDBRANCH   4  12
TORSDOF 1
ENDMDL
MODEL 2
REMARK VINA RESULT:       5.0      0.912      1.818
REMARK  1 active torsions:
REMARK  status: ('A' for Active; 'I' for Inactive)
REMARK    1  A    between atoms: O_8  and  C_4 
ROOT
ATOM      1  C   UNL d   1      45.494 -13.337  44.386  0.00  0.00     0.021 A 
ATOM      2  C   UNL d   1      45.415 -12.714  43.851  0.00  0.00     0.024 A 
ATOM      3  C   UNL d   1      44.964 -13.970  44.378  0.00  0.00     0.103 A 
ATOM      4  C   UNL d   1      44.806 -12.718  43.304  0.00  0.00     0.094 A 
ATOM      5  C   UNL d   1      44.349 -13.978  43.827  0.00  0.00     0.023 A 
ATOM      6  C   UNL d   1      44.270 -13.355  43.293  0.00  0.00     0.026 A 
ATOM      7  N   UNL d   1      45.054 -14.591  44.920  0.00  0.00    -0.148 N 
ATOM      8  C   UNL d   1      46.106 -13.332  44.936  0.00  0.00     0.002 A 
ATOM      9  C   UNL d   1      45.948 -12.088  43.869  0.00  0.00     0.002 A 
ATOM     10  C   UNL d   1      46.643 -12.704  44.955  0.00  0.00     0.000 A 
ATOM     11  C   UNL d   1      46.564 -12.080  44.420  0.00  0.00     0.000 A 
ENDROOT
BRANCH   4  12
ATOM     12  O   UNL d   1      44.727 -12.091  42.766  0.00  0.00    -0.328 OA
ATOM     13  C   UNL d   1      44.120 -12.097  42.215  0.00  0.00     0.181 C 
ENDBRANCH   4  12
TORSDOF 1
ENDMDL
