MODEL 1
REMARK VINA RESULT:      -8.2      0.000      0.000
REMARK  7 active torsions:
REMARK  status: ('A' for Active; 'I' for Inactive)
REMARK    1  A    between atoms: S_8  and  C_3 
REMARK    2  A    between atoms: C_4  and  C_15 
REMARK       I    between atoms: N_7  and  C_4 
REMARK    3  A    between atoms: C_13  and  C_5 
REMARK    4  A    between atoms: C_6  and  C_9 
REMARK    5  A    between atoms: C_9  and  N_7 
REMARK    6  A    between atoms: C_15  and  S_8 
REMARK    7  A    between atoms: O_17  and  C_11 
ROOT
ATOM      1  S   UNL d   1      50.676  34.206  52.319  0.00  0.00    -0.061 SA
ENDROOT
BRANCH   1   2
ATOM      2  C   UNL d   1      51.358  34.033  52.764  0.00  0.00     0.133 A 
ATOM      3  N   UNL d   1      51.372  33.387  53.280  0.00  0.00    -0.141 NA
ATOM      4  N   UNL d   1      52.059  33.224  53.719  0.00  0.00    -0.148 NA
ATOM      5  C   UNL d   1      52.724  33.705  53.641  0.00  0.00     0.103 A 
ATOM      6  C   UNL d   1      52.710  34.350  53.126  0.00  0.00     0.023 A 
ATOM      7  C   UNL d   1      52.031  34.515  52.689  0.00  0.00     0.029 A 
BRANCH   5   8
ATOM      8  C   UNL d   1      53.403  33.540  54.079  0.00  0.00     0.022 A 
ATOM      9  C   UNL d   1      53.954  32.998  53.793  0.00  0.00     0.022 A 
ATOM     10  C   UNL d   1      54.636  32.832  54.230  0.00  0.00     0.099 A 
ATOM     11  N   UNL d   1      54.765  33.211  54.957  0.00  0.00    -0.242 NA
ATOM     12  C   UNL d   1      54.211  33.755  55.243  0.00  0.00     0.099 A 
ATOM     13  C   UNL d   1      53.532  33.920  54.805  0.00  0.00     0.022 A 
ENDBRANCH   5   8
ENDBRANCH   1   2
BRANCH   1  14
ATOM     14  C   UNL d   1      50.015  34.545  52.681  0.00  0.00     0.099 C 
BRANCH  14  15
ATOM     15  C   UNL d   1      49.358  34.747  52.227  0.00  0.00     0.286 C 
ATOM     16  N   UNL d   1      48.749  35.212  52.557  0.00  0.00    -0.206 NA
ATOM     17  O   UNL d   1      49.302  34.490  51.443  0.00  0.00    -0.265 OA
BRANCH  16  18
ATOM     18  C   UNL d   1      48.091  35.414  52.103  0.00  0.00     0.104 C 
BRANCH  18  19
ATOM     19  C   UNL d   1      47.469  35.847  52.442  0.00  0.00     0.042 A 
ATOM     20  C   UNL d   1      46.743  35.897  52.056  0.00  0.00     0.096 A 
ATOM     21  C   UNL d   1      46.124  36.328  52.393  0.00  0.00     0.024 A 
ATOM     22  C   UNL d   1      46.231  36.709  53.116  0.00  0.00     0.002 A 
ATOM     23  C   UNL d   1      46.958  36.659  53.502  0.00  0.00     0.000 A 
ATOM     24  C   UNL d   1      47.577  36.228  53.165  0.00  0.00     0.004 A 
BRANCH  20  25
ATOM     25  O   UNL d   1      46.638  35.506  51.318  0.00  0.00    -0.328 OA
ATOM     26  C   UNL d   1      45.928  35.591  50.906  0.00  0.00     0.181 C 
ENDBRANCH  20  25
ENDBRANCH  18  19
ENDBRANCH  16  18
ENDBRANCH  14  15
ENDBRANCH   1  14
TORSDOF 7
ENDMDL
MODEL 2
REMARK VINA RESULT:      -7.5      1.458      6.457
REMARK  7 active torsions:
REMARK  status: ('A' for Active; 'I' for Inactive)
REMARK    1  A    between atoms: S_8  and  C_3 
REMARK    2  A    between atoms: C_4  and  C_15 
REMARK       I    between atoms: N_7  and  C_4 
REMARK    3  A    between atoms: C_13  and  C_5 
REMARK    4  A    between atoms: C_6  and  C_9 
REMARK    5  A    between atoms: C_9  and  N_7 
REMARK    6  A    between atoms: C_15  and  S_8 
REMARK    7  A    between atoms: O_17  and  C_11 
ROOT
ATOM      1  S   UNL d   1      50.189  34.367  52.168  0.00  0.00    -0.061 SA
ENDROOT
BRANCH   1   2
ATOM      2  C   UNL d   1      49.461  34.760  52.270  0.00  0.00     0.133 A 
ATOM      3  N   UNL d   1      49.286  35.146  52.979  0.00  0.00    -0.141 NA
ATOM      4  N   UNL d   1      48.557  35.535  53.069  0.00  0.00    -0.148 NA
ATOM      5  C   UNL d   1      48.010  35.536  52.453  0.00  0.00     0.103 A 
ATOM      6  C   UNL d   1      48.184  35.151  51.743  0.00  0.00     0.023 A 
ATOM      7  C   UNL d   1      48.906  34.764  51.650  0.00  0.00     0.029 A 
BRANCH   5   8
ATOM      8  C   UNL d   1      47.287  35.923  52.545  0.00  0.00     0.022 A 
ATOM      9  C   UNL d   1      47.118  36.313  53.252  0.00  0.00     0.022 A 
ATOM     10  C   UNL d   1      46.394  36.701  53.346  0.00  0.00     0.099 A 
ATOM     11  N   UNL d   1      45.838  36.698  52.729  0.00  0.00    -0.242 NA
ATOM     12  C   UNL d   1      46.010  36.306  52.021  0.00  0.00     0.099 A 
ATOM     13  C   UNL d   1      46.732  35.920  51.929  0.00  0.00     0.022 A 
ENDBRANCH   5   8
ENDBRANCH   1   2
BRANCH   1  14
ATOM     14  C   UNL d   1      50.721  34.303  52.796  0.00  0.00     0.099 C 
BRANCH  14  15
ATOM     15  C   UNL d   1      51.417  33.873  52.701  0.00  0.00     0.286 C 
ATOM     16  N   UNL d   1      51.909  33.724  53.358  0.00  0.00    -0.206 NA
ATOM     17  O   UNL d   1      51.629  33.590  51.953  0.00  0.00    -0.265 OA
BRANCH  16  18
ATOM     18  C   UNL d   1      52.606  33.294  53.263  0.00  0.00     0.104 C 
BRANCH  18  19
ATOM     19  C   UNL d   1      53.139  33.221  53.894  0.00  0.00     0.042 A 
ATOM     20  C   UNL d   1      53.478  32.490  54.067  0.00  0.00     0.096 A 
ATOM     21  C   UNL d   1      54.009  32.418  54.695  0.00  0.00     0.024 A 
ATOM     22  C   UNL d   1      54.201  33.077  55.152  0.00  0.00     0.002 A 
ATOM     23  C   UNL d   1      53.862  33.808  54.979  0.00  0.00     0.000 A 
ATOM     24  C   UNL d   1      53.331  33.880  54.351  0.00  0.00     0.004 A 
BRANCH  20  25
ATOM     25  O   UNL d   1      53.279  31.820  53.598  0.00  0.00    -0.328 OA
ATOM     26  C   UNL d   1      53.682  31.109  53.707  0.00  0.00     0.181 C 
ENDBRANCH  20  25
ENDBRANCH  18  19
ENDBRANCH  16  18
ENDBRANCH  14  15
ENDBRANCH   1  14
TORSDOF 7
ENDMDL
MODEL 3
REMARK VINA RESULT:      -6.9      1.276      1.777
REMARK  7 active torsions:
REMARK  status: ('A' for Active; 'I' for Inactive)
REMARK    1  A    between atoms: S_8  and  C_3 
REMARK    2  A    between atoms: C_4  and  C_15 
REMARK       I    between atoms: N_7  and  C_4 
REMARK    3  A    between atoms: C_13  and  C_5 
REMARK    4  A    between atoms: C_6  and  C_9 
REMARK    5  A    between atoms: C_9  and  N_7 
REMARK    6  A    between atoms: C_15  and  S_8 
REMARK    7  A    between atoms: O_17  and  C_11 
ROOT
ATOM      1  S   UNL d   1      50.491  34.746  52.891  0.00  0.00    -0.061 SA
ENDROOT
BRANCH   1   2
ATOM      2  C   UNL d   1      51.025  34.112  52.976  0.00  0.00     0.133 A 
ATOM      3  N   UNL d   1      50.793  33.413  53.350  0.00  0.00    -0.141 NA
ATOM      4  N   UNL d   1      51.334  32.786  53.428  0.00  0.00    -0.148 NA
ATOM      5  C   UNL d   1      52.101  32.863  53.135  0.00  0.00     0.103 A 
ATOM      6  C   UNL d   1      52.333  33.562  52.761  0.00  0.00     0.023 A 
ATOM      7  C   UNL d   1      51.800  34.184  52.681  0.00  0.00     0.029 A 
BRANCH   5   8
ATOM      8  C   UNL d   1      52.635  32.240  53.215  0.00  0.00     0.022 A 
ATOM      9  C   UNL d   1      53.347  32.358  53.614  0.00  0.00     0.022 A 
ATOM     10  C   UNL d   1      53.884  31.734  53.695  0.00  0.00     0.099 A 
ATOM     11  N   UNL d   1      53.705  30.989  53.374  0.00  0.00    -0.242 NA
ATOM     12  C   UNL d   1      52.990  30.872  52.975  0.00  0.00     0.099 A 
ATOM     13  C   UNL d   1      52.456  31.495  52.895  0.00  0.00     0.022 A 
ENDBRANCH   5   8
ENDBRANCH   1   2
BRANCH   1  14
ATOM     14  C   UNL d   1      49.683  34.602  52.797  0.00  0.00     0.099 C 
BRANCH  14  15
ATOM     15  C   UNL d   1      49.142  35.210  52.925  0.00  0.00     0.286 C 
ATOM     16  N   UNL d   1      48.426  35.229  52.498  0.00  0.00    -0.206 NA
ATOM     17  O   UNL d   1      49.308  35.802  53.479  0.00  0.00    -0.265 OA
BRANCH  16  18
ATOM     18  C   UNL d   1      47.884  35.837  52.626  0.00  0.00     0.104 C 
BRANCH  18  19
ATOM     19  C   UNL d   1      47.171  35.855  52.202  0.00  0.00     0.042 A 
ATOM     20  C   UNL d   1      46.508  36.223  52.524  0.00  0.00     0.096 A 
ATOM     21  C   UNL d   1      45.798  36.241  52.103  0.00  0.00     0.024 A 
ATOM     22  C   UNL d   1      45.751  35.890  51.359  0.00  0.00     0.002 A 
ATOM     23  C   UNL d   1      46.414  35.521  51.036  0.00  0.00     0.000 A 
ATOM     24  C   UNL d   1      47.124  35.504  51.458  0.00  0.00     0.004 A 
BRANCH  20  25
ATOM     25  O   UNL d   1      46.561  36.581  53.285  0.00  0.00    -0.328 OA
ATOM     26  C   UNL d   1      45.876  36.709  53.726  0.00  0.00     0.181 C 
ENDBRANCH  20  25
ENDBRANCH  18  19
ENDBRANCH  16  18
ENDBRANCH  14  15
ENDBRANCH   1  14
TORSDOF 7
ENDMDL
MODEL 4
REMARK VINA RESULT:      -5.6      1.966      2.550
REMARK  7 active torsions:
REMARK  status: ('A' for Active; 'I' for Inactive)
REMARK    1  A    between atoms: S_8  and  C_3 
REMARK    2  A    between atoms: C_4  and  C_15 
REMARK       I    between atoms: N_7  and  C_4 
REMARK    3  A    between atoms: C_13  and  C_5 
REMARK    4  A    between atoms: C_6  and  C_9 
REMARK    5  A    between atoms: C_9  and  N_7 
REMARK    6  A    between atoms: C_15  and  S_8 
REMARK    7  A    between atoms: O_17  and  C_11 
ROOT
ATOM      1  S   UNL d   1      51.910  33.854  52.852  0.00  0.00    -0.061 SA
ENDROOT
BRANCH   1   2
ATOM      2  C   UNL d   1      52.165  33.072  52.986  0.00  0.00     0.133 A 
ATOM      3  N   UNL d   1      51.970  32.469  52.456  0.00  0.00    -0.141 NA
ATOM      4  N   UNL d   1      52.231  31.693  52.600  0.00  0.00    -0.148 NA
ATOM      5  C   UNL d   1      52.681  31.525  53.269  0.00  0.00     0.103 A 
ATOM      6  C   UNL d   1      52.876  32.128  53.799  0.00  0.00     0.023 A 
ATOM      7  C   UNL d   1      52.620  32.898  53.660  0.00  0.00     0.029 A 
BRANCH   5   8
ATOM      8  C   UNL d   1      52.938  30.753  53.409  0.00  0.00     0.022 A 
ATOM      9  C   UNL d   1      53.472  30.602  54.018  0.00  0.00     0.022 A 
ATOM     10  C   UNL d   1      53.730  29.829  54.159  0.00  0.00     0.099 A 
ATOM     11  N   UNL d   1      53.450  29.206  53.687  0.00  0.00    -0.242 NA
ATOM     12  C   UNL d   1      52.914  29.360  53.075  0.00  0.00     0.099 A 
ATOM     13  C   UNL d   1      52.658  30.131  52.936  0.00  0.00     0.022 A 
ENDBRANCH   5   8
ENDBRANCH   1   2
BRANCH   1  14
ATOM     14  C   UNL d   1      51.234  34.002  52.401  0.00  0.00     0.099 C 
BRANCH  14  15
ATOM     15  C   UNL d   1      50.700  34.582  52.641  0.00  0.00     0.286 C 
ATOM     16  N   UNL d   1      49.911  34.561  52.373  0.00  0.00    -0.206 NA
ATOM     17  O   UNL d   1      50.948  35.187  53.148  0.00  0.00    -0.265 OA
BRANCH  16  18
ATOM     18  C   UNL d   1      49.377  35.142  52.612  0.00  0.00     0.104 C 
BRANCH  18  19
ATOM     19  C   UNL d   1      48.660  35.240  52.207  0.00  0.00     0.042 A 
ATOM     20  C   UNL d   1      48.079  35.739  52.511  0.00  0.00     0.096 A 
ATOM     21  C   UNL d   1      47.365  35.837  52.107  0.00  0.00     0.024 A 
ATOM     22  C   UNL d   1      47.231  35.435  51.401  0.00  0.00     0.002 A 
ATOM     23  C   UNL d   1      47.812  34.936  51.097  0.00  0.00     0.000 A 
ATOM     24  C   UNL d   1      48.526  34.838  51.500  0.00  0.00     0.004 A 
BRANCH  20  25
ATOM     25  O   UNL d   1      48.220  36.148  53.233  0.00  0.00    -0.328 OA
ATOM     26  C   UNL d   1      47.677  36.709  53.500  0.00  0.00     0.181 C 
ENDBRANCH  20  25
ENDBRANCH  18  19
ENDBRANCH  16  18
ENDBRANCH  14  15
ENDBRANCH   1  14
TORSDOF 7
ENDMDL
MODEL 5
REMARK VINA RESULT:      -5.6      1.799      6.455
REMARK  7 active torsions:
REMARK  status: ('A' for Active; 'I' for Inactive)
REMARK    1  A    between atoms: S_8  and  C_3 
REMARK    2  A    between atoms: C_4  and  C_15 
REMARK       I    between atoms: N_7  and  C_4 
REMARK    3  A    between atoms: C_13  and  C_5 
REMARK    4  A    between atoms: C_6  and  C_9 
REMARK    5  A    between atoms: C_9  and  N_7 
REMARK    6  A    between atoms: C_15  and  S_8 
REMARK    7  A    between atoms: O_17  and  C_11 
ROOT
ATOM      1  S   UNL d   1      50.801  34.659  52.583  0.00  0.00    -0.061 SA
ENDROOT
BRANCH   1   2
ATOM      2  C   UNL d   1      50.025  34.948  52.684  0.00  0.00     0.133 A 
ATOM      3  N   UNL d   1      49.836  35.430  53.327  0.00  0.00    -0.141 NA
ATOM      4  N   UNL d   1      49.059  35.712  53.417  0.00  0.00    -0.148 NA
ATOM      5  C   UNL d   1      48.479  35.511  52.867  0.00  0.00     0.103 A 
ATOM      6  C   UNL d   1      48.668  35.028  52.224  0.00  0.00     0.023 A 
ATOM      7  C   UNL d   1      49.437  34.747  52.131  0.00  0.00     0.029 A 
BRANCH   5   8
ATOM      8  C   UNL d   1      47.709  35.792  52.959  0.00  0.00     0.022 A 
ATOM      9  C   UNL d   1      47.091  35.442  52.542  0.00  0.00     0.022 A 
ATOM     10  C   UNL d   1      46.319  35.723  52.634  0.00  0.00     0.099 A 
ATOM     11  N   UNL d   1      46.167  36.358  53.147  0.00  0.00    -0.242 NA
ATOM     12  C   UNL d   1      46.789  36.708  53.565  0.00  0.00     0.099 A 
ATOM     13  C   UNL d   1      47.558  36.427  53.472  0.00  0.00     0.022 A 
ENDBRANCH   5   8
ENDBRANCH   1   2
BRANCH   1  14
ATOM     14  C   UNL d   1      51.273  34.492  53.239  0.00  0.00     0.099 C 
BRANCH  14  15
ATOM     15  C   UNL d   1      52.038  34.206  53.131  0.00  0.00     0.286 C 
ATOM     16  N   UNL d   1      52.206  33.400  53.267  0.00  0.00    -0.206 NA
ATOM     17  O   UNL d   1      52.641  34.718  52.887  0.00  0.00    -0.265 OA
BRANCH  16  18
ATOM     18  C   UNL d   1      52.971  33.114  53.159  0.00  0.00     0.104 C 
BRANCH  18  19
ATOM     19  C   UNL d   1      53.144  32.318  53.317  0.00  0.00     0.042 A 
ATOM     20  C   UNL d   1      53.641  32.120  53.944  0.00  0.00     0.096 A 
ATOM     21  C   UNL d   1      53.813  31.327  54.101  0.00  0.00     0.024 A 
ATOM     22  C   UNL d   1      53.487  30.733  53.632  0.00  0.00     0.002 A 
ATOM     23  C   UNL d   1      52.990  30.931  53.006  0.00  0.00     0.000 A 
ATOM     24  C   UNL d   1      52.818  31.724  52.849  0.00  0.00     0.004 A 
BRANCH  20  25
ATOM     25  O   UNL d   1      53.972  32.730  54.420  0.00  0.00    -0.328 OA
ATOM     26  C   UNL d   1      54.245  32.556  55.178  0.00  0.00     0.181 C 
ENDBRANCH  20  25
ENDBRANCH  18  19
ENDBRANCH  16  18
ENDBRANCH  14  15
ENDBRANCH   1  14
TORSDOF 7
ENDMDL
