MODEL 1
REMARK VINA RESULT:      50.1      0.000      0.000
REMARK  6 active torsions:
REMARK  status: ('A' for Active; 'I' for Inactive)
REMARK    1  A    between atoms: S_11  and  C_2 
REMARK    2  A    between atoms: C_5  and  N_8 
REMARK       I    between atoms: N_8  and  C_13 
REMARK    3  A    between atoms: C_17  and  C_10 
REMARK    4  A    between atoms: C_16  and  S_11 
REMARK    5  A    between atoms: C_13  and  C_16 
REMARK    6  A    between atoms: C_18  and  C_17 
ROOT
ATOM      1  C   UNL d   1     -55.216-100.237 -43.818  0.00  0.00     0.197 A 
ATOM      2  N   UNL d   1     -54.903-100.065 -44.563  0.00  0.00    -0.219 NA
ATOM      3  S   UNL d   1     -55.888 -99.763 -43.720  0.00  0.00    -0.047 SA
ATOM      4  C   UNL d   1     -55.987 -99.308 -44.393  0.00  0.00     0.051 A 
ATOM      5  C   UNL d   1     -55.375 -99.496 -44.915  0.00  0.00     0.108 A 
ENDROOT
BRANCH   1   6
ATOM      6  N   UNL d   1     -54.918-100.777 -43.274  0.00  0.00    -0.182 NA
ATOM      7  C   UNL d   1     -55.037-101.585 -43.386  0.00  0.00     0.288 C 
ATOM      8  O   UNL d   1     -55.457-101.853 -44.050  0.00  0.00    -0.265 OA
BRANCH   7   9
ATOM      9  C   UNL d   1     -54.741-102.132 -42.846  0.00  0.00     0.101 C 
BRANCH   9  10
ATOM     10  S   UNL d   1     -54.722-101.956 -42.048  0.00  0.00    -0.041 SA
BRANCH  10  11
ATOM     11  C   UNL d   1     -55.299-102.263 -41.539  0.00  0.00     0.219 A 
ATOM     12  N   UNL d   1     -55.295-102.210 -40.718  0.00  0.00    -0.167 N 
ATOM     13  C   UNL d   1     -55.965-102.586 -40.437  0.00  0.00     0.189 A 
ATOM     14  N   UNL d   1     -54.715-101.841 -40.260  0.00  0.00    -0.038 N 
ATOM     15  N   UNL d   1     -56.390-102.875 -41.087  0.00  0.00    -0.126 NA
ATOM     16  C   UNL d   1     -56.186-102.666 -39.642  0.00  0.00     0.044 C 
ATOM     17  N   UNL d   1     -55.975-102.674 -41.764  0.00  0.00    -0.120 NA
ENDBRANCH  10  11
ENDBRANCH   9  10
ENDBRANCH   7   9
ENDBRANCH   1   6
BRANCH   4  18
ATOM     18  C   UNL d   1     -56.590 -98.761 -44.524  0.00  0.00     0.008 C 
BRANCH  18  19
ATOM     19  C   UNL d   1     -57.329 -98.881 -44.183  0.00  0.00     0.001 A 
ATOM     20  C   UNL d   1     -57.437 -98.756 -43.373  0.00  0.00     0.002 A 
ATOM     21  C   UNL d   1     -58.176 -98.876 -43.032  0.00  0.00     0.030 A 
ATOM     22  C   UNL d   1     -58.814 -99.122 -43.501  0.00  0.00     0.140 A 
ATOM     23  C   UNL d   1     -58.709 -99.247 -44.307  0.00  0.00     0.030 A 
ATOM     24  F   UNL d   1     -59.550 -99.241 -43.158  0.00  0.00    -0.204 F 
ATOM     25  C   UNL d   1     -57.967 -99.127 -44.652  0.00  0.00     0.002 A 
ENDBRANCH  18  19
ENDBRANCH   4  18
TORSDOF 6
ENDMDL
