MODEL 1
REMARK VINA RESULT:      64.4      0.000      0.000
REMARK  4 active torsions:
REMARK  status: ('A' for Active; 'I' for Inactive)
REMARK       I    between atoms: N_2  and  C_1 
REMARK    1  A    between atoms: C_4  and  C_1 
REMARK    2  A    between atoms: C_5  and  N_3 
REMARK    3  A    between atoms: O_21  and  C_8 
REMARK    4  A    between atoms: O_22  and  C_15 
ROOT
ATOM      1  C   UNL d   1      15.036  14.924  -0.722  0.00  0.00     0.265 C 
ATOM      2  N   UNL d   1      14.920  15.244  -1.470  0.00  0.00    -0.269 N 
ATOM      3  N   UNL d   1      14.690  15.882  -2.959  0.00  0.00    -0.301 N 
ATOM      4  C   UNL d   1      15.220  15.986  -1.643  0.00  0.00     0.102 A 
ATOM      5  C   UNL d   1      14.507  14.818  -2.033  0.00  0.00     0.102 A 
ATOM      6  C   UNL d   1      14.391  15.138  -2.780  0.00  0.00     0.100 A 
ATOM      7  C   UNL d   1      15.102  16.305  -2.396  0.00  0.00     0.100 A 
ATOM      8  O   UNL d   1      15.452  15.348  -0.151  0.00  0.00    -0.267 OA
ENDROOT
BRANCH   1   9
ATOM      9  C   UNL d   1      14.735  14.177  -0.545  0.00  0.00     0.059 A 
ATOM     10  C   UNL d   1      15.210  13.506  -0.646  0.00  0.00     0.031 A 
ATOM     11  C   UNL d   1      14.908  12.745  -0.468  0.00  0.00     0.116 A 
ATOM     12  C   UNL d   1      14.138  12.664  -0.191  0.00  0.00     0.116 A 
ATOM     13  C   UNL d   1      13.655  13.342  -0.088  0.00  0.00     0.026 A 
ATOM     14  C   UNL d   1      13.948  14.100  -0.263  0.00  0.00     0.007 A 
BRANCH  11  15
ATOM     15  O   UNL d   1      15.381  12.087  -0.569  0.00  0.00    -0.326 OA
ATOM     16  C   UNL d   1      15.658  11.881  -1.319  0.00  0.00     0.181 C 
ENDBRANCH  11  15
BRANCH  12  17
ATOM     17  O   UNL d   1      13.838  11.918  -0.014  0.00  0.00    -0.326 OA
ATOM     18  C   UNL d   1      13.025  11.780  -0.049  0.00  0.00     0.181 C 
ENDBRANCH  12  17
ENDBRANCH   1   9
BRANCH   3  19
ATOM     19  C   UNL d   1      14.798  16.503  -3.494  0.00  0.00     0.064 A 
ATOM     20  C   UNL d   1      14.833  16.352  -4.292  0.00  0.00     0.018 A 
ATOM     21  C   UNL d   1      14.941  16.967  -4.827  0.00  0.00     0.001 A 
ATOM     22  C   UNL d   1      14.975  16.805  -5.635  0.00  0.00     0.000 C 
ATOM     23  C   UNL d   1      15.015  17.741  -4.552  0.00  0.00     0.000 A 
ATOM     24  C   UNL d   1      14.979  17.891  -3.743  0.00  0.00     0.002 A 
ATOM     25  C   UNL d   1      15.124  18.365  -5.084  0.00  0.00     0.000 C 
ATOM     26  C   UNL d   1      14.871  17.276  -3.204  0.00  0.00     0.018 A 
ENDBRANCH   3  19
TORSDOF 4
ENDMDL
MODEL 2
REMARK VINA RESULT:      64.5      2.234      3.144
REMARK  4 active torsions:
REMARK  status: ('A' for Active; 'I' for Inactive)
REMARK       I    between atoms: N_2  and  C_1 
REMARK    1  A    between atoms: C_4  and  C_1 
REMARK    2  A    between atoms: C_5  and  N_3 
REMARK    3  A    between atoms: O_21  and  C_8 
REMARK    4  A    between atoms: O_22  and  C_15 
ROOT
ATOM      1  C   UNL d   1      14.045  15.059  -3.604  0.00  0.00     0.265 C 
ATOM      2  N   UNL d   1      14.031  15.675  -4.148  0.00  0.00    -0.269 N 
ATOM      3  N   UNL d   1      14.004  16.902  -5.229  0.00  0.00    -0.301 N 
ATOM      4  C   UNL d   1      14.349  16.401  -3.943  0.00  0.00     0.102 A 
ATOM      5  C   UNL d   1      13.700  15.556  -4.886  0.00  0.00     0.102 A 
ATOM      6  C   UNL d   1      13.687  16.172  -5.429  0.00  0.00     0.100 A 
ATOM      7  C   UNL d   1      14.334  17.019  -4.492  0.00  0.00     0.100 A 
ATOM      8  O   UNL d   1      14.377  15.172  -2.858  0.00  0.00    -0.267 OA
ENDROOT
BRANCH   1   9
ATOM      9  C   UNL d   1      13.725  14.326  -3.807  0.00  0.00     0.059 A 
ATOM     10  C   UNL d   1      13.995  13.639  -3.431  0.00  0.00     0.031 A 
ATOM     11  C   UNL d   1      13.673  12.893  -3.635  0.00  0.00     0.116 A 
ATOM     12  C   UNL d   1      13.087  12.843  -4.210  0.00  0.00     0.116 A 
ATOM     13  C   UNL d   1      12.812  13.536  -4.592  0.00  0.00     0.026 A 
ATOM     14  C   UNL d   1      13.127  14.280  -4.395  0.00  0.00     0.007 A 
BRANCH  11  15
ATOM     15  O   UNL d   1      13.943  12.219  -3.261  0.00  0.00    -0.326 OA
ATOM     16  C   UNL d   1      13.766  12.080  -2.466  0.00  0.00     0.181 C 
ENDBRANCH  11  15
BRANCH  12  17
ATOM     17  O   UNL d   1      12.769  12.110  -4.412  0.00  0.00    -0.326 OA
ATOM     18  C   UNL d   1      12.916  11.787  -5.157  0.00  0.00     0.181 C 
ENDBRANCH  12  17
ENDBRANCH   1   9
BRANCH   3  19
ATOM     19  C   UNL d   1      14.183  17.686  -5.424  0.00  0.00     0.064 A 
ATOM     20  C   UNL d   1      13.632  18.146  -5.806  0.00  0.00     0.018 A 
ATOM     21  C   UNL d   1      13.806  18.926  -6.002  0.00  0.00     0.001 A 
ATOM     22  C   UNL d   1      13.242  19.386  -6.389  0.00  0.00     0.000 C 
ATOM     23  C   UNL d   1      14.543  19.242  -5.809  0.00  0.00     0.000 A 
ATOM     24  C   UNL d   1      15.098  18.773  -5.422  0.00  0.00     0.002 A 
ATOM     25  C   UNL d   1      14.725  20.025  -6.002  0.00  0.00     0.000 C 
ATOM     26  C   UNL d   1      14.926  17.990  -5.224  0.00  0.00     0.018 A 
ENDBRANCH   3  19
TORSDOF 4
ENDMDL
