MODEL 1
REMARK VINA RESULT:      38.4      0.000      0.000
REMARK  4 active torsions:
REMARK  status: ('A' for Active; 'I' for Inactive)
REMARK    1  A    between atoms: C_10  and  C_2 
REMARK    2  A    between atoms: C_13  and  C_6 
REMARK    3  A    between atoms: O_17  and  C_10 
REMARK    4  A    between atoms: C_23  and  O_17 
ROOT
ATOM      1  C   UNL d   1     -58.433 -98.820 -43.796  0.00  0.00     0.081 A 
ATOM      2  C   UNL d   1     -58.632 -98.840 -45.215  0.00  0.00     0.106 A 
ATOM      3  C   UNL d   1     -59.454 -98.822 -45.105  0.00  0.00     0.208 A 
ATOM      4  C   UNL d   1     -59.256 -98.802 -43.686  0.00  0.00     0.108 A 
ATOM      5  C   UNL d   1     -57.928 -98.819 -43.140  0.00  0.00     0.281 A 
ATOM      6  C   UNL d   1     -58.118 -98.839 -44.561  0.00  0.00     0.015 A 
ATOM      7  O   UNL d   1     -59.760 -98.803 -44.334  0.00  0.00    -0.288 OA
ATOM      8  N   UNL d   1     -58.242 -98.800 -42.375  0.00  0.00    -0.208 NA
ATOM      9  C   UNL d   1     -59.575 -98.783 -42.921  0.00  0.00     0.044 A 
ATOM     10  C   UNL d   1     -59.069 -98.782 -42.256  0.00  0.00     0.087 A 
ATOM     11  O   UNL d   1     -57.114 -98.836 -43.252  0.00  0.00    -0.265 OA
ATOM     12  N   UNL d   1     -59.954 -98.823 -45.750  0.00  0.00    -0.121 N 
ATOM     13  C   UNL d   1     -59.376 -98.763 -41.501  0.00  0.00     0.021 C 
ENDROOT
BRANCH   6  14
ATOM     14  C   UNL d   1     -57.303 -98.857 -44.668  0.00  0.00     0.004 A 
ATOM     15  C   UNL d   1     -56.811 -98.977 -44.019  0.00  0.00     0.021 A 
ATOM     16  C   UNL d   1     -55.997 -98.994 -44.126  0.00  0.00     0.099 A 
ATOM     17  N   UNL d   1     -55.680 -98.893 -44.878  0.00  0.00    -0.242 NA
ATOM     18  C   UNL d   1     -56.179 -98.773 -45.527  0.00  0.00     0.099 A 
ATOM     19  C   UNL d   1     -56.986 -98.755 -45.420  0.00  0.00     0.021 A 
ENDBRANCH   6  14
BRANCH   2  20
ATOM     20  C   UNL d   1     -58.325 -98.859 -45.978  0.00  0.00     0.304 C 
ATOM     21  O   UNL d   1     -57.520 -98.983 -46.089  0.00  0.00    -0.259 OA
BRANCH  20  22
ATOM     22  O   UNL d   1     -58.815 -98.755 -46.622  0.00  0.00    -0.271 OA
BRANCH  22  23
ATOM     23  C   UNL d   1     -58.993 -99.381 -47.124  0.00  0.00     0.126 C 
ATOM     24  C   UNL d   1     -59.445 -99.248 -47.800  0.00  0.00     0.029 C 
ENDBRANCH  22  23
ENDBRANCH  20  22
ENDBRANCH   2  20
TORSDOF 4
ENDMDL
MODEL 2
REMARK VINA RESULT:      38.4      0.660      3.273
REMARK  4 active torsions:
REMARK  status: ('A' for Active; 'I' for Inactive)
REMARK    1  A    between atoms: C_10  and  C_2 
REMARK    2  A    between atoms: C_13  and  C_6 
REMARK    3  A    between atoms: O_17  and  C_10 
REMARK    4  A    between atoms: C_23  and  O_17 
ROOT
ATOM      1  C   UNL d   1     -57.485 -98.864 -44.501  0.00  0.00     0.081 A 
ATOM      2  C   UNL d   1     -58.725 -98.810 -43.786  0.00  0.00     0.106 A 
ATOM      3  C   UNL d   1     -58.315 -98.804 -43.064  0.00  0.00     0.208 A 
ATOM      4  C   UNL d   1     -57.074 -98.858 -43.778  0.00  0.00     0.108 A 
ATOM      5  C   UNL d   1     -57.066 -98.893 -45.214  0.00  0.00     0.281 A 
ATOM      6  C   UNL d   1     -58.311 -98.840 -44.507  0.00  0.00     0.015 A 
ATOM      7  O   UNL d   1     -57.486 -98.828 -43.069  0.00  0.00    -0.288 OA
ATOM      8  N   UNL d   1     -56.238 -98.918 -45.208  0.00  0.00    -0.208 NA
ATOM      9  C   UNL d   1     -56.245 -98.882 -43.768  0.00  0.00     0.044 A 
ATOM     10  C   UNL d   1     -55.819 -98.912 -44.486  0.00  0.00     0.087 A 
ATOM     11  O   UNL d   1     -57.474 -98.899 -45.927  0.00  0.00    -0.265 OA
ATOM     12  N   UNL d   1     -58.726 -98.775 -42.360  0.00  0.00    -0.121 N 
ATOM     13  C   UNL d   1     -55.004 -98.936 -44.484  0.00  0.00     0.021 C 
ENDROOT
BRANCH   6  14
ATOM     14  C   UNL d   1     -58.716 -98.845 -45.222  0.00  0.00     0.004 A 
ATOM     15  C   UNL d   1     -59.535 -98.939 -45.223  0.00  0.00     0.021 A 
ATOM     16  C   UNL d   1     -59.940 -98.945 -45.938  0.00  0.00     0.099 A 
ATOM     17  N   UNL d   1     -59.528 -98.857 -46.644  0.00  0.00    -0.242 NA
ATOM     18  C   UNL d   1     -58.706 -98.763 -46.636  0.00  0.00     0.099 A 
ATOM     19  C   UNL d   1     -58.305 -98.757 -45.928  0.00  0.00     0.021 A 
ENDBRANCH   6  14
BRANCH   2  20
ATOM     20  C   UNL d   1     -59.548 -98.786 -43.785  0.00  0.00     0.304 C 
ATOM     21  O   UNL d   1     -59.953 -98.759 -44.500  0.00  0.00    -0.259 OA
BRANCH  20  22
ATOM     22  O   UNL d   1     -59.959 -98.788 -43.081  0.00  0.00    -0.271 OA
BRANCH  22  23
ATOM     23  C   UNL d   1     -59.603 -99.034 -42.383  0.00  0.00     0.126 C 
ATOM     24  C   UNL d   1     -59.938 -99.649 -41.947  0.00  0.00     0.029 C 
ENDBRANCH  22  23
ENDBRANCH  20  22
ENDBRANCH   2  20
TORSDOF 4
ENDMDL
