MODEL 1
REMARK VINA RESULT:      -7.2      0.000      0.000
REMARK  2 active torsions:
REMARK  status: ('A' for Active; 'I' for Inactive)
REMARK    1  A    between atoms: C_6  and  C_2 
REMARK    2  A    between atoms: C_7  and  C_3 
ROOT
ATOM      1  N   UNL d   1     -39.690  14.208  17.295  0.00  0.00    -0.243 NA
ATOM      2  C   UNL d   1     -40.199  14.750  17.646  0.00  0.00     0.104 A 
ATOM      3  C   UNL d   1     -39.849  14.647  19.083  0.00  0.00     0.033 A 
ATOM      4  S   UNL d   1     -39.255  14.079  19.082  0.00  0.00    -0.085 SA
ATOM      5  C   UNL d   1     -40.259  14.938  18.459  0.00  0.00     0.028 A 
ATOM      6  C   UNL d   1     -39.125  13.725  17.658  0.00  0.00     0.087 A 
ATOM      7  C   UNL d   1     -38.930  13.668  18.460  0.00  0.00     0.047 A 
ATOM      8  C   UNL d   1     -38.741  13.268  17.099  0.00  0.00     0.020 A 
ATOM      9  C   UNL d   1     -38.353  13.154  18.693  0.00  0.00     0.008 A 
ATOM     10  C   UNL d   1     -37.946  12.676  18.145  0.00  0.00     0.001 A 
ATOM     11  C   UNL d   1     -38.140  12.734  17.347  0.00  0.00     0.002 A 
ENDROOT
BRANCH   3  12
ATOM     12  C   UNL d   1     -40.047  14.955  19.822  0.00  0.00     0.034 A 
ATOM     13  C   UNL d   1     -39.613  15.601  20.137  0.00  0.00     0.141 A 
ATOM     14  F   UNL d   1     -38.994  15.922  19.706  0.00  0.00    -0.204 F 
ATOM     15  C   UNL d   1     -39.812  15.903  20.869  0.00  0.00     0.030 A 
ATOM     16  C   UNL d   1     -40.424  15.584  21.291  0.00  0.00     0.002 A 
ATOM     17  C   UNL d   1     -40.870  14.942  20.999  0.00  0.00     0.000 A 
ATOM     18  C   UNL d   1     -40.673  14.633  20.260  0.00  0.00     0.003 A 
ENDBRANCH   3  12
BRANCH   2  19
ATOM     19  C   UNL d   1     -40.702  15.149  17.129  0.00  0.00     0.118 A 
ATOM     20  O   UNL d   1     -41.528  15.147  17.146  0.00  0.00    -0.304 OA
ATOM     21  C   UNL d   1     -41.793  15.624  16.521  0.00  0.00     0.123 A 
ATOM     22  C   UNL d   1     -41.135  15.922  16.116  0.00  0.00     0.029 A 
ATOM     23  C   UNL d   1     -40.463  15.628  16.493  0.00  0.00     0.028 A 
ENDBRANCH   2  19
TORSDOF 2
ENDMDL
MODEL 2
REMARK VINA RESULT:      -6.4      8.540     10.038
REMARK  2 active torsions:
REMARK  status: ('A' for Active; 'I' for Inactive)
REMARK    1  A    between atoms: C_6  and  C_2 
REMARK    2  A    between atoms: C_7  and  C_3 
ROOT
ATOM      1  N   UNL d   1     -48.018  14.826  22.794  0.00  0.00    -0.243 NA
ATOM      2  C   UNL d   1     -48.759  14.486  22.906  0.00  0.00     0.104 A 
ATOM      3  C   UNL d   1     -48.466  13.034  22.856  0.00  0.00     0.033 A 
ATOM      4  S   UNL d   1     -47.654  13.019  22.732  0.00  0.00    -0.085 SA
ATOM      5  C   UNL d   1     -48.946  13.672  22.931  0.00  0.00     0.028 A 
ATOM      6  C   UNL d   1     -47.292  14.446  22.682  0.00  0.00     0.087 A 
ATOM      7  C   UNL d   1     -47.129  13.636  22.654  0.00  0.00     0.047 A 
ATOM      8  C   UNL d   1     -46.695  14.998  22.593  0.00  0.00     0.020 A 
ATOM      9  C   UNL d   1     -46.370  13.387  22.537  0.00  0.00     0.008 A 
ATOM     10  C   UNL d   1     -45.742  13.927  22.444  0.00  0.00     0.001 A 
ATOM     11  C   UNL d   1     -45.905  14.733  22.471  0.00  0.00     0.002 A 
ENDROOT
BRANCH   3  12
ATOM     12  C   UNL d   1     -48.832  12.297  22.909  0.00  0.00     0.034 A 
ATOM     13  C   UNL d   1     -49.093  11.907  22.212  0.00  0.00     0.141 A 
ATOM     14  F   UNL d   1     -48.981  12.263  21.482  0.00  0.00    -0.204 F 
ATOM     15  C   UNL d   1     -49.455  11.177  22.269  0.00  0.00     0.030 A 
ATOM     16  C   UNL d   1     -49.563  10.829  22.990  0.00  0.00     0.002 A 
ATOM     17  C   UNL d   1     -49.313  11.196  23.697  0.00  0.00     0.000 A 
ATOM     18  C   UNL d   1     -48.947  11.934  23.645  0.00  0.00     0.003 A 
ENDBRANCH   3  12
BRANCH   2  19
ATOM     19  C   UNL d   1     -49.381  15.018  23.003  0.00  0.00     0.118 A 
ATOM     20  O   UNL d   1     -49.954  15.214  22.442  0.00  0.00    -0.304 OA
ATOM     21  C   UNL d   1     -50.464  15.771  22.787  0.00  0.00     0.123 A 
ATOM     22  C   UNL d   1     -50.209  15.922  23.560  0.00  0.00     0.029 A 
ATOM     23  C   UNL d   1     -49.541  15.457  23.691  0.00  0.00     0.028 A 
ENDBRANCH   2  19
TORSDOF 2
ENDMDL
MODEL 3
REMARK VINA RESULT:      -5.8      8.329     10.012
REMARK  2 active torsions:
REMARK  status: ('A' for Active; 'I' for Inactive)
REMARK    1  A    between atoms: C_6  and  C_2 
REMARK    2  A    between atoms: C_7  and  C_3 
ROOT
ATOM      1  N   UNL d   1     -46.598  12.828  23.088  0.00  0.00    -0.243 NA
ATOM      2  C   UNL d   1     -47.074  12.164  23.185  0.00  0.00     0.104 A 
ATOM      3  C   UNL d   1     -48.440  12.709  23.010  0.00  0.00     0.033 A 
ATOM      4  S   UNL d   1     -48.298  13.506  22.869  0.00  0.00    -0.085 SA
ATOM      5  C   UNL d   1     -47.908  12.126  23.147  0.00  0.00     0.028 A 
ATOM      6  C   UNL d   1     -46.830  13.606  22.930  0.00  0.00     0.087 A 
ATOM      7  C   UNL d   1     -47.592  13.910  22.832  0.00  0.00     0.047 A 
ATOM      8  C   UNL d   1     -46.175  14.092  22.875  0.00  0.00     0.020 A 
ATOM      9  C   UNL d   1     -47.691  14.697  22.680  0.00  0.00     0.008 A 
ATOM     10  C   UNL d   1     -47.040  15.214  22.619  0.00  0.00     0.001 A 
ATOM     11  C   UNL d   1     -46.281  14.911  22.717  0.00  0.00     0.002 A 
ENDROOT
BRANCH   3  12
ATOM     12  C   UNL d   1     -49.233  12.483  23.009  0.00  0.00     0.034 A 
ATOM     13  C   UNL d   1     -49.692  12.565  22.311  0.00  0.00     0.141 A 
ATOM     14  F   UNL d   1     -49.347  12.871  21.633  0.00  0.00    -0.204 F 
ATOM     15  C   UNL d   1     -50.477  12.340  22.314  0.00  0.00     0.030 A 
ATOM     16  C   UNL d   1     -50.813  12.039  22.985  0.00  0.00     0.002 A 
ATOM     17  C   UNL d   1     -50.379  11.947  23.691  0.00  0.00     0.000 A 
ATOM     18  C   UNL d   1     -49.585  12.173  23.693  0.00  0.00     0.003 A 
ENDBRANCH   3  12
BRANCH   2  19
ATOM     19  C   UNL d   1     -46.671  11.461  23.338  0.00  0.00     0.118 A 
ATOM     20  O   UNL d   1     -45.904  11.386  23.635  0.00  0.00    -0.304 OA
ATOM     21  C   UNL d   1     -45.737  10.576  23.696  0.00  0.00     0.123 A 
ATOM     22  C   UNL d   1     -46.397  10.147  23.439  0.00  0.00     0.029 A 
ATOM     23  C   UNL d   1     -46.972  10.694  23.219  0.00  0.00     0.028 A 
ENDBRANCH   2  19
TORSDOF 2
ENDMDL
MODEL 4
REMARK VINA RESULT:      -5.4      8.870     10.634
REMARK  2 active torsions:
REMARK  status: ('A' for Active; 'I' for Inactive)
REMARK    1  A    between atoms: C_6  and  C_2 
REMARK    2  A    between atoms: C_7  and  C_3 
ROOT
ATOM      1  N   UNL d   1     -48.502  14.967  23.166  0.00  0.00    -0.243 NA
ATOM      2  C   UNL d   1     -48.031  14.309  23.019  0.00  0.00     0.104 A 
ATOM      3  C   UNL d   1     -48.999  13.189  23.088  0.00  0.00     0.033 A 
ATOM      4  S   UNL d   1     -49.706  13.573  23.252  0.00  0.00    -0.085 SA
ATOM      5  C   UNL d   1     -48.271  13.509  22.986  0.00  0.00     0.028 A 
ATOM      6  C   UNL d   1     -49.315  14.992  23.315  0.00  0.00     0.087 A 
ATOM      7  C   UNL d   1     -49.855  14.367  23.354  0.00  0.00     0.047 A 
ATOM      8  C   UNL d   1     -49.559  15.764  23.432  0.00  0.00     0.020 A 
ATOM      9  C   UNL d   1     -50.632  14.521  23.509  0.00  0.00     0.008 A 
ATOM     10  C   UNL d   1     -50.907  15.298  23.632  0.00  0.00     0.001 A 
ATOM     11  C   UNL d   1     -50.370  15.920  23.594  0.00  0.00     0.002 A 
ENDROOT
BRANCH   3  12
ATOM     12  C   UNL d   1     -49.046  12.368  23.019  0.00  0.00     0.034 A 
ATOM     13  C   UNL d   1     -49.145  12.016  22.263  0.00  0.00     0.141 A 
ATOM     14  F   UNL d   1     -49.193  12.492  21.597  0.00  0.00    -0.204 F 
ATOM     15  C   UNL d   1     -49.192  11.203  22.198  0.00  0.00     0.030 A 
ATOM     16  C   UNL d   1     -49.143  10.737  22.857  0.00  0.00     0.002 A 
ATOM     17  C   UNL d   1     -49.045  11.063  23.620  0.00  0.00     0.000 A 
ATOM     18  C   UNL d   1     -48.998  11.884  23.690  0.00  0.00     0.003 A 
ENDBRANCH   3  12
BRANCH   2  19
ATOM     19  C   UNL d   1     -47.232  14.468  22.889  0.00  0.00     0.118 A 
ATOM     20  O   UNL d   1     -46.595  14.172  23.322  0.00  0.00    -0.304 OA
ATOM     21  C   UNL d   1     -45.900  14.484  22.990  0.00  0.00     0.123 A 
ATOM     22  C   UNL d   1     -46.105  14.972  22.354  0.00  0.00     0.029 A 
ATOM     23  C   UNL d   1     -46.927  14.962  22.293  0.00  0.00     0.028 A 
ENDBRANCH   2  19
TORSDOF 2
ENDMDL
MODEL 5
REMARK VINA RESULT:      -5.3      1.528      3.504
REMARK  2 active torsions:
REMARK  status: ('A' for Active; 'I' for Inactive)
REMARK    1  A    between atoms: C_6  and  C_2 
REMARK    2  A    between atoms: C_7  and  C_3 
ROOT
ATOM      1  N   UNL d   1     -38.288  13.714  19.147  0.00  0.00    -0.243 NA
ATOM      2  C   UNL d   1     -38.583  13.584  18.389  0.00  0.00     0.104 A 
ATOM      3  C   UNL d   1     -39.426  14.780  18.154  0.00  0.00     0.033 A 
ATOM      4  S   UNL d   1     -39.338  15.202  18.854  0.00  0.00    -0.085 SA
ATOM      5  C   UNL d   1     -39.098  14.077  17.953  0.00  0.00     0.028 A 
ATOM      6  C   UNL d   1     -38.431  14.356  19.649  0.00  0.00     0.087 A 
ATOM      7  C   UNL d   1     -38.902  15.023  19.517  0.00  0.00     0.047 A 
ATOM      8  C   UNL d   1     -38.026  14.261  20.353  0.00  0.00     0.020 A 
ATOM      9  C   UNL d   1     -38.962  15.587  20.092  0.00  0.00     0.008 A 
ATOM     10  C   UNL d   1     -38.560  15.515  20.818  0.00  0.00     0.001 A 
ATOM     11  C   UNL d   1     -38.092  14.851  20.949  0.00  0.00     0.002 A 
ENDROOT
BRANCH   3  12
ATOM     12  C   UNL d   1     -39.916  15.126  17.588  0.00  0.00     0.034 A 
ATOM     13  C   UNL d   1     -40.749  15.026  17.636  0.00  0.00     0.141 A 
ATOM     14  F   UNL d   1     -41.069  14.584  18.248  0.00  0.00    -0.204 F 
ATOM     15  C   UNL d   1     -41.231  15.371  17.074  0.00  0.00     0.030 A 
ATOM     16  C   UNL d   1     -40.911  15.806  16.473  0.00  0.00     0.002 A 
ATOM     17  C   UNL d   1     -40.087  15.920  16.403  0.00  0.00     0.000 A 
ATOM     18  C   UNL d   1     -39.596  15.574  16.969  0.00  0.00     0.003 A 
ENDBRANCH   3  12
BRANCH   2  19
ATOM     19  C   UNL d   1     -38.335  12.885  18.029  0.00  0.00     0.118 A 
ATOM     20  O   UNL d   1     -38.169  12.776  17.228  0.00  0.00    -0.304 OA
ATOM     21  C   UNL d   1     -37.940  11.985  17.125  0.00  0.00     0.123 A 
ATOM     22  C   UNL d   1     -37.963  11.603  17.859  0.00  0.00     0.029 A 
ATOM     23  C   UNL d   1     -38.206  12.160  18.416  0.00  0.00     0.028 A 
ENDBRANCH   2  19
TORSDOF 2
ENDMDL
MODEL 6
REMARK VINA RESULT:      -5.1      1.808      3.715
REMARK  2 active torsions:
REMARK  status: ('A' for Active; 'I' for Inactive)
REMARK    1  A    between atoms: C_6  and  C_2 
REMARK    2  A    between atoms: C_7  and  C_3 
ROOT
ATOM      1  N   UNL d   1     -40.137  14.774  21.113  0.00  0.00    -0.243 NA
ATOM      2  C   UNL d   1     -40.702  14.582  20.548  0.00  0.00     0.104 A 
ATOM      3  C   UNL d   1     -40.111  15.113  19.297  0.00  0.00     0.033 A 
ATOM      4  S   UNL d   1     -39.401  15.435  19.556  0.00  0.00    -0.085 SA
ATOM      5  C   UNL d   1     -40.676  14.743  19.728  0.00  0.00     0.028 A 
ATOM      6  C   UNL d   1     -39.417  15.167  21.005  0.00  0.00     0.087 A 
ATOM      7  C   UNL d   1     -39.087  15.463  20.307  0.00  0.00     0.047 A 
ATOM      8  C   UNL d   1     -39.025  15.243  21.719  0.00  0.00     0.020 A 
ATOM      9  C   UNL d   1     -38.369  15.832  20.331  0.00  0.00     0.008 A 
ATOM     10  C   UNL d   1     -37.948  15.922  21.044  0.00  0.00     0.001 A 
ATOM     11  C   UNL d   1     -38.277  15.627  21.739  0.00  0.00     0.002 A 
ENDROOT
BRANCH   3  12
ATOM     12  C   UNL d   1     -40.259  15.182  18.488  0.00  0.00     0.034 A 
ATOM     13  C   UNL d   1     -40.021  14.570  17.965  0.00  0.00     0.141 A 
ATOM     14  F   UNL d   1     -39.641  13.906  18.263  0.00  0.00    -0.204 F 
ATOM     15  C   UNL d   1     -40.169  14.641  17.165  0.00  0.00     0.030 A 
ATOM     16  C   UNL d   1     -40.543  15.296  16.875  0.00  0.00     0.002 A 
ATOM     17  C   UNL d   1     -40.789  15.918  17.375  0.00  0.00     0.000 A 
ATOM     18  C   UNL d   1     -40.642  15.851  18.184  0.00  0.00     0.003 A 
ENDBRANCH   3  12
BRANCH   2  19
ATOM     19  C   UNL d   1     -41.367  14.186  20.833  0.00  0.00     0.118 A 
ATOM     20  O   UNL d   1     -42.084  14.527  21.061  0.00  0.00    -0.304 OA
ATOM     21  C   UNL d   1     -42.585  13.915  21.309  0.00  0.00     0.123 A 
ATOM     22  C   UNL d   1     -42.183  13.195  21.236  0.00  0.00     0.029 A 
ATOM     23  C   UNL d   1     -41.432  13.364  20.943  0.00  0.00     0.028 A 
ENDBRANCH   2  19
TORSDOF 2
ENDMDL
MODEL 7
REMARK VINA RESULT:      -5.0      1.387      2.866
REMARK  2 active torsions:
REMARK  status: ('A' for Active; 'I' for Inactive)
REMARK    1  A    between atoms: C_6  and  C_2 
REMARK    2  A    between atoms: C_7  and  C_3 
ROOT
ATOM      1  N   UNL d   1     -39.939  14.503  16.948  0.00  0.00    -0.243 NA
ATOM      2  C   UNL d   1     -39.269  14.243  17.349  0.00  0.00     0.104 A 
ATOM      3  C   UNL d   1     -39.432  14.852  18.690  0.00  0.00     0.033 A 
ATOM      4  S   UNL d   1     -40.141  15.260  18.617  0.00  0.00    -0.085 SA
ATOM      5  C   UNL d   1     -39.054  14.410  18.139  0.00  0.00     0.028 A 
ATOM      6  C   UNL d   1     -40.549  14.986  17.228  0.00  0.00     0.087 A 
ATOM      7  C   UNL d   1     -40.640  15.325  17.977  0.00  0.00     0.047 A 
ATOM      8  C   UNL d   1     -41.107  15.107  16.643  0.00  0.00     0.020 A 
ATOM      9  C   UNL d   1     -41.287  15.782  18.131  0.00  0.00     0.008 A 
ATOM     10  C   UNL d   1     -41.870  15.922  17.552  0.00  0.00     0.001 A 
ATOM     11  C   UNL d   1     -41.780  15.584  16.807  0.00  0.00     0.002 A 
ENDROOT
BRANCH   3  12
ATOM     12  C   UNL d   1     -39.065  14.905  19.427  0.00  0.00     0.034 A 
ATOM     13  C   UNL d   1     -39.231  14.334  20.020  0.00  0.00     0.141 A 
ATOM     14  F   UNL d   1     -39.759  13.727  19.862  0.00  0.00    -0.204 F 
ATOM     15  C   UNL d   1     -38.865  14.390  20.749  0.00  0.00     0.030 A 
ATOM     16  C   UNL d   1     -38.345  14.990  20.900  0.00  0.00     0.002 A 
ATOM     17  C   UNL d   1     -38.164  15.569  20.327  0.00  0.00     0.000 A 
ATOM     18  C   UNL d   1     -38.531  15.517  19.590  0.00  0.00     0.003 A 
ENDBRANCH   3  12
BRANCH   2  19
ATOM     19  C   UNL d   1     -38.760  13.764  16.912  0.00  0.00     0.118 A 
ATOM     20  O   UNL d   1     -38.403  13.952  16.192  0.00  0.00    -0.304 OA
ATOM     21  C   UNL d   1     -37.940  13.302  15.964  0.00  0.00     0.123 A 
ATOM     22  C   UNL d   1     -38.007  12.712  16.541  0.00  0.00     0.029 A 
ATOM     23  C   UNL d   1     -38.513  12.998  17.125  0.00  0.00     0.028 A 
ENDBRANCH   2  19
TORSDOF 2
ENDMDL
MODEL 8
REMARK VINA RESULT:      -4.6      2.190      3.091
REMARK  2 active torsions:
REMARK  status: ('A' for Active; 'I' for Inactive)
REMARK    1  A    between atoms: C_6  and  C_2 
REMARK    2  A    between atoms: C_7  and  C_3 
ROOT
ATOM      1  N   UNL d   1     -39.993  14.596  19.798  0.00  0.00    -0.243 NA
ATOM      2  C   UNL d   1     -40.187  14.737  20.585  0.00  0.00     0.104 A 
ATOM      3  C   UNL d   1     -38.964  14.314  21.307  0.00  0.00     0.033 A 
ATOM      4  S   UNL d   1     -38.471  14.070  20.697  0.00  0.00    -0.085 SA
ATOM      5  C   UNL d   1     -39.709  14.604  21.258  0.00  0.00     0.028 A 
ATOM      6  C   UNL d   1     -39.288  14.293  19.491  0.00  0.00     0.087 A 
ATOM      7  C   UNL d   1     -38.605  14.057  19.894  0.00  0.00     0.047 A 
ATOM      8  C   UNL d   1     -39.332  14.243  18.676  0.00  0.00     0.020 A 
ATOM      9  C   UNL d   1     -37.975  13.774  19.477  0.00  0.00     0.008 A 
ATOM     10  C   UNL d   1     -37.992  13.713  18.646  0.00  0.00     0.001 A 
ATOM     11  C   UNL d   1     -38.672  13.948  18.245  0.00  0.00     0.002 A 
ENDROOT
BRANCH   3  12
ATOM     12  C   UNL d   1     -38.648  14.253  22.067  0.00  0.00     0.034 A 
ATOM     13  C   UNL d   1     -38.724  13.534  22.495  0.00  0.00     0.141 A 
ATOM     14  F   UNL d   1     -39.112  12.898  22.153  0.00  0.00    -0.204 F 
ATOM     15  C   UNL d   1     -38.410  13.477  23.247  0.00  0.00     0.030 A 
ATOM     16  C   UNL d   1     -38.028  14.107  23.579  0.00  0.00     0.002 A 
ATOM     17  C   UNL d   1     -37.940  14.831  23.174  0.00  0.00     0.000 A 
ATOM     18  C   UNL d   1     -38.255  14.894  22.414  0.00  0.00     0.003 A 
ENDBRANCH   3  12
BRANCH   2  19
ATOM     19  C   UNL d   1     -40.941  15.045  20.713  0.00  0.00     0.118 A 
ATOM     20  O   UNL d   1     -41.623  14.617  20.898  0.00  0.00    -0.304 OA
ATOM     21  C   UNL d   1     -42.246  15.160  20.976  0.00  0.00     0.123 A 
ATOM     22  C   UNL d   1     -41.954  15.922  20.840  0.00  0.00     0.029 A 
ATOM     23  C   UNL d   1     -41.149  15.849  20.678  0.00  0.00     0.028 A 
ENDBRANCH   2  19
TORSDOF 2
ENDMDL
MODEL 9
REMARK VINA RESULT:      -4.6      8.169      9.826
REMARK  2 active torsions:
REMARK  status: ('A' for Active; 'I' for Inactive)
REMARK    1  A    between atoms: C_6  and  C_2 
REMARK    2  A    between atoms: C_7  and  C_3 
ROOT
ATOM      1  N   UNL d   1     -49.041  13.808  22.805  0.00  0.00    -0.243 NA
ATOM      2  C   UNL d   1     -48.866  13.014  22.932  0.00  0.00     0.104 A 
ATOM      3  C   UNL d   1     -47.384  13.001  22.947  0.00  0.00     0.033 A 
ATOM      4  S   UNL d   1     -47.197  13.791  22.823  0.00  0.00    -0.085 SA
ATOM      5  C   UNL d   1     -48.110  12.663  22.994  0.00  0.00     0.028 A 
ATOM      6  C   UNL d   1     -48.515  14.439  22.709  0.00  0.00     0.087 A 
ATOM      7  C   UNL d   1     -47.688  14.432  22.717  0.00  0.00     0.047 A 
ATOM      8  C   UNL d   1     -48.927  15.136  22.595  0.00  0.00     0.020 A 
ATOM      9  C   UNL d   1     -47.283  15.121  22.612  0.00  0.00     0.008 A 
ATOM     10  C   UNL d   1     -47.677  15.846  22.494  0.00  0.00     0.001 A 
ATOM     11  C   UNL d   1     -48.500  15.853  22.485  0.00  0.00     0.002 A 
ENDROOT
BRANCH   3  12
ATOM     12  C   UNL d   1     -46.741  12.491  23.033  0.00  0.00     0.034 A 
ATOM     13  C   UNL d   1     -46.073  12.570  22.531  0.00  0.00     0.141 A 
ATOM     14  F   UNL d   1     -46.064  13.156  21.957  0.00  0.00    -0.204 F 
ATOM     15  C   UNL d   1     -45.438  12.064  22.619  0.00  0.00     0.030 A 
ATOM     16  C   UNL d   1     -45.451  11.488  23.187  0.00  0.00     0.002 A 
ATOM     17  C   UNL d   1     -46.103  11.389  23.698  0.00  0.00     0.000 A 
ATOM     18  C   UNL d   1     -46.747  11.898  23.612  0.00  0.00     0.003 A 
ENDBRANCH   3  12
BRANCH   2  19
ATOM     19  C   UNL d   1     -49.519  12.516  23.005  0.00  0.00     0.118 A 
ATOM     20  O   UNL d   1     -49.791  12.158  23.698  0.00  0.00    -0.304 OA
ATOM     21  C   UNL d   1     -50.461  11.709  23.502  0.00  0.00     0.123 A 
ATOM     22  C   UNL d   1     -50.606  11.786  22.691  0.00  0.00     0.029 A 
ATOM     23  C   UNL d   1     -50.024  12.284  22.386  0.00  0.00     0.028 A 
ENDBRANCH   2  19
TORSDOF 2
ENDMDL
