MODEL 1
REMARK VINA RESULT:     -10.4      0.000      0.000
REMARK  2 active torsions:
REMARK  status: ('A' for Active; 'I' for Inactive)
REMARK    1  A    between atoms: C_3  and  N_1 
REMARK    2  A    between atoms: C_12  and  C_9 
ROOT
ATOM      1  C   UNL d   1      52.691  32.679  53.171  0.00  0.00     0.187 A 
ATOM      2  N   UNL d   1      52.389  32.022  52.761  0.00  0.00    -0.129 NA
ATOM      3  N   UNL d   1      52.588  31.260  53.006  0.00  0.00    -0.147 NA
ATOM      4  C   UNL d   1      53.185  32.570  53.819  0.00  0.00     0.039 A 
ATOM      5  C   UNL d   1      53.088  31.154  53.662  0.00  0.00     0.103 A 
ATOM      6  C   UNL d   1      53.384  31.808  54.064  0.00  0.00     0.022 A 
ATOM      7  C   UNL d   1      53.484  33.224  54.225  0.00  0.00     0.003 A 
ATOM      8  C   UNL d   1      53.882  31.700  54.715  0.00  0.00     0.002 A 
ATOM      9  C   UNL d   1      54.177  32.353  55.117  0.00  0.00     0.000 A 
ATOM     10  C   UNL d   1      53.978  33.115  54.871  0.00  0.00     0.000 A 
ENDROOT
BRANCH   1  11
ATOM     11  N   UNL d   1      52.492  33.441  52.926  0.00  0.00    -0.191 N 
ATOM     12  N   UNL d   1      52.935  34.097  52.660  0.00  0.00    -0.058 NA
ATOM     13  N   UNL d   1      52.439  34.720  52.489  0.00  0.00    -0.129 NA
ATOM     14  C   UNL d   1      51.662  34.474  52.644  0.00  0.00     0.122 A 
ATOM     15  C   UNL d   1      51.695  33.677  52.917  0.00  0.00     0.105 A 
ATOM     16  C   UNL d   1      50.937  34.858  52.577  0.00  0.00     0.022 A 
ATOM     17  C   UNL d   1      50.995  33.291  53.113  0.00  0.00     0.021 A 
ATOM     18  C   UNL d   1      50.257  33.706  53.036  0.00  0.00     0.002 A 
ATOM     19  C   UNL d   1      50.266  34.478  52.769  0.00  0.00     0.002 A 
ENDBRANCH   1  11
BRANCH   5  20
ATOM     20  C   UNL d   1      53.287  30.392  53.907  0.00  0.00     0.020 A 
ATOM     21  C   UNL d   1      53.916  29.991  53.539  0.00  0.00     0.004 A 
ATOM     22  C   UNL d   1      54.114  29.229  53.784  0.00  0.00     0.030 A 
ATOM     23  C   UNL d   1      53.685  28.868  54.398  0.00  0.00     0.140 A 
ATOM     24  C   UNL d   1      53.064  29.269  54.758  0.00  0.00     0.030 A 
ATOM     25  F   UNL d   1      53.883  28.105  54.643  0.00  0.00    -0.204 F 
ATOM     26  C   UNL d   1      52.865  30.031  54.513  0.00  0.00     0.004 A 
ENDBRANCH   5  20
TORSDOF 2
ENDMDL
MODEL 2
REMARK VINA RESULT:      -9.8      2.246      4.599
REMARK  2 active torsions:
REMARK  status: ('A' for Active; 'I' for Inactive)
REMARK    1  A    between atoms: C_3  and  N_1 
REMARK    2  A    between atoms: C_12  and  C_9 
ROOT
ATOM      1  C   UNL d   1      52.251  32.764  53.528  0.00  0.00     0.187 A 
ATOM      2  N   UNL d   1      51.498  32.423  53.442  0.00  0.00    -0.129 NA
ATOM      3  N   UNL d   1      50.868  32.885  53.178  0.00  0.00    -0.147 NA
ATOM      4  C   UNL d   1      52.368  33.558  53.351  0.00  0.00     0.039 A 
ATOM      5  C   UNL d   1      50.990  33.688  53.001  0.00  0.00     0.103 A 
ATOM      6  C   UNL d   1      51.737  34.020  53.087  0.00  0.00     0.022 A 
ATOM      7  C   UNL d   1      53.117  33.895  53.437  0.00  0.00     0.003 A 
ATOM      8  C   UNL d   1      51.856  34.819  52.910  0.00  0.00     0.002 A 
ATOM      9  C   UNL d   1      52.603  35.150  52.997  0.00  0.00     0.000 A 
ATOM     10  C   UNL d   1      53.233  34.688  53.260  0.00  0.00     0.000 A 
ENDROOT
BRANCH   1  11
ATOM     11  N   UNL d   1      52.882  32.302  53.791  0.00  0.00    -0.191 N 
ATOM     12  N   UNL d   1      53.496  32.422  54.345  0.00  0.00    -0.058 NA
ATOM     13  N   UNL d   1      53.973  31.764  54.382  0.00  0.00    -0.129 NA
ATOM     14  C   UNL d   1      53.672  31.203  53.849  0.00  0.00     0.122 A 
ATOM     15  C   UNL d   1      52.993  31.539  53.480  0.00  0.00     0.105 A 
ATOM     16  C   UNL d   1      53.919  30.443  53.649  0.00  0.00     0.022 A 
ATOM     17  C   UNL d   1      52.581  31.098  52.920  0.00  0.00     0.021 A 
ATOM     18  C   UNL d   1      52.852  30.315  52.729  0.00  0.00     0.002 A 
ATOM     19  C   UNL d   1      53.515  30.024  53.107  0.00  0.00     0.002 A 
ENDBRANCH   1  11
BRANCH   5  20
ATOM     20  C   UNL d   1      50.359  34.150  52.737  0.00  0.00     0.020 A 
ATOM     21  C   UNL d   1      50.149  34.140  51.933  0.00  0.00     0.004 A 
ATOM     22  C   UNL d   1      49.518  34.602  51.670  0.00  0.00     0.030 A 
ATOM     23  C   UNL d   1      49.098  35.074  52.211  0.00  0.00     0.140 A 
ATOM     24  C   UNL d   1      49.311  35.080  53.005  0.00  0.00     0.030 A 
ATOM     25  F   UNL d   1      48.467  35.536  51.947  0.00  0.00    -0.204 F 
ATOM     26  C   UNL d   1      49.941  34.618  53.268  0.00  0.00     0.004 A 
ENDBRANCH   5  20
TORSDOF 2
ENDMDL
MODEL 3
REMARK VINA RESULT:      -9.7      2.008      3.042
REMARK  2 active torsions:
REMARK  status: ('A' for Active; 'I' for Inactive)
REMARK    1  A    between atoms: C_3  and  N_1 
REMARK    2  A    between atoms: C_12  and  C_9 
ROOT
ATOM      1  C   UNL d   1      51.939  34.038  52.811  0.00  0.00     0.187 A 
ATOM      2  N   UNL d   1      52.252  34.716  53.177  0.00  0.00    -0.129 NA
ATOM      3  N   UNL d   1      52.892  34.645  53.692  0.00  0.00    -0.147 NA
ATOM      4  C   UNL d   1      52.266  33.300  52.962  0.00  0.00     0.039 A 
ATOM      5  C   UNL d   1      53.220  33.895  53.841  0.00  0.00     0.103 A 
ATOM      6  C   UNL d   1      52.907  33.228  53.477  0.00  0.00     0.022 A 
ATOM      7  C   UNL d   1      51.954  32.628  52.597  0.00  0.00     0.003 A 
ATOM      8  C   UNL d   1      53.235  32.485  53.627  0.00  0.00     0.002 A 
ATOM      9  C   UNL d   1      52.922  31.818  53.263  0.00  0.00     0.000 A 
ATOM     10  C   UNL d   1      52.281  31.890  52.748  0.00  0.00     0.000 A 
ENDROOT
BRANCH   1  11
ATOM     11  N   UNL d   1      51.299  34.110  52.296  0.00  0.00    -0.191 N 
ATOM     12  N   UNL d   1      51.179  33.922  51.491  0.00  0.00    -0.058 NA
ATOM     13  N   UNL d   1      50.421  34.116  51.267  0.00  0.00    -0.129 NA
ATOM     14  C   UNL d   1      50.036  34.435  51.929  0.00  0.00     0.122 A 
ATOM     15  C   UNL d   1      50.582  34.431  52.571  0.00  0.00     0.105 A 
ATOM     16  C   UNL d   1      49.273  34.725  52.037  0.00  0.00     0.022 A 
ATOM     17  C   UNL d   1      50.343  34.720  53.303  0.00  0.00     0.021 A 
ATOM     18  C   UNL d   1      49.550  35.015  53.394  0.00  0.00     0.002 A 
ATOM     19  C   UNL d   1      49.050  35.002  52.749  0.00  0.00     0.002 A 
ENDBRANCH   1  11
BRANCH   5  20
ATOM     20  C   UNL d   1      53.861  33.824  54.356  0.00  0.00     0.020 A 
ATOM     21  C   UNL d   1      53.726  33.727  55.171  0.00  0.00     0.004 A 
ATOM     22  C   UNL d   1      54.366  33.656  55.686  0.00  0.00     0.030 A 
ATOM     23  C   UNL d   1      55.142  33.681  55.386  0.00  0.00     0.140 A 
ATOM     24  C   UNL d   1      55.269  33.776  54.580  0.00  0.00     0.030 A 
ATOM     25  F   UNL d   1      55.782  33.609  55.901  0.00  0.00    -0.204 F 
ATOM     26  C   UNL d   1      54.629  33.848  54.065  0.00  0.00     0.004 A 
ENDBRANCH   5  20
TORSDOF 2
ENDMDL
MODEL 4
REMARK VINA RESULT:      -9.5      2.421      4.530
REMARK  2 active torsions:
REMARK  status: ('A' for Active; 'I' for Inactive)
REMARK    1  A    between atoms: C_3  and  N_1 
REMARK    2  A    between atoms: C_12  and  C_9 
ROOT
ATOM      1  C   UNL d   1      53.100  33.590  53.319  0.00  0.00     0.187 A 
ATOM      2  N   UNL d   1      52.928  34.392  53.184  0.00  0.00    -0.129 NA
ATOM      3  N   UNL d   1      52.175  34.612  52.927  0.00  0.00    -0.147 NA
ATOM      4  C   UNL d   1      52.523  33.018  53.197  0.00  0.00     0.039 A 
ATOM      5  C   UNL d   1      51.594  34.029  52.806  0.00  0.00     0.103 A 
ATOM      6  C   UNL d   1      51.770  33.237  52.941  0.00  0.00     0.022 A 
ATOM      7  C   UNL d   1      52.697  32.222  53.332  0.00  0.00     0.003 A 
ATOM      8  C   UNL d   1      51.191  32.660  52.819  0.00  0.00     0.002 A 
ATOM      9  C   UNL d   1      51.367  31.869  52.954  0.00  0.00     0.000 A 
ATOM     10  C   UNL d   1      52.120  31.650  53.211  0.00  0.00     0.000 A 
ENDROOT
BRANCH   1  11
ATOM     11  N   UNL d   1      53.852  33.371  53.576  0.00  0.00    -0.191 N 
ATOM     12  N   UNL d   1      54.461  32.901  53.250  0.00  0.00    -0.058 NA
ATOM     13  N   UNL d   1      55.097  32.875  53.757  0.00  0.00    -0.129 NA
ATOM     14  C   UNL d   1      54.909  33.331  54.423  0.00  0.00     0.122 A 
ATOM     15  C   UNL d   1      54.133  33.641  54.311  0.00  0.00     0.105 A 
ATOM     16  C   UNL d   1      55.329  33.507  55.109  0.00  0.00     0.022 A 
ATOM     17  C   UNL d   1      53.802  34.119  54.894  0.00  0.00     0.021 A 
ATOM     18  C   UNL d   1      54.254  34.288  55.595  0.00  0.00     0.002 A 
ATOM     19  C   UNL d   1      55.002  33.970  55.668  0.00  0.00     0.002 A 
ENDBRANCH   1  11
BRANCH   5  20
ATOM     20  C   UNL d   1      50.841  34.248  52.549  0.00  0.00     0.020 A 
ATOM     21  C   UNL d   1      50.277  34.509  53.101  0.00  0.00     0.004 A 
ATOM     22  C   UNL d   1      49.525  34.728  52.844  0.00  0.00     0.030 A 
ATOM     23  C   UNL d   1      49.336  34.686  52.035  0.00  0.00     0.140 A 
ATOM     24  C   UNL d   1      49.897  34.427  51.494  0.00  0.00     0.030 A 
ATOM     25  F   UNL d   1      48.583  34.905  51.779  0.00  0.00    -0.204 F 
ATOM     26  C   UNL d   1      50.650  34.207  51.751  0.00  0.00     0.004 A 
ENDBRANCH   5  20
TORSDOF 2
ENDMDL
MODEL 5
REMARK VINA RESULT:      -8.4      1.548      2.387
REMARK  2 active torsions:
REMARK  status: ('A' for Active; 'I' for Inactive)
REMARK    1  A    between atoms: C_3  and  N_1 
REMARK    2  A    between atoms: C_12  and  C_9 
ROOT
ATOM      1  C   UNL d   1      50.808  33.824  53.109  0.00  0.00     0.187 A 
ATOM      2  N   UNL d   1      50.580  33.025  53.110  0.00  0.00    -0.129 NA
ATOM      3  N   UNL d   1      51.154  32.436  53.174  0.00  0.00    -0.147 NA
ATOM      4  C   UNL d   1      51.601  34.028  53.171  0.00  0.00     0.039 A 
ATOM      5  C   UNL d   1      51.956  32.647  53.237  0.00  0.00     0.103 A 
ATOM      6  C   UNL d   1      52.176  33.439  53.235  0.00  0.00     0.022 A 
ATOM      7  C   UNL d   1      51.825  34.823  53.169  0.00  0.00     0.003 A 
ATOM      8  C   UNL d   1      52.973  33.645  53.297  0.00  0.00     0.002 A 
ATOM      9  C   UNL d   1      53.192  34.437  53.295  0.00  0.00     0.000 A 
ATOM     10  C   UNL d   1      52.618  35.026  53.231  0.00  0.00     0.000 A 
ENDROOT
BRANCH   1  11
ATOM     11  N   UNL d   1      50.233  34.413  53.045  0.00  0.00    -0.191 N 
ATOM     12  N   UNL d   1      49.982  35.033  53.545  0.00  0.00    -0.058 NA
ATOM     13  N   UNL d   1      49.381  35.452  53.191  0.00  0.00    -0.129 NA
ATOM     14  C   UNL d   1      49.233  35.108  52.451  0.00  0.00     0.122 A 
ATOM     15  C   UNL d   1      49.764  34.460  52.359  0.00  0.00     0.105 A 
ATOM     16  C   UNL d   1      48.696  35.289  51.854  0.00  0.00     0.022 A 
ATOM     17  C   UNL d   1      49.739  34.014  51.668  0.00  0.00     0.021 A 
ATOM     18  C   UNL d   1      49.176  34.219  51.064  0.00  0.00     0.002 A 
ATOM     19  C   UNL d   1      48.678  34.853  51.189  0.00  0.00     0.002 A 
ENDBRANCH   1  11
BRANCH   5  20
ATOM     20  C   UNL d   1      52.530  32.058  53.301  0.00  0.00     0.020 A 
ATOM     21  C   UNL d   1      52.669  31.546  52.661  0.00  0.00     0.004 A 
ATOM     22  C   UNL d   1      53.243  30.957  52.725  0.00  0.00     0.030 A 
ATOM     23  C   UNL d   1      53.679  30.880  53.429  0.00  0.00     0.140 A 
ATOM     24  C   UNL d   1      53.538  31.389  54.059  0.00  0.00     0.030 A 
ATOM     25  F   UNL d   1      54.253  30.291  53.493  0.00  0.00    -0.204 F 
ATOM     26  C   UNL d   1      52.963  31.978  53.995  0.00  0.00     0.004 A 
ENDBRANCH   5  20
TORSDOF 2
ENDMDL
MODEL 6
REMARK VINA RESULT:      -7.7      1.254      2.088
REMARK  2 active torsions:
REMARK  status: ('A' for Active; 'I' for Inactive)
REMARK    1  A    between atoms: C_3  and  N_1 
REMARK    2  A    between atoms: C_12  and  C_9 
ROOT
ATOM      1  C   UNL d   1      53.103  33.116  53.499  0.00  0.00     0.187 A 
ATOM      2  N   UNL d   1      53.829  32.791  53.739  0.00  0.00    -0.129 NA
ATOM      3  N   UNL d   1      53.894  31.977  53.854  0.00  0.00    -0.147 NA
ATOM      4  C   UNL d   1      52.453  32.629  53.375  0.00  0.00     0.039 A 
ATOM      5  C   UNL d   1      53.234  31.488  53.728  0.00  0.00     0.103 A 
ATOM      6  C   UNL d   1      52.518  31.815  53.490  0.00  0.00     0.022 A 
ATOM      7  C   UNL d   1      51.732  32.955  53.136  0.00  0.00     0.003 A 
ATOM      8  C   UNL d   1      51.863  31.326  53.366  0.00  0.00     0.002 A 
ATOM      9  C   UNL d   1      51.148  31.654  53.128  0.00  0.00     0.000 A 
ATOM     10  C   UNL d   1      51.083  32.468  53.013  0.00  0.00     0.000 A 
ENDROOT
BRANCH   1  11
ATOM     11  N   UNL d   1      53.038  33.931  53.384  0.00  0.00    -0.191 N 
ATOM     12  N   UNL d   1      52.876  34.411  52.719  0.00  0.00    -0.058 NA
ATOM     13  N   UNL d   1      52.880  35.196  52.933  0.00  0.00    -0.129 NA
ATOM     14  C   UNL d   1      53.045  35.236  53.744  0.00  0.00     0.122 A 
ATOM     15  C   UNL d   1      53.144  34.448  54.026  0.00  0.00     0.105 A 
ATOM     16  C   UNL d   1      53.120  35.873  54.262  0.00  0.00     0.022 A 
ATOM     17  C   UNL d   1      53.314  34.324  54.822  0.00  0.00     0.021 A 
ATOM     18  C   UNL d   1      53.387  34.995  55.339  0.00  0.00     0.002 A 
ATOM     19  C   UNL d   1      53.284  35.744  55.029  0.00  0.00     0.002 A 
ENDBRANCH   1  11
BRANCH   5  20
ATOM     20  C   UNL d   1      53.299  30.673  53.843  0.00  0.00     0.020 A 
ATOM     21  C   UNL d   1      53.207  30.356  54.606  0.00  0.00     0.004 A 
ATOM     22  C   UNL d   1      53.273  29.542  54.721  0.00  0.00     0.030 A 
ATOM     23  C   UNL d   1      53.430  29.045  54.073  0.00  0.00     0.140 A 
ATOM     24  C   UNL d   1      53.519  29.364  53.321  0.00  0.00     0.030 A 
ATOM     25  F   UNL d   1      53.495  28.230  54.188  0.00  0.00    -0.204 F 
ATOM     26  C   UNL d   1      53.454  30.178  53.206  0.00  0.00     0.004 A 
ENDBRANCH   5  20
TORSDOF 2
ENDMDL
MODEL 7
REMARK VINA RESULT:      -7.7      3.266      5.408
REMARK  2 active torsions:
REMARK  status: ('A' for Active; 'I' for Inactive)
REMARK    1  A    between atoms: C_3  and  N_1 
REMARK    2  A    between atoms: C_12  and  C_9 
ROOT
ATOM      1  C   UNL d   1      48.485  35.570  52.632  0.00  0.00     0.187 A 
ATOM      2  N   UNL d   1      48.951  35.635  53.317  0.00  0.00    -0.129 NA
ATOM      3  N   UNL d   1      49.661  35.217  53.370  0.00  0.00    -0.147 NA
ATOM      4  C   UNL d   1      48.728  35.091  52.010  0.00  0.00     0.039 A 
ATOM      5  C   UNL d   1      49.903  34.734  52.738  0.00  0.00     0.103 A 
ATOM      6  C   UNL d   1      49.438  34.673  52.063  0.00  0.00     0.022 A 
ATOM      7  C   UNL d   1      48.263  35.028  51.331  0.00  0.00     0.003 A 
ATOM      8  C   UNL d   1      49.681  34.192  51.436  0.00  0.00     0.002 A 
ATOM      9  C   UNL d   1      49.216  34.132  50.762  0.00  0.00     0.000 A 
ATOM     10  C   UNL d   1      48.506  34.550  50.709  0.00  0.00     0.000 A 
ENDROOT
BRANCH   1  11
ATOM     11  N   UNL d   1      47.776  35.988  52.579  0.00  0.00    -0.191 N 
ATOM     12  N   UNL d   1      47.387  36.393  51.960  0.00  0.00    -0.058 NA
ATOM     13  N   UNL d   1      46.687  36.709  52.228  0.00  0.00    -0.129 NA
ATOM     14  C   UNL d   1      46.612  36.513  53.031  0.00  0.00     0.122 A 
ATOM     15  C   UNL d   1      47.290  36.063  53.250  0.00  0.00     0.105 A 
ATOM     16  C   UNL d   1      46.028  36.679  53.588  0.00  0.00     0.022 A 
ATOM     17  C   UNL d   1      47.360  35.793  54.024  0.00  0.00     0.021 A 
ATOM     18  C   UNL d   1      46.745  35.975  54.583  0.00  0.00     0.002 A 
ATOM     19  C   UNL d   1      46.103  36.413  54.334  0.00  0.00     0.002 A 
ENDBRANCH   1  11
BRANCH   5  20
ATOM     20  C   UNL d   1      50.613  34.316  52.791  0.00  0.00     0.020 A 
ATOM     21  C   UNL d   1      50.626  33.572  53.161  0.00  0.00     0.004 A 
ATOM     22  C   UNL d   1      51.335  33.154  53.214  0.00  0.00     0.030 A 
ATOM     23  C   UNL d   1      52.031  33.480  52.897  0.00  0.00     0.140 A 
ATOM     24  C   UNL d   1      52.012  34.216  52.531  0.00  0.00     0.030 A 
ATOM     25  F   UNL d   1      52.740  33.062  52.950  0.00  0.00    -0.204 F 
ATOM     26  C   UNL d   1      51.303  34.634  52.478  0.00  0.00     0.004 A 
ENDBRANCH   5  20
TORSDOF 2
ENDMDL
