MODEL 1
REMARK VINA RESULT:      -2.3      0.000      0.000
REMARK  3 active torsions:
REMARK  status: ('A' for Active; 'I' for Inactive)
REMARK    1  A    between atoms: N_5  and  C_1 
REMARK       I    between atoms: C_2  and  N_3 
REMARK    2  A    between atoms: C_4  and  C_2 
REMARK    3  A    between atoms: N_3  and  N_5 
ROOT
ATOM      1  C   UNL d   1      30.799  15.926 -24.007  0.00  0.00     0.060 A 
ATOM      2  C   UNL d   1      30.122  16.310 -24.269  0.00  0.00     0.012 A 
ATOM      3  C   UNL d   1      29.420  16.271 -23.835  0.00  0.00     0.035 A 
ATOM      4 BR   UNL d   1      28.744  16.663 -24.111  0.00  0.00    -0.049 Br
ATOM      5  C   UNL d   1      30.778  15.491 -23.294  0.00  0.00     0.005 A 
ATOM      6  C   UNL d   1      30.082  15.453 -22.865  0.00  0.00     0.001 A 
ATOM      7  C   UNL d   1      29.401  15.847 -23.141  0.00  0.00     0.007 A 
ENDROOT
BRANCH   1   8
ATOM      8  C   UNL d   1      31.497  15.974 -24.453  0.00  0.00     0.297 C 
ATOM      9  N   UNL d   1      32.057  16.523 -24.257  0.00  0.00    -0.103 NA
ATOM     10  O   UNL d   1      31.610  15.456 -25.097  0.00  0.00    -0.264 OA
BRANCH   9  11
ATOM     11  N   UNL d   1      31.933  17.020 -23.629  0.00  0.00    -0.112 NA
BRANCH  11  12
ATOM     12  C   UNL d   1      32.512  17.566 -23.417  0.00  0.00     0.260 C 
ATOM     13  S   UNL d   1      32.482  18.340 -23.718  0.00  0.00    -0.034 SA
ATOM     14  N   UNL d   1      33.120  17.347 -22.908  0.00  0.00    -0.113 N 
ENDBRANCH  11  12
ENDBRANCH   9  11
ENDBRANCH   1   8
TORSDOF 3
ENDMDL
MODEL 2
REMARK VINA RESULT:      -2.3      0.695      1.071
REMARK  3 active torsions:
REMARK  status: ('A' for Active; 'I' for Inactive)
REMARK    1  A    between atoms: N_5  and  C_1 
REMARK       I    between atoms: C_2  and  N_3 
REMARK    2  A    between atoms: C_4  and  C_2 
REMARK    3  A    between atoms: N_3  and  N_5 
ROOT
ATOM      1  C   UNL d   1      30.633  16.252 -24.333  0.00  0.00     0.060 A 
ATOM      2  C   UNL d   1      30.372  15.821 -23.685  0.00  0.00     0.012 A 
ATOM      3  C   UNL d   1      29.597  15.896 -23.413  0.00  0.00     0.035 A 
ATOM      4 BR   UNL d   1      29.346  15.455 -22.758  0.00  0.00    -0.049 Br
ATOM      5  C   UNL d   1      30.109  16.773 -24.722  0.00  0.00     0.005 A 
ATOM      6  C   UNL d   1      29.339  16.846 -24.452  0.00  0.00     0.001 A 
ATOM      7  C   UNL d   1      29.085  16.403 -23.793  0.00  0.00     0.007 A 
ENDROOT
BRANCH   1   8
ATOM      8  C   UNL d   1      31.416  16.167 -24.595  0.00  0.00     0.297 C 
ATOM      9  N   UNL d   1      31.970  16.714 -24.379  0.00  0.00    -0.103 NA
ATOM     10  O   UNL d   1      31.619  15.517 -25.077  0.00  0.00    -0.264 OA
BRANCH   9  11
ATOM     11  N   UNL d   1      31.757  17.340 -23.911  0.00  0.00    -0.112 NA
BRANCH  11  12
ATOM     12  C   UNL d   1      32.329  17.878 -23.659  0.00  0.00     0.260 C 
ATOM     13  S   UNL d   1      32.577  18.487 -24.167  0.00  0.00    -0.034 SA
ATOM     14  N   UNL d   1      32.654  17.813 -22.906  0.00  0.00    -0.113 N 
ENDBRANCH  11  12
ENDBRANCH   9  11
ENDBRANCH   1   8
TORSDOF 3
ENDMDL
MODEL 3
REMARK VINA RESULT:      -2.3      2.073      2.957
REMARK  3 active torsions:
REMARK  status: ('A' for Active; 'I' for Inactive)
REMARK    1  A    between atoms: N_5  and  C_1 
REMARK       I    between atoms: C_2  and  N_3 
REMARK    2  A    between atoms: C_4  and  C_2 
REMARK    3  A    between atoms: N_3  and  N_5 
ROOT
ATOM      1  C   UNL d   1      31.743  16.720 -24.290  0.00  0.00     0.060 A 
ATOM      2  C   UNL d   1      32.272  16.887 -23.685  0.00  0.00     0.012 A 
ATOM      3  C   UNL d   1      32.503  17.664 -23.529  0.00  0.00     0.035 A 
ATOM      4 BR   UNL d   1      33.038  17.819 -22.915  0.00  0.00    -0.049 Br
ATOM      5  C   UNL d   1      31.435  17.342 -24.754  0.00  0.00     0.005 A 
ATOM      6  C   UNL d   1      31.666  18.113 -24.599  0.00  0.00     0.001 A 
ATOM      7  C   UNL d   1      32.203  18.270 -23.982  0.00  0.00     0.007 A 
ENDROOT
BRANCH   1   8
ATOM      8  C   UNL d   1      31.520  15.934 -24.435  0.00  0.00     0.297 C 
ATOM      9  N   UNL d   1      30.841  15.646 -24.103  0.00  0.00    -0.103 NA
ATOM     10  O   UNL d   1      31.998  15.453 -24.920  0.00  0.00    -0.264 OA
BRANCH   9  11
ATOM     11  N   UNL d   1      30.386  16.125 -23.635  0.00  0.00    -0.112 NA
BRANCH  11  12
ATOM     12  C   UNL d   1      29.716  15.821 -23.263  0.00  0.00     0.260 C 
ATOM     13  S   UNL d   1      28.973  15.886 -23.629  0.00  0.00    -0.034 SA
ATOM     14  N   UNL d   1      29.782  15.453 -22.530  0.00  0.00    -0.113 N 
ENDBRANCH  11  12
ENDBRANCH   9  11
ENDBRANCH   1   8
TORSDOF 3
ENDMDL
MODEL 4
REMARK VINA RESULT:      -2.2      2.180      3.154
REMARK  3 active torsions:
REMARK  status: ('A' for Active; 'I' for Inactive)
REMARK    1  A    between atoms: N_5  and  C_1 
REMARK       I    between atoms: C_2  and  N_3 
REMARK    2  A    between atoms: C_4  and  C_2 
REMARK    3  A    between atoms: N_3  and  N_5 
ROOT
ATOM      1  C   UNL d   1      31.879  16.896 -23.965  0.00  0.00     0.060 A 
ATOM      2  C   UNL d   1      32.088  17.513 -23.465  0.00  0.00     0.012 A 
ATOM      3  C   UNL d   1      32.623  18.091 -23.711  0.00  0.00     0.035 A 
ATOM      4 BR   UNL d   1      32.826  18.709 -23.196  0.00  0.00    -0.049 Br
ATOM      5  C   UNL d   1      32.211  16.852 -24.730  0.00  0.00     0.005 A 
ATOM      6  C   UNL d   1      32.742  17.426 -24.972  0.00  0.00     0.001 A 
ATOM      7  C   UNL d   1      32.947  18.048 -24.456  0.00  0.00     0.007 A 
ENDROOT
BRANCH   1   8
ATOM      8  C   UNL d   1      31.339  16.322 -23.704  0.00  0.00     0.297 C 
ATOM      9  N   UNL d   1      30.565  16.370 -23.935  0.00  0.00    -0.103 NA
ATOM     10  O   UNL d   1      31.602  15.705 -23.209  0.00  0.00    -0.264 OA
BRANCH   9  11
ATOM     11  N   UNL d   1      30.324  16.975 -24.417  0.00  0.00    -0.112 NA
BRANCH  11  12
ATOM     12  C   UNL d   1      29.530  17.044 -24.624  0.00  0.00     0.260 C 
ATOM     13  S   UNL d   1      29.173  16.461 -25.097  0.00  0.00    -0.034 SA
ATOM     14  N   UNL d   1      29.090  17.689 -24.363  0.00  0.00    -0.113 N 
ENDBRANCH  11  12
ENDBRANCH   9  11
ENDBRANCH   1   8
TORSDOF 3
ENDMDL
MODEL 5
REMARK VINA RESULT:      -1.9      1.489      1.824
REMARK  3 active torsions:
REMARK  status: ('A' for Active; 'I' for Inactive)
REMARK    1  A    between atoms: N_5  and  C_1 
REMARK       I    between atoms: C_2  and  N_3 
REMARK    2  A    between atoms: C_4  and  C_2 
REMARK    3  A    between atoms: N_3  and  N_5 
ROOT
ATOM      1  C   UNL d   1      29.798  15.982 -23.822  0.00  0.00     0.060 A 
ATOM      2  C   UNL d   1      29.503  16.748 -23.833  0.00  0.00     0.012 A 
ATOM      3  C   UNL d   1      29.055  17.018 -24.472  0.00  0.00     0.035 A 
ATOM      4 BR   UNL d   1      28.764  17.794 -24.472  0.00  0.00    -0.049 Br
ATOM      5  C   UNL d   1      29.644  15.469 -24.463  0.00  0.00     0.005 A 
ATOM      6  C   UNL d   1      29.200  15.738 -25.096  0.00  0.00     0.001 A 
ATOM      7  C   UNL d   1      28.906  16.518 -25.097  0.00  0.00     0.007 A 
ENDROOT
BRANCH   1   8
ATOM      8  C   UNL d   1      30.246  15.724 -23.172  0.00  0.00     0.297 C 
ATOM      9  N   UNL d   1      31.053  15.735 -23.217  0.00  0.00    -0.103 NA
ATOM     10  O   UNL d   1      29.857  15.459 -22.483  0.00  0.00    -0.264 OA
BRANCH   9  11
ATOM     11  N   UNL d   1      31.417  15.995 -23.892  0.00  0.00    -0.112 NA
BRANCH  11  12
ATOM     12  C   UNL d   1      32.238  16.055 -23.920  0.00  0.00     0.260 C 
ATOM     13  S   UNL d   1      32.673  15.552 -24.419  0.00  0.00    -0.034 SA
ATOM     14  N   UNL d   1      32.627  16.611 -23.455  0.00  0.00    -0.113 N 
ENDBRANCH  11  12
ENDBRANCH   9  11
ENDBRANCH   1   8
TORSDOF 3
ENDMDL
MODEL 6
REMARK VINA RESULT:      -1.6      2.286      2.923
REMARK  3 active torsions:
REMARK  status: ('A' for Active; 'I' for Inactive)
REMARK    1  A    between atoms: N_5  and  C_1 
REMARK       I    between atoms: C_2  and  N_3 
REMARK    2  A    between atoms: C_4  and  C_2 
REMARK    3  A    between atoms: N_3  and  N_5 
ROOT
ATOM      1  C   UNL d   1      32.533  17.898 -23.729  0.00  0.00     0.060 A 
ATOM      2  C   UNL d   1      31.764  17.610 -23.750  0.00  0.00     0.012 A 
ATOM      3  C   UNL d   1      31.296  17.707 -24.423  0.00  0.00     0.035 A 
ATOM      4 BR   UNL d   1      30.522  17.412 -24.431  0.00  0.00    -0.049 Br
ATOM      5  C   UNL d   1      32.846  18.293 -24.394  0.00  0.00     0.005 A 
ATOM      6  C   UNL d   1      32.380  18.389 -25.061  0.00  0.00     0.001 A 
ATOM      7  C   UNL d   1      31.601  18.093 -25.072  0.00  0.00     0.007 A 
ENDROOT
BRANCH   1   8
ATOM      8  C   UNL d   1      32.992  17.792 -23.045  0.00  0.00     0.297 C 
ATOM      9  N   UNL d   1      33.190  18.435 -22.596  0.00  0.00    -0.103 NA
ATOM     10  O   UNL d   1      33.241  17.025 -22.831  0.00  0.00    -0.264 OA
BRANCH   9  11
ATOM     11  N   UNL d   1      32.941  19.173 -22.816  0.00  0.00    -0.112 NA
BRANCH  11  12
ATOM     12  C   UNL d   1      33.059  19.814 -22.313  0.00  0.00     0.260 C 
ATOM     13  S   UNL d   1      33.191  20.572 -22.629  0.00  0.00    -0.034 SA
ATOM     14  N   UNL d   1      33.048  19.706 -21.497  0.00  0.00    -0.113 N 
ENDBRANCH  11  12
ENDBRANCH   9  11
ENDBRANCH   1   8
TORSDOF 3
ENDMDL
MODEL 7
REMARK VINA RESULT:      -0.2      6.216      6.995
REMARK  3 active torsions:
REMARK  status: ('A' for Active; 'I' for Inactive)
REMARK    1  A    between atoms: N_5  and  C_1 
REMARK       I    between atoms: C_2  and  N_3 
REMARK    2  A    between atoms: C_4  and  C_2 
REMARK    3  A    between atoms: N_3  and  N_5 
ROOT
ATOM      1  C   UNL d   1      32.502  22.038 -20.822  0.00  0.00     0.060 A 
ATOM      2  C   UNL d   1      32.985  22.309 -20.216  0.00  0.00     0.012 A 
ATOM      3  C   UNL d   1      32.743  22.932 -19.732  0.00  0.00     0.035 A 
ATOM      4 BR   UNL d   1      33.240  23.197 -19.123  0.00  0.00    -0.049 Br
ATOM      5  C   UNL d   1      31.759  22.396 -20.951  0.00  0.00     0.005 A 
ATOM      6  C   UNL d   1      31.520  23.014 -20.470  0.00  0.00     0.001 A 
ATOM      7  C   UNL d   1      32.019  23.281 -19.857  0.00  0.00     0.007 A 
ENDROOT
BRANCH   1   8
ATOM      8  C   UNL d   1      32.758  21.410 -21.301  0.00  0.00     0.297 C 
ATOM      9  N   UNL d   1      33.082  21.568 -22.025  0.00  0.00    -0.103 NA
ATOM     10  O   UNL d   1      32.677  20.626 -21.028  0.00  0.00    -0.264 OA
BRANCH   9  11
ATOM     11  N   UNL d   1      33.153  22.335 -22.276  0.00  0.00    -0.112 NA
BRANCH  11  12
ATOM     12  C   UNL d   1      33.203  22.501 -23.081  0.00  0.00     0.260 C 
ATOM     13  S   UNL d   1      33.238  21.879 -23.631  0.00  0.00    -0.034 SA
ATOM     14  N   UNL d   1      33.218  23.281 -23.342  0.00  0.00    -0.113 N 
ENDBRANCH  11  12
ENDBRANCH   9  11
ENDBRANCH   1   8
TORSDOF 3
ENDMDL
MODEL 8
REMARK VINA RESULT:       0.5      1.733      2.073
REMARK  3 active torsions:
REMARK  status: ('A' for Active; 'I' for Inactive)
REMARK    1  A    between atoms: N_5  and  C_1 
REMARK       I    between atoms: C_2  and  N_3 
REMARK    2  A    between atoms: C_4  and  C_2 
REMARK    3  A    between atoms: N_3  and  N_5 
ROOT
ATOM      1  C   UNL d   1      29.127  16.892 -24.574  0.00  0.00     0.060 A 
ATOM      2  C   UNL d   1      28.763  16.807 -23.843  0.00  0.00     0.012 A 
ATOM      3  C   UNL d   1      28.431  16.086 -23.618  0.00  0.00     0.035 A 
ATOM      4 BR   UNL d   1      28.066  16.013 -22.877  0.00  0.00    -0.049 Br
ATOM      5  C   UNL d   1      29.162  16.243 -25.097  0.00  0.00     0.005 A 
ATOM      6  C   UNL d   1      28.831  15.527 -24.874  0.00  0.00     0.001 A 
ATOM      7  C   UNL d   1      28.464  15.453 -24.129  0.00  0.00     0.007 A 
ENDROOT
BRANCH   1   8
ATOM      8  C   UNL d   1      29.457  17.624 -24.785  0.00  0.00     0.297 C 
ATOM      9  N   UNL d   1      30.258  17.728 -24.736  0.00  0.00    -0.103 NA
ATOM     10  O   UNL d   1      28.959  18.240 -25.045  0.00  0.00    -0.264 OA
BRANCH   9  11
ATOM     11  N   UNL d   1      30.729  17.120 -24.482  0.00  0.00    -0.112 NA
BRANCH  11  12
ATOM     12  C   UNL d   1      31.538  17.241 -24.382  0.00  0.00     0.260 C 
ATOM     13  S   UNL d   1      32.052  17.163 -25.030  0.00  0.00    -0.034 SA
ATOM     14  N   UNL d   1      31.837  17.440 -23.641  0.00  0.00    -0.113 N 
ENDBRANCH  11  12
ENDBRANCH   9  11
ENDBRANCH   1   8
TORSDOF 3
ENDMDL
