MODEL 1
REMARK VINA RESULT:      -2.9      0.000      0.000
REMARK  3 active torsions:
REMARK  status: ('A' for Active; 'I' for Inactive)
REMARK    1  A    between atoms: N_3  and  S_1 
REMARK    2  A    between atoms: C_9  and  S_1 
REMARK    3  A    between atoms: C_2  and  N_3 
ROOT
ATOM      1  C   UNL d   1      32.870  21.279 -22.311  0.00  0.00     0.157 A 
ATOM      2  C   UNL d   1      33.051  21.837 -22.885  0.00  0.00     0.102 A 
ATOM      3  C   UNL d   1      33.059  22.637 -22.684  0.00  0.00     0.110 A 
ATOM      4  C   UNL d   1      32.887  22.879 -21.909  0.00  0.00     0.207 A 
ATOM      5  C   UNL d   1      32.700  21.506 -21.553  0.00  0.00     0.035 A 
ATOM      6  C   UNL d   1      32.709  22.306 -21.352  0.00  0.00     0.042 A 
ATOM      7 CL   UNL d   1      33.224  21.613 -23.655  0.00  0.00    -0.079 Cl
ATOM      8 CL   UNL d   1      33.241  23.213 -23.253  0.00  0.00    -0.078 Cl
ATOM      9  O   UNL d   1      32.896  23.679 -21.707  0.00  0.00    -0.286 OA
ATOM     10  C   UNL d   1      32.519  20.948 -20.979  0.00  0.00     0.003 A 
ATOM     11  C   UNL d   1      32.536  22.548 -20.577  0.00  0.00     0.003 A 
ATOM     12  C   UNL d   1      32.355  21.971 -20.008  0.00  0.00     0.000 A 
ATOM     13  C   UNL d   1      32.346  21.171 -20.209  0.00  0.00     0.000 A 
ENDROOT
BRANCH   1  14
ATOM     14  N   UNL d   1      32.861  20.479 -22.512  0.00  0.00    -0.316 NA
BRANCH  14  15
ATOM     15  S   UNL d   1      32.852  19.678 -22.713  0.00  0.00     0.327 S 
ATOM     16  O   UNL d   1      33.241  19.501 -22.024  0.00  0.00    -0.186 OA
ATOM     17  O   UNL d   1      32.457  19.864 -23.413  0.00  0.00    -0.186 OA
BRANCH  15  18
ATOM     18  C   UNL d   1      32.844  18.883 -22.913  0.00  0.00     0.116 A 
ATOM     19  C   UNL d   1      33.237  18.338 -22.455  0.00  0.00     0.014 A 
ATOM     20  C   UNL d   1      33.228  17.538 -22.656  0.00  0.00     0.001 A 
ATOM     21  C   UNL d   1      32.818  17.286 -23.327  0.00  0.00     0.000 A 
ATOM     22  C   UNL d   1      32.417  17.833 -23.796  0.00  0.00     0.001 A 
ATOM     23  C   UNL d   1      32.821  16.477 -23.514  0.00  0.00     0.000 C 
ATOM     24  C   UNL d   1      32.426  18.642 -23.593  0.00  0.00     0.014 A 
ENDBRANCH  15  18
ENDBRANCH  14  15
ENDBRANCH   1  14
TORSDOF 3
ENDMDL
MODEL 2
REMARK VINA RESULT:      -2.6      2.255      5.083
REMARK  3 active torsions:
REMARK  status: ('A' for Active; 'I' for Inactive)
REMARK    1  A    between atoms: N_3  and  S_1 
REMARK    2  A    between atoms: C_9  and  S_1 
REMARK    3  A    between atoms: C_2  and  N_3 
ROOT
ATOM      1  C   UNL d   1      32.056  17.645 -23.673  0.00  0.00     0.157 A 
ATOM      2  C   UNL d   1      32.552  17.002 -23.552  0.00  0.00     0.102 A 
ATOM      3  C   UNL d   1      32.355  16.272 -23.880  0.00  0.00     0.110 A 
ATOM      4  C   UNL d   1      31.662  16.184 -24.329  0.00  0.00     0.207 A 
ATOM      5  C   UNL d   1      31.380  17.569 -24.108  0.00  0.00     0.035 A 
ATOM      6  C   UNL d   1      31.182  16.838 -24.437  0.00  0.00     0.042 A 
ATOM      7 CL   UNL d   1      33.241  17.074 -23.111  0.00  0.00    -0.079 Cl
ATOM      8 CL   UNL d   1      32.846  15.612 -23.767  0.00  0.00    -0.078 Cl
ATOM      9  O   UNL d   1      31.465  15.453 -24.657  0.00  0.00    -0.286 OA
ATOM     10  C   UNL d   1      30.884  18.212 -24.229  0.00  0.00     0.003 A 
ATOM     11  C   UNL d   1      30.489  16.750 -24.885  0.00  0.00     0.003 A 
ATOM     12  C   UNL d   1      29.998  17.410 -24.998  0.00  0.00     0.000 A 
ATOM     13  C   UNL d   1      30.195  18.140 -24.670  0.00  0.00     0.000 A 
ENDROOT
BRANCH   1  14
ATOM     14  N   UNL d   1      32.253  18.376 -23.344  0.00  0.00    -0.316 NA
BRANCH  14  15
ATOM     15  S   UNL d   1      32.451  19.107 -23.016  0.00  0.00     0.327 S 
ATOM     16  O   UNL d   1      32.791  19.330 -23.718  0.00  0.00    -0.186 OA
ATOM     17  O   UNL d   1      32.103  18.875 -22.305  0.00  0.00    -0.186 OA
BRANCH  15  18
ATOM     18  C   UNL d   1      32.647  19.833 -22.690  0.00  0.00     0.116 A 
ATOM     19  C   UNL d   1      32.985  20.414 -23.148  0.00  0.00     0.014 A 
ATOM     20  C   UNL d   1      33.182  21.145 -22.820  0.00  0.00     0.001 A 
ATOM     21  C   UNL d   1      33.036  21.290 -22.021  0.00  0.00     0.000 A 
ATOM     22  C   UNL d   1      32.694  20.706 -21.550  0.00  0.00     0.001 A 
ATOM     23  C   UNL d   1      33.241  22.031 -21.708  0.00  0.00     0.000 C 
ATOM     24  C   UNL d   1      32.494  19.967 -21.881  0.00  0.00     0.014 A 
ENDBRANCH  15  18
ENDBRANCH  14  15
ENDBRANCH   1  14
TORSDOF 3
ENDMDL
MODEL 3
REMARK VINA RESULT:      -1.5      1.701      4.509
REMARK  3 active torsions:
REMARK  status: ('A' for Active; 'I' for Inactive)
REMARK    1  A    between atoms: N_3  and  S_1 
REMARK    2  A    between atoms: C_9  and  S_1 
REMARK    3  A    between atoms: C_2  and  N_3 
ROOT
ATOM      1  C   UNL d   1      33.123  19.332 -22.663  0.00  0.00     0.157 A 
ATOM      2  C   UNL d   1      33.134  18.574 -22.347  0.00  0.00     0.102 A 
ATOM      3  C   UNL d   1      33.169  17.924 -22.855  0.00  0.00     0.110 A 
ATOM      4  C   UNL d   1      33.193  18.033 -23.677  0.00  0.00     0.207 A 
ATOM      5  C   UNL d   1      33.145  19.446 -23.463  0.00  0.00     0.035 A 
ATOM      6  C   UNL d   1      33.181  18.797 -23.970  0.00  0.00     0.042 A 
ATOM      7 CL   UNL d   1      33.111  18.451 -21.536  0.00  0.00    -0.079 Cl
ATOM      8 CL   UNL d   1      33.182  17.152 -22.551  0.00  0.00    -0.078 Cl
ATOM      9  O   UNL d   1      33.229  17.383 -24.185  0.00  0.00    -0.286 OA
ATOM     10  C   UNL d   1      33.134  20.204 -23.778  0.00  0.00     0.003 A 
ATOM     11  C   UNL d   1      33.205  18.905 -24.793  0.00  0.00     0.003 A 
ATOM     12  C   UNL d   1      33.192  19.677 -25.097  0.00  0.00     0.000 A 
ATOM     13  C   UNL d   1      33.157  20.327 -24.589  0.00  0.00     0.000 A 
ENDROOT
BRANCH   1  14
ATOM     14  N   UNL d   1      33.087  19.981 -22.155  0.00  0.00    -0.316 NA
BRANCH  14  15
ATOM     15  S   UNL d   1      33.052  20.631 -21.648  0.00  0.00     0.327 S 
ATOM     16  O   UNL d   1      32.891  21.115 -22.278  0.00  0.00    -0.186 OA
ATOM     17  O   UNL d   1      33.216  20.134 -21.009  0.00  0.00    -0.186 OA
BRANCH  15  18
ATOM     18  C   UNL d   1      33.017  21.276 -21.143  0.00  0.00     0.116 A 
ATOM     19  C   UNL d   1      33.225  21.201 -20.360  0.00  0.00     0.014 A 
ATOM     20  C   UNL d   1      33.190  21.850 -19.853  0.00  0.00     0.001 A 
ATOM     21  C   UNL d   1      32.942  22.583 -20.139  0.00  0.00     0.000 A 
ATOM     22  C   UNL d   1      32.729  22.668 -20.932  0.00  0.00     0.001 A 
ATOM     23  C   UNL d   1      32.912  23.226 -19.614  0.00  0.00     0.000 C 
ATOM     24  C   UNL d   1      32.765  22.011 -21.445  0.00  0.00     0.014 A 
ENDBRANCH  15  18
ENDBRANCH  14  15
ENDBRANCH   1  14
TORSDOF 3
ENDMDL
MODEL 4
REMARK VINA RESULT:      -1.5      2.016      4.982
REMARK  3 active torsions:
REMARK  status: ('A' for Active; 'I' for Inactive)
REMARK    1  A    between atoms: N_3  and  S_1 
REMARK    2  A    between atoms: C_9  and  S_1 
REMARK    3  A    between atoms: C_2  and  N_3 
ROOT
ATOM      1  C   UNL d   1      31.888  17.677 -23.622  0.00  0.00     0.157 A 
ATOM      2  C   UNL d   1      31.288  17.651 -24.181  0.00  0.00     0.102 A 
ATOM      3  C   UNL d   1      31.063  16.924 -24.500  0.00  0.00     0.110 A 
ATOM      4  C   UNL d   1      31.438  16.224 -24.261  0.00  0.00     0.207 A 
ATOM      5  C   UNL d   1      32.259  16.999 -23.383  0.00  0.00     0.035 A 
ATOM      6  C   UNL d   1      32.034  16.273 -23.702  0.00  0.00     0.042 A 
ATOM      7 CL   UNL d   1      30.907  18.335 -24.428  0.00  0.00    -0.079 Cl
ATOM      8 CL   UNL d   1      30.457  16.882 -25.067  0.00  0.00    -0.078 Cl
ATOM      9  O   UNL d   1      31.213  15.497 -24.580  0.00  0.00    -0.286 OA
ATOM     10  C   UNL d   1      32.860  17.025 -22.824  0.00  0.00     0.003 A 
ATOM     11  C   UNL d   1      32.409  15.572 -23.463  0.00  0.00     0.003 A 
ATOM     12  C   UNL d   1      33.015  15.615 -22.896  0.00  0.00     0.000 A 
ATOM     13  C   UNL d   1      33.240  16.341 -22.577  0.00  0.00     0.000 A 
ENDROOT
BRANCH   1  14
ATOM     14  N   UNL d   1      32.113  18.403 -23.303  0.00  0.00    -0.316 NA
BRANCH  14  15
ATOM     15  S   UNL d   1      32.339  19.130 -22.983  0.00  0.00     0.327 S 
ATOM     16  O   UNL d   1      31.804  19.031 -22.382  0.00  0.00    -0.186 OA
ATOM     17  O   UNL d   1      32.881  19.226 -23.598  0.00  0.00    -0.186 OA
BRANCH  15  18
ATOM     18  C   UNL d   1      32.562  19.852 -22.666  0.00  0.00     0.116 A 
ATOM     19  C   UNL d   1      32.860  20.439 -23.145  0.00  0.00     0.014 A 
ATOM     20  C   UNL d   1      33.085  21.166 -22.825  0.00  0.00     0.001 A 
ATOM     21  C   UNL d   1      33.009  21.301 -22.015  0.00  0.00     0.000 A 
ATOM     22  C   UNL d   1      32.708  20.710 -21.523  0.00  0.00     0.001 A 
ATOM     23  C   UNL d   1      33.241  22.038 -21.711  0.00  0.00     0.000 C 
ATOM     24  C   UNL d   1      32.481  19.976 -21.846  0.00  0.00     0.014 A 
ENDBRANCH  15  18
ENDBRANCH  14  15
ENDBRANCH   1  14
TORSDOF 3
ENDMDL
