MODEL 1
REMARK VINA RESULT:      -9.0      0.000      0.000
REMARK  4 active torsions:
REMARK  status: ('A' for Active; 'I' for Inactive)
REMARK    1  A    between atoms: C_11  and  C_4 
REMARK    2  A    between atoms: N_10  and  C_5 
REMARK    3  A    between atoms: C_13  and  N_10 
REMARK    4  A    between atoms: C_14  and  C_13 
ROOT
ATOM      1  N   UNL d   1     -47.248  12.849  23.136  0.00  0.00    -0.195 N 
ATOM      2  C   UNL d   1     -48.049  13.046  23.110  0.00  0.00     0.167 A 
ATOM      3  N   UNL d   1     -46.820  13.514  22.930  0.00  0.00    -0.163 NA
ATOM      4  C   UNL d   1     -48.114  13.833  22.888  0.00  0.00     0.055 A 
ATOM      5  C   UNL d   1     -47.018  12.087  23.345  0.00  0.00     0.167 A 
ATOM      6  C   UNL d   1     -47.356  14.125  22.776  0.00  0.00     0.104 A 
ATOM      7  N   UNL d   1     -48.619  12.481  23.293  0.00  0.00    -0.227 NA
ATOM      8  C   UNL d   1     -47.590  11.515  23.531  0.00  0.00     0.058 A 
ATOM      9  C   UNL d   1     -48.391  11.712  23.505  0.00  0.00     0.086 A 
ATOM     10  C   UNL d   1     -47.163  14.894  22.548  0.00  0.00     0.023 C 
ATOM     11  C   UNL d   1     -48.973  11.147  23.688  0.00  0.00     0.021 C 
ENDROOT
BRANCH   5  12
ATOM     12  N   UNL d   1     -46.218  11.890  23.372  0.00  0.00    -0.224 NA
BRANCH  12  13
ATOM     13  C   UNL d   1     -45.990  11.107  23.481  0.00  0.00     0.120 C 
BRANCH  13  14
ATOM     14  C   UNL d   1     -45.195  10.896  23.420  0.00  0.00     0.101 A 
ATOM     15  N   UNL d   1     -44.653  11.423  23.078  0.00  0.00    -0.242 NA
ATOM     16  C   UNL d   1     -43.854  11.211  23.017  0.00  0.00     0.099 A 
ATOM     17  C   UNL d   1     -43.601  10.473  23.298  0.00  0.00     0.021 A 
ATOM     18  C   UNL d   1     -44.141   9.953  23.637  0.00  0.00     0.003 A 
ATOM     19  C   UNL d   1     -44.940  10.165  23.698  0.00  0.00     0.021 A 
ENDBRANCH  13  14
ENDBRANCH  12  13
ENDBRANCH   5  12
BRANCH   4  20
ATOM     20  C   UNL d   1     -48.764  14.328  22.771  0.00  0.00     0.004 A 
ATOM     21  C   UNL d   1     -48.976  14.875  23.357  0.00  0.00     0.000 A 
ATOM     22  C   UNL d   1     -49.627  15.371  23.240  0.00  0.00     0.000 A 
ATOM     23  C   UNL d   1     -50.065  15.323  22.544  0.00  0.00     0.000 A 
ATOM     24  C   UNL d   1     -49.851  14.774  21.957  0.00  0.00     0.000 A 
ATOM     25  C   UNL d   1     -49.203  14.281  22.074  0.00  0.00     0.000 A 
ENDBRANCH   4  20
TORSDOF 4
ENDMDL
MODEL 2
REMARK VINA RESULT:      -8.7      1.034      1.950
REMARK  4 active torsions:
REMARK  status: ('A' for Active; 'I' for Inactive)
REMARK    1  A    between atoms: C_11  and  C_4 
REMARK    2  A    between atoms: N_10  and  C_5 
REMARK    3  A    between atoms: C_13  and  N_10 
REMARK    4  A    between atoms: C_14  and  C_13 
ROOT
ATOM      1  N   UNL d   1     -47.500  12.379  23.294  0.00  0.00    -0.195 N 
ATOM      2  C   UNL d   1     -48.039  12.975  23.108  0.00  0.00     0.167 A 
ATOM      3  N   UNL d   1     -47.926  11.704  23.474  0.00  0.00    -0.163 NA
ATOM      4  C   UNL d   1     -48.797  12.667  23.173  0.00  0.00     0.055 A 
ATOM      5  C   UNL d   1     -46.692  12.533  23.274  0.00  0.00     0.167 A 
ATOM      6  C   UNL d   1     -48.730  11.882  23.399  0.00  0.00     0.104 A 
ATOM      7  N   UNL d   1     -47.770  13.725  22.902  0.00  0.00    -0.227 NA
ATOM      8  C   UNL d   1     -46.417  13.288  23.066  0.00  0.00     0.058 A 
ATOM      9  C   UNL d   1     -46.956  13.884  22.880  0.00  0.00     0.086 A 
ATOM     10  C   UNL d   1     -49.356  11.362  23.529  0.00  0.00     0.023 C 
ATOM     11  C   UNL d   1     -46.692  14.645  22.671  0.00  0.00     0.021 C 
ENDROOT
BRANCH   5  12
ATOM     12  N   UNL d   1     -46.153  11.937  23.460  0.00  0.00    -0.224 NA
BRANCH  12  13
ATOM     13  C   UNL d   1     -45.501  11.806  22.976  0.00  0.00     0.120 C 
BRANCH  13  14
ATOM     14  C   UNL d   1     -44.952  11.222  23.172  0.00  0.00     0.101 A 
ATOM     15  N   UNL d   1     -44.144  11.355  23.038  0.00  0.00    -0.242 NA
ATOM     16  C   UNL d   1     -43.592  10.769  23.235  0.00  0.00     0.099 A 
ATOM     17  C   UNL d   1     -43.851  10.053  23.565  0.00  0.00     0.021 A 
ATOM     18  C   UNL d   1     -44.653   9.925  23.697  0.00  0.00     0.003 A 
ATOM     19  C   UNL d   1     -45.205  10.511  23.500  0.00  0.00     0.021 A 
ENDBRANCH  13  14
ENDBRANCH  12  13
ENDBRANCH   5  12
BRANCH   4  20
ATOM     20  C   UNL d   1     -49.545  12.997  23.057  0.00  0.00     0.004 A 
ATOM     21  C   UNL d   1     -49.899  12.962  22.307  0.00  0.00     0.000 A 
ATOM     22  C   UNL d   1     -50.647  13.292  22.191  0.00  0.00     0.000 A 
ATOM     23  C   UNL d   1     -51.043  13.655  22.817  0.00  0.00     0.000 A 
ATOM     24  C   UNL d   1     -50.686  13.688  23.567  0.00  0.00     0.000 A 
ATOM     25  C   UNL d   1     -49.941  13.360  23.682  0.00  0.00     0.000 A 
ENDBRANCH   4  20
TORSDOF 4
ENDMDL
MODEL 3
REMARK VINA RESULT:      -7.6      1.102      1.541
REMARK  4 active torsions:
REMARK  status: ('A' for Active; 'I' for Inactive)
REMARK    1  A    between atoms: C_11  and  C_4 
REMARK    2  A    between atoms: N_10  and  C_5 
REMARK    3  A    between atoms: C_13  and  N_10 
REMARK    4  A    between atoms: C_14  and  C_13 
ROOT
ATOM      1  N   UNL d   1     -47.457  13.580  22.857  0.00  0.00    -0.195 N 
ATOM      2  C   UNL d   1     -48.264  13.529  23.019  0.00  0.00     0.167 A 
ATOM      3  N   UNL d   1     -47.302  14.338  22.591  0.00  0.00    -0.163 NA
ATOM      4  C   UNL d   1     -48.606  14.257  22.854  0.00  0.00     0.055 A 
ATOM      5  C   UNL d   1     -46.972  12.926  22.973  0.00  0.00     0.167 A 
ATOM      6  C   UNL d   1     -48.014  14.758  22.589  0.00  0.00     0.104 A 
ATOM      7  N   UNL d   1     -48.585  12.825  23.297  0.00  0.00    -0.227 NA
ATOM      8  C   UNL d   1     -47.292  12.214  23.254  0.00  0.00     0.058 A 
ATOM      9  C   UNL d   1     -48.099  12.164  23.416  0.00  0.00     0.086 A 
ATOM     10  C   UNL d   1     -48.113  15.545  22.361  0.00  0.00     0.023 C 
ATOM     11  C   UNL d   1     -48.431  11.455  23.698  0.00  0.00     0.021 C 
ENDROOT
BRANCH   5  12
ATOM     12  N   UNL d   1     -46.164  12.976  22.811  0.00  0.00    -0.224 NA
BRANCH  12  13
ATOM     13  C   UNL d   1     -45.742  12.300  22.609  0.00  0.00     0.120 C 
BRANCH  13  14
ATOM     14  C   UNL d   1     -44.964  12.364  22.340  0.00  0.00     0.101 A 
ATOM     15  N   UNL d   1     -44.382  11.853  22.637  0.00  0.00    -0.242 NA
ATOM     16  C   UNL d   1     -43.601  11.917  22.367  0.00  0.00     0.099 A 
ATOM     17  C   UNL d   1     -43.407  12.491  21.801  0.00  0.00     0.021 A 
ATOM     18  C   UNL d   1     -43.987  12.996  21.508  0.00  0.00     0.003 A 
ATOM     19  C   UNL d   1     -44.768  12.932  21.779  0.00  0.00     0.021 A 
ENDBRANCH  13  14
ENDBRANCH  12  13
ENDBRANCH   5  12
BRANCH   4  20
ATOM     20  C   UNL d   1     -49.382  14.533  22.908  0.00  0.00     0.004 A 
ATOM     21  C   UNL d   1     -49.910  14.407  22.280  0.00  0.00     0.000 A 
ATOM     22  C   UNL d   1     -50.687  14.683  22.334  0.00  0.00     0.000 A 
ATOM     23  C   UNL d   1     -50.938  15.084  23.009  0.00  0.00     0.000 A 
ATOM     24  C   UNL d   1     -50.408  15.209  23.637  0.00  0.00     0.000 A 
ATOM     25  C   UNL d   1     -49.635  14.934  23.583  0.00  0.00     0.000 A 
ENDBRANCH   4  20
TORSDOF 4
ENDMDL
