MODEL 1
REMARK VINA RESULT:     176.9      0.000      0.000
REMARK  7 active torsions:
REMARK  status: ('A' for Active; 'I' for Inactive)
REMARK    1  A    between atoms: N_8  and  C_1 
REMARK    2  A    between atoms: C_14  and  C_2 
REMARK    3  A    between atoms: S_3  and  C_16 
REMARK    4  A    between atoms: N_7  and  S_3 
REMARK       I    between atoms: C_12  and  N_8 
REMARK       I    between atoms: C_13  and  N_11 
REMARK    5  A    between atoms: C_22  and  C_12 
REMARK    6  A    between atoms: O_33  and  C_13 
REMARK    7  A    between atoms: C_38  and  O_33 
ROOT
ATOM      1  C   UNL d   1      43.008 -15.641  39.034  0.00  0.00     0.104 A 
ATOM      2  C   UNL d   1      43.968 -16.546  40.010  0.00  0.00     0.056 A 
ATOM      3  C   UNL d   1      43.659 -16.039  38.716  0.00  0.00     0.013 A 
ATOM      4  C   UNL d   1      42.835 -15.694  39.838  0.00  0.00     0.013 A 
ATOM      5  C   UNL d   1      44.141 -16.493  39.205  0.00  0.00     0.005 A 
ATOM      6  C   UNL d   1      43.321 -16.151  40.328  0.00  0.00     0.005 A 
ENDROOT
BRANCH   2   7
ATOM      7  C   UNL d   1      44.449 -17.001  40.504  0.00  0.00     0.258 C 
ATOM      8  N   UNL d   1      44.179 -17.224  41.260  0.00  0.00    -0.316 N 
ATOM      9  H   UNL d   1      43.664 -16.887  41.054  0.00  0.00     0.169 HD
ATOM     10  O   UNL d   1      45.203 -17.242  40.260  0.00  0.00    -0.267 OA
BRANCH   8  11
ATOM     11  C   UNL d   1      44.660 -17.679  41.755  0.00  0.00     0.094 A 
ATOM     12  C   UNL d   1      44.808 -18.482  41.675  0.00  0.00     0.081 A 
ATOM     13  C   UNL d   1      45.316 -18.720  42.283  0.00  0.00     0.008 A 
ATOM     14  C   UNL d   1      45.644 -19.449  42.474  0.00  0.00    -0.004 A 
ATOM     15  C   UNL d   1      45.483 -18.061  42.743  0.00  0.00     0.028 A 
ATOM     16  C   UNL d   1      46.139 -19.517  43.126  0.00  0.00     0.099 A 
ATOM     17  C   UNL d   1      46.259 -20.330  43.003  0.00  0.00     0.029 C 
ATOM     18  C   UNL d   1      46.647 -19.767  43.731  0.00  0.00     0.029 C 
ATOM     19  N   UNL d   1      46.313 -18.865  43.593  0.00  0.00    -0.294 NA
ATOM     20  C   UNL d   1      45.980 -18.129  43.398  0.00  0.00     0.104 A 
ATOM     21  C   UNL d   1      45.863 -17.316  43.524  0.00  0.00     0.029 C 
ATOM     22  C   UNL d   1      46.481 -18.163  44.069  0.00  0.00     0.029 C 
ATOM     23  S   UNL d   1      45.078 -17.409  42.421  0.00  0.00    -0.072 SA
BRANCH  12  24
ATOM     24  C   UNL d   1      44.507 -18.975  41.090  0.00  0.00     0.299 C 
ATOM     25  O   UNL d   1      44.982 -19.201  40.469  0.00  0.00    -0.264 OA
ATOM     26  N   UNL d   1      43.740 -19.233  41.137  0.00  0.00    -0.102 N 
ENDBRANCH  12  24
ENDBRANCH   8  11
ENDBRANCH   2   7
BRANCH   1  27
ATOM     27  S   UNL d   1      42.520 -15.180  38.535  0.00  0.00     0.271 S 
ATOM     28  O   UNL d   1      42.286 -14.757  39.211  0.00  0.00    -0.200 OA
ATOM     29  O   UNL d   1      42.758 -15.606  37.871  0.00  0.00    -0.200 OA
BRANCH  27  30
ATOM     30  N   UNL d   1      42.042 -14.730  38.047  0.00  0.00    -0.226 N 
ATOM     31  C   UNL d   1      42.280 -13.981  37.803  0.00  0.00     0.111 A 
ATOM     32  C   UNL d   1      41.789 -13.540  37.311  0.00  0.00     0.105 A 
ATOM     33  N   UNL d   1      41.062 -13.841  37.062  0.00  0.00    -0.248 N 
ATOM     34  C   UNL d   1      40.829 -14.591  37.310  0.00  0.00     0.105 A 
ATOM     35  C   UNL d   1      40.578 -13.399  36.574  0.00  0.00     0.378 C 
ATOM     36  C   UNL d   1      41.318 -15.030  37.799  0.00  0.00     0.111 A 
ATOM     37  O   UNL d   1      40.816 -12.650  36.330  0.00  0.00    -0.237 OA
BRANCH  35  38
ATOM     38  O   UNL d   1      39.860 -13.699  36.330  0.00  0.00    -0.257 OA
BRANCH  38  39
ATOM     39  C   UNL d   1      39.251 -13.780  36.869  0.00  0.00     0.128 C 
ATOM     40  C   UNL d   1      38.469 -13.659  36.627  0.00  0.00     0.029 C 
ENDBRANCH  38  39
ENDBRANCH  35  38
ENDBRANCH  27  30
ENDBRANCH   1  27
TORSDOF 7
ENDMDL
