MODEL 1
REMARK VINA RESULT:      46.6      0.000      0.000
REMARK  1 active torsions:
REMARK  status: ('A' for Active; 'I' for Inactive)
REMARK    1  A    between atoms: C_10  and  C_4 
ROOT
ATOM      1  C   UNL d   1      13.644  13.451  -3.244  0.00  0.00     0.186 A 
ATOM      2  N   UNL d   1      13.260  13.426  -3.987  0.00  0.00    -0.193 N 
ATOM      3  N   UNL d   1      13.964  14.161  -2.971  0.00  0.00    -0.214 NA
ATOM      4  C   UNL d   1      13.609  12.684  -2.926  0.00  0.00     0.140 A 
ATOM      5  N   UNL d   1      12.995  12.649  -4.117  0.00  0.00    -0.058 NA
ATOM      6  N   UNL d   1      13.215  12.199  -3.457  0.00  0.00    -0.127 NA
ATOM      7  C   UNL d   1      13.909  14.848  -3.426  0.00  0.00     0.142 A 
ATOM      8  C   UNL d   1      13.527  14.818  -4.162  0.00  0.00     0.046 A 
ATOM      9  C   UNL d   1      13.206  14.111  -4.438  0.00  0.00     0.088 A 
ATOM     10 CL   UNL d   1      14.229  15.557  -3.153  0.00  0.00    -0.061 Cl
ATOM     11  C   UNL d   1      13.473  15.503  -4.613  0.00  0.00     0.004 A 
ATOM     12  C   UNL d   1      12.829  14.094  -5.173  0.00  0.00     0.019 A 
ATOM     13  C   UNL d   1      13.097  15.484  -5.344  0.00  0.00     0.000 A 
ATOM     14  C   UNL d   1      12.775  14.779  -5.624  0.00  0.00     0.002 A 
ENDROOT
BRANCH   4  15
ATOM     15  C   UNL d   1      13.919  12.460  -2.203  0.00  0.00     0.022 A 
ATOM     16  C   UNL d   1      13.412  12.229  -1.594  0.00  0.00     0.002 A 
ATOM     17  C   UNL d   1      13.724  12.002  -0.862  0.00  0.00     0.000 A 
ATOM     18  C   UNL d   1      14.541  12.007  -0.744  0.00  0.00     0.000 A 
ATOM     19  C   UNL d   1      15.047  12.239  -1.358  0.00  0.00     0.000 A 
ATOM     20  C   UNL d   1      14.851  11.781  -0.017  0.00  0.00     0.000 C 
ATOM     21  C   UNL d   1      14.736  12.465  -2.085  0.00  0.00     0.002 A 
ENDBRANCH   4  15
TORSDOF 1
ENDMDL
MODEL 2
REMARK VINA RESULT:      48.7      1.923      2.743
REMARK  1 active torsions:
REMARK  status: ('A' for Active; 'I' for Inactive)
REMARK    1  A    between atoms: C_10  and  C_4 
ROOT
ATOM      1  C   UNL d   1      13.947  13.897  -3.005  0.00  0.00     0.186 A 
ATOM      2  N   UNL d   1      13.624  13.897  -3.777  0.00  0.00    -0.193 N 
ATOM      3  N   UNL d   1      13.994  13.191  -2.581  0.00  0.00    -0.214 NA
ATOM      4  C   UNL d   1      14.165  14.680  -2.833  0.00  0.00     0.140 A 
ATOM      5  N   UNL d   1      13.647  14.675  -4.068  0.00  0.00    -0.058 NA
ATOM      6  N   UNL d   1      13.982  15.150  -3.478  0.00  0.00    -0.127 NA
ATOM      7  C   UNL d   1      13.724  12.483  -2.911  0.00  0.00     0.142 A 
ATOM      8  C   UNL d   1      13.405  12.489  -3.676  0.00  0.00     0.046 A 
ATOM      9  C   UNL d   1      13.356  13.192  -4.104  0.00  0.00     0.088 A 
ATOM     10 CL   UNL d   1      13.771  11.779  -2.486  0.00  0.00    -0.061 Cl
ATOM     11  C   UNL d   1      13.137  11.784  -4.004  0.00  0.00     0.004 A 
ATOM     12  C   UNL d   1      13.037  13.185  -4.866  0.00  0.00     0.019 A 
ATOM     13  C   UNL d   1      12.819  11.779  -4.763  0.00  0.00     0.000 A 
ATOM     14  C   UNL d   1      12.769  12.479  -5.194  0.00  0.00     0.002 A 
ENDROOT
BRANCH   4  15
ATOM     15  C   UNL d   1      14.504  14.930  -2.132  0.00  0.00     0.022 A 
ATOM     16  C   UNL d   1      14.596  15.737  -1.985  0.00  0.00     0.002 A 
ATOM     17  C   UNL d   1      14.938  15.991  -1.277  0.00  0.00     0.000 A 
ATOM     18  C   UNL d   1      15.189  15.436  -0.719  0.00  0.00     0.000 A 
ATOM     19  C   UNL d   1      15.096  14.627  -0.869  0.00  0.00     0.000 A 
ATOM     20  C   UNL d   1      15.530  15.689  -0.014  0.00  0.00     0.000 C 
ATOM     21  C   UNL d   1      14.754  14.375  -1.574  0.00  0.00     0.002 A 
ENDBRANCH   4  15
TORSDOF 1
ENDMDL
MODEL 3
REMARK VINA RESULT:      49.1      1.944      3.683
REMARK  1 active torsions:
REMARK  status: ('A' for Active; 'I' for Inactive)
REMARK    1  A    between atoms: C_10  and  C_4 
ROOT
ATOM      1  C   UNL d   1      14.283  14.161  -2.479  0.00  0.00     0.186 A 
ATOM      2  N   UNL d   1      14.497  14.926  -2.217  0.00  0.00    -0.193 N 
ATOM      3  N   UNL d   1      14.436  13.506  -2.001  0.00  0.00    -0.214 NA
ATOM      4  C   UNL d   1      13.934  14.249  -3.228  0.00  0.00     0.140 A 
ATOM      5  N   UNL d   1      14.279  15.472  -2.804  0.00  0.00    -0.058 NA
ATOM      6  N   UNL d   1      13.933  15.045  -3.423  0.00  0.00    -0.127 NA
ATOM      7  C   UNL d   1      14.799  13.599  -1.265  0.00  0.00     0.142 A 
ATOM      8  C   UNL d   1      15.009  14.360  -1.010  0.00  0.00     0.046 A 
ATOM      9  C   UNL d   1      14.858  15.017  -1.484  0.00  0.00     0.088 A 
ATOM     10 CL   UNL d   1      14.952  12.945  -0.788  0.00  0.00    -0.061 Cl
ATOM     11  C   UNL d   1      15.371  14.451  -0.277  0.00  0.00     0.004 A 
ATOM     12  C   UNL d   1      15.072  15.769  -1.219  0.00  0.00     0.019 A 
ATOM     13  C   UNL d   1      15.583  15.201  -0.015  0.00  0.00     0.000 A 
ATOM     14  C   UNL d   1      15.434  15.860  -0.486  0.00  0.00     0.002 A 
ENDROOT
BRANCH   4  15
ATOM     15  C   UNL d   1      13.644  13.636  -3.686  0.00  0.00     0.022 A 
ATOM     16  C   UNL d   1      13.835  12.856  -3.497  0.00  0.00     0.002 A 
ATOM     17  C   UNL d   1      13.543  12.236  -3.959  0.00  0.00     0.000 A 
ATOM     18  C   UNL d   1      13.060  12.400  -4.609  0.00  0.00     0.000 A 
ATOM     19  C   UNL d   1      12.870  13.184  -4.796  0.00  0.00     0.000 A 
ATOM     20  C   UNL d   1      12.769  11.784  -5.069  0.00  0.00     0.000 C 
ATOM     21  C   UNL d   1      13.162  13.800  -4.336  0.00  0.00     0.002 A 
ENDBRANCH   4  15
TORSDOF 1
ENDMDL
