MODEL 1
REMARK VINA RESULT:      -7.9      0.000      0.000
REMARK  7 active torsions:
REMARK  status: ('A' for Active; 'I' for Inactive)
REMARK    1  A    between atoms: C_2  and  S_1 
REMARK    2  A    between atoms: N_3  and  S_1 
REMARK    3  A    between atoms: C_5  and  C_7 
REMARK       I    between atoms: N_9  and  C_5 
REMARK    4  A    between atoms: C_8  and  N_6 
REMARK    5  A    between atoms: C_21  and  N_9 
REMARK    6  A    between atoms: O_28  and  C_23 
REMARK    7  A    between atoms: C_31  and  O_28 
ROOT
ATOM      1  C   UNL d   1      51.615  34.215  52.726  0.00  0.00     0.132 A 
ATOM      2  C   UNL d   1      51.758  33.455  52.998  0.00  0.00     0.020 A 
ATOM      3  C   UNL d   1      52.529  33.231  53.191  0.00  0.00     0.059 A 
ATOM      4  C   UNL d   1      52.241  34.757  52.645  0.00  0.00     0.152 A 
ATOM      5  C   UNL d   1      53.154  33.772  53.110  0.00  0.00     0.007 A 
ATOM      6  C   UNL d   1      53.006  34.537  52.836  0.00  0.00     0.030 A 
ATOM      7  F   UNL d   1      52.094  35.520  52.371  0.00  0.00    -0.203 F 
ENDROOT
BRANCH   1   8
ATOM      8  S   UNL d   1      50.841  34.435  52.534  0.00  0.00     0.274 S 
ATOM      9  O   UNL d   1      50.965  34.211  51.750  0.00  0.00    -0.200 OA
ATOM     10  O   UNL d   1      50.716  34.660  53.317  0.00  0.00    -0.200 OA
BRANCH   8  11
ATOM     11  N   UNL d   1      50.068  34.657  52.347  0.00  0.00    -0.226 N 
ATOM     12  C   UNL d   1      49.767  34.501  51.599  0.00  0.00     0.111 A 
ATOM     13  C   UNL d   1      48.993  34.725  51.417  0.00  0.00     0.101 A 
ATOM     14  N   UNL d   1      48.527  35.101  51.984  0.00  0.00    -0.286 N 
ATOM     15  C   UNL d   1      48.838  35.250  52.725  0.00  0.00     0.101 A 
ATOM     16  C   UNL d   1      49.602  35.033  52.914  0.00  0.00     0.111 A 
BRANCH  14  17
ATOM     17  C   UNL d   1      47.757  35.321  51.797  0.00  0.00     0.148 A 
ATOM     18  N   UNL d   1      47.366  34.964  51.169  0.00  0.00    -0.227 NA
ATOM     19  C   UNL d   1      46.594  35.185  50.983  0.00  0.00     0.101 A 
ATOM     20  C   UNL d   1      46.218  35.769  51.431  0.00  0.00     0.021 A 
ATOM     21  C   UNL d   1      46.611  36.128  52.064  0.00  0.00     0.005 A 
ATOM     22  C   UNL d   1      47.378  35.903  52.243  0.00  0.00     0.037 A 
ENDBRANCH  14  17
ENDBRANCH   8  11
ENDBRANCH   1   8
BRANCH   3  23
ATOM     23  C   UNL d   1      52.689  32.468  53.466  0.00  0.00     0.279 C 
ATOM     24  N   UNL d   1      52.719  31.842  52.926  0.00  0.00    -0.208 NA
ATOM     25  O   UNL d   1      52.816  32.329  54.259  0.00  0.00    -0.265 OA
BRANCH  24  26
ATOM     26  C   UNL d   1      52.879  31.077  53.194  0.00  0.00     0.085 A 
ATOM     27  C   UNL d   1      53.650  30.850  53.369  0.00  0.00     0.021 A 
ATOM     28  C   UNL d   1      53.807  30.088  53.636  0.00  0.00     0.026 A 
ATOM     29  C   UNL d   1      53.187  29.533  53.732  0.00  0.00     0.100 A 
ATOM     30  C   UNL d   1      52.410  29.769  53.553  0.00  0.00     0.026 A 
ATOM     31  C   UNL d   1      52.251  30.529  53.287  0.00  0.00     0.021 A 
BRANCH  29  32
ATOM     32  O   UNL d   1      53.347  28.777  53.997  0.00  0.00    -0.305 OA
BRANCH  32  33
ATOM     33  C   UNL d   1      53.343  28.608  54.805  0.00  0.00     0.123 C 
ATOM     34  C   UNL d   1      53.684  27.908  55.083  0.00  0.00     0.029 C 
ENDBRANCH  32  33
ENDBRANCH  29  32
ENDBRANCH  24  26
ENDBRANCH   3  23
TORSDOF 7
ENDMDL
MODEL 2
REMARK VINA RESULT:      -6.5      2.277      6.857
REMARK  7 active torsions:
REMARK  status: ('A' for Active; 'I' for Inactive)
REMARK    1  A    between atoms: C_2  and  S_1 
REMARK    2  A    between atoms: N_3  and  S_1 
REMARK    3  A    between atoms: C_5  and  C_7 
REMARK       I    between atoms: N_9  and  C_5 
REMARK    4  A    between atoms: C_8  and  N_6 
REMARK    5  A    between atoms: C_21  and  N_9 
REMARK    6  A    between atoms: O_28  and  C_23 
REMARK    7  A    between atoms: C_31  and  O_28 
ROOT
ATOM      1  C   UNL d   1      49.735  34.662  52.336  0.00  0.00     0.132 A 
ATOM      2  C   UNL d   1      49.185  35.022  52.825  0.00  0.00     0.020 A 
ATOM      3  C   UNL d   1      48.480  35.307  52.504  0.00  0.00     0.059 A 
ATOM      4  C   UNL d   1      49.586  34.583  51.522  0.00  0.00     0.152 A 
ATOM      5  C   UNL d   1      48.331  35.228  51.690  0.00  0.00     0.007 A 
ATOM      6  C   UNL d   1      48.888  34.865  51.200  0.00  0.00     0.030 A 
ATOM      7  F   UNL d   1      50.142  34.220  51.033  0.00  0.00    -0.203 F 
ENDROOT
BRANCH   1   8
ATOM      8  S   UNL d   1      50.440  34.378  52.663  0.00  0.00     0.274 S 
ATOM      9  O   UNL d   1      50.035  33.746  53.005  0.00  0.00    -0.200 OA
ATOM     10  O   UNL d   1      50.847  35.009  52.322  0.00  0.00    -0.200 OA
BRANCH   8  11
ATOM     11  N   UNL d   1      51.146  34.099  52.987  0.00  0.00    -0.226 N 
ATOM     12  C   UNL d   1      51.805  34.588  53.014  0.00  0.00     0.111 A 
ATOM     13  C   UNL d   1      52.510  34.304  53.339  0.00  0.00     0.101 A 
ATOM     14  N   UNL d   1      52.549  33.535  53.635  0.00  0.00    -0.286 N 
ATOM     15  C   UNL d   1      51.886  33.059  53.602  0.00  0.00     0.101 A 
ATOM     16  C   UNL d   1      51.186  33.330  53.283  0.00  0.00     0.111 A 
BRANCH  14  17
ATOM     17  C   UNL d   1      53.253  33.259  53.957  0.00  0.00     0.148 A 
ATOM     18  N   UNL d   1      53.291  33.048  54.750  0.00  0.00    -0.227 NA
ATOM     19  C   UNL d   1      53.999  32.771  55.072  0.00  0.00     0.101 A 
ATOM     20  C   UNL d   1      54.667  32.708  54.590  0.00  0.00     0.021 A 
ATOM     21  C   UNL d   1      54.630  32.920  53.792  0.00  0.00     0.005 A 
ATOM     22  C   UNL d   1      53.923  33.195  53.480  0.00  0.00     0.037 A 
ENDBRANCH  14  17
ENDBRANCH   8  11
ENDBRANCH   1   8
BRANCH   3  23
ATOM     23  C   UNL d   1      47.916  35.673  52.983  0.00  0.00     0.279 C 
ATOM     24  N   UNL d   1      47.213  35.271  53.157  0.00  0.00    -0.208 NA
ATOM     25  O   UNL d   1      48.044  36.419  53.285  0.00  0.00    -0.265 OA
BRANCH  24  26
ATOM     26  C   UNL d   1      46.643  35.630  53.636  0.00  0.00     0.085 A 
ATOM     27  C   UNL d   1      46.803  35.783  54.428  0.00  0.00     0.021 A 
ATOM     28  C   UNL d   1      46.235  36.141  54.905  0.00  0.00     0.026 A 
ATOM     29  C   UNL d   1      45.488  36.354  54.591  0.00  0.00     0.100 A 
ATOM     30  C   UNL d   1      45.334  36.197  53.789  0.00  0.00     0.026 A 
ATOM     31  C   UNL d   1      45.900  35.840  53.312  0.00  0.00     0.021 A 
BRANCH  29  32
ATOM     32  O   UNL d   1      44.927  36.709  55.066  0.00  0.00    -0.305 OA
BRANCH  32  33
ATOM     33  C   UNL d   1      44.410  36.249  55.515  0.00  0.00     0.123 C 
ATOM     34  C   UNL d   1      44.371  36.352  56.335  0.00  0.00     0.029 C 
ENDBRANCH  32  33
ENDBRANCH  29  32
ENDBRANCH  24  26
ENDBRANCH   3  23
TORSDOF 7
ENDMDL
MODEL 3
REMARK VINA RESULT:      -6.1      1.292      6.567
REMARK  7 active torsions:
REMARK  status: ('A' for Active; 'I' for Inactive)
REMARK    1  A    between atoms: C_2  and  S_1 
REMARK    2  A    between atoms: N_3  and  S_1 
REMARK    3  A    between atoms: C_5  and  C_7 
REMARK       I    between atoms: N_9  and  C_5 
REMARK    4  A    between atoms: C_8  and  N_6 
REMARK    5  A    between atoms: C_21  and  N_9 
REMARK    6  A    between atoms: O_28  and  C_23 
REMARK    7  A    between atoms: C_31  and  O_28 
ROOT
ATOM      1  C   UNL d   1      52.381  33.409  53.001  0.00  0.00     0.132 A 
ATOM      2  C   UNL d   1      51.654  33.540  52.646  0.00  0.00     0.020 A 
ATOM      3  C   UNL d   1      51.455  34.300  52.394  0.00  0.00     0.059 A 
ATOM      4  C   UNL d   1      52.915  34.037  53.107  0.00  0.00     0.152 A 
ATOM      5  C   UNL d   1      51.989  34.928  52.500  0.00  0.00     0.007 A 
ATOM      6  C   UNL d   1      52.721  34.793  52.859  0.00  0.00     0.030 A 
ATOM      7  F   UNL d   1      53.646  33.902  53.465  0.00  0.00    -0.203 F 
ENDROOT
BRANCH   1   8
ATOM      8  S   UNL d   1      52.575  32.645  53.252  0.00  0.00     0.274 S 
ATOM      9  O   UNL d   1      52.853  32.461  52.497  0.00  0.00    -0.200 OA
ATOM     10  O   UNL d   1      52.298  32.827  54.006  0.00  0.00    -0.200 OA
BRANCH   8  11
ATOM     11  N   UNL d   1      52.767  31.884  53.507  0.00  0.00    -0.226 N 
ATOM     12  C   UNL d   1      53.300  31.781  54.123  0.00  0.00     0.111 A 
ATOM     13  C   UNL d   1      53.489  31.018  54.375  0.00  0.00     0.101 A 
ATOM     14  N   UNL d   1      53.144  30.363  54.009  0.00  0.00    -0.286 N 
ATOM     15  C   UNL d   1      52.616  30.479  53.397  0.00  0.00     0.101 A 
ATOM     16  C   UNL d   1      52.423  31.229  53.141  0.00  0.00     0.111 A 
BRANCH  14  17
ATOM     17  C   UNL d   1      53.337  29.606  54.265  0.00  0.00     0.148 A 
ATOM     18  N   UNL d   1      52.998  29.301  54.948  0.00  0.00    -0.227 NA
ATOM     19  C   UNL d   1      53.192  28.541  55.203  0.00  0.00     0.101 A 
ATOM     20  C   UNL d   1      53.730  28.090  54.766  0.00  0.00     0.021 A 
ATOM     21  C   UNL d   1      54.071  28.397  54.078  0.00  0.00     0.005 A 
ATOM     22  C   UNL d   1      53.873  29.153  53.831  0.00  0.00     0.037 A 
ENDBRANCH  14  17
ENDBRANCH   8  11
ENDBRANCH   1   8
BRANCH   3  23
ATOM     23  C   UNL d   1      50.726  34.448  52.034  0.00  0.00     0.279 C 
ATOM     24  N   UNL d   1      50.075  34.643  52.507  0.00  0.00    -0.208 NA
ATOM     25  O   UNL d   1      50.643  34.403  51.225  0.00  0.00    -0.265 OA
BRANCH  24  26
ATOM     26  C   UNL d   1      49.343  34.792  52.154  0.00  0.00     0.085 A 
ATOM     27  C   UNL d   1      49.123  34.394  51.469  0.00  0.00     0.021 A 
ATOM     28  C   UNL d   1      48.393  34.544  51.119  0.00  0.00     0.026 A 
ATOM     29  C   UNL d   1      47.865  35.102  51.454  0.00  0.00     0.100 A 
ATOM     30  C   UNL d   1      48.095  35.500  52.147  0.00  0.00     0.026 A 
ATOM     31  C   UNL d   1      48.822  35.352  52.498  0.00  0.00     0.021 A 
BRANCH  29  32
ATOM     32  O   UNL d   1      47.142  35.247  51.104  0.00  0.00    -0.305 OA
BRANCH  32  33
ATOM     33  C   UNL d   1      46.525  35.574  51.542  0.00  0.00     0.123 C 
ATOM     34  C   UNL d   1      45.773  35.650  51.205  0.00  0.00     0.029 C 
ENDBRANCH  32  33
ENDBRANCH  29  32
ENDBRANCH  24  26
ENDBRANCH   3  23
TORSDOF 7
ENDMDL
MODEL 4
REMARK VINA RESULT:      -5.4      1.341      6.680
REMARK  7 active torsions:
REMARK  status: ('A' for Active; 'I' for Inactive)
REMARK    1  A    between atoms: C_2  and  S_1 
REMARK    2  A    between atoms: N_3  and  S_1 
REMARK    3  A    between atoms: C_5  and  C_7 
REMARK       I    between atoms: N_9  and  C_5 
REMARK    4  A    between atoms: C_8  and  N_6 
REMARK    5  A    between atoms: C_21  and  N_9 
REMARK    6  A    between atoms: O_28  and  C_23 
REMARK    7  A    between atoms: C_31  and  O_28 
ROOT
ATOM      1  C   UNL d   1      52.009  33.403  52.942  0.00  0.00     0.132 A 
ATOM      2  C   UNL d   1      51.205  33.550  52.885  0.00  0.00     0.020 A 
ATOM      3  C   UNL d   1      50.944  34.290  52.628  0.00  0.00     0.059 A 
ATOM      4  C   UNL d   1      52.559  33.993  52.744  0.00  0.00     0.152 A 
ATOM      5  C   UNL d   1      51.495  34.880  52.429  0.00  0.00     0.007 A 
ATOM      6  C   UNL d   1      52.304  34.728  52.488  0.00  0.00     0.030 A 
ATOM      7  F   UNL d   1      53.367  33.841  52.802  0.00  0.00    -0.203 F 
ENDROOT
BRANCH   1   8
ATOM      8  S   UNL d   1      52.265  32.659  53.201  0.00  0.00     0.274 S 
ATOM      9  O   UNL d   1      52.156  32.888  53.986  0.00  0.00    -0.200 OA
ATOM     10  O   UNL d   1      52.373  32.430  52.417  0.00  0.00    -0.200 OA
BRANCH   8  11
ATOM     11  N   UNL d   1      52.521  31.916  53.453  0.00  0.00    -0.226 N 
ATOM     12  C   UNL d   1      52.142  31.240  53.183  0.00  0.00     0.111 A 
ATOM     13  C   UNL d   1      52.402  30.498  53.439  0.00  0.00     0.101 A 
ATOM     14  N   UNL d   1      53.038  30.440  53.962  0.00  0.00    -0.286 N 
ATOM     15  C   UNL d   1      53.405  31.121  54.223  0.00  0.00     0.101 A 
ATOM     16  C   UNL d   1      53.156  31.858  53.976  0.00  0.00     0.111 A 
BRANCH  14  17
ATOM     17  C   UNL d   1      53.291  29.699  54.212  0.00  0.00     0.148 A 
ATOM     18  N   UNL d   1      53.018  29.386  54.920  0.00  0.00    -0.227 NA
ATOM     19  C   UNL d   1      53.274  28.642  55.169  0.00  0.00     0.101 A 
ATOM     20  C   UNL d   1      53.805  28.216  54.702  0.00  0.00     0.021 A 
ATOM     21  C   UNL d   1      54.081  28.531  53.988  0.00  0.00     0.005 A 
ATOM     22  C   UNL d   1      53.822  29.271  53.747  0.00  0.00     0.037 A 
ENDBRANCH  14  17
ENDBRANCH   8  11
ENDBRANCH   1   8
BRANCH   3  23
ATOM     23  C   UNL d   1      50.137  34.454  52.564  0.00  0.00     0.279 C 
ATOM     24  N   UNL d   1      49.850  35.180  52.840  0.00  0.00    -0.208 NA
ATOM     25  O   UNL d   1      49.625  33.912  52.236  0.00  0.00    -0.265 OA
BRANCH  24  26
ATOM     26  C   UNL d   1      49.044  35.351  52.780  0.00  0.00     0.085 A 
ATOM     27  C   UNL d   1      48.635  35.655  53.425  0.00  0.00     0.021 A 
ATOM     28  C   UNL d   1      47.832  35.825  53.364  0.00  0.00     0.026 A 
ATOM     29  C   UNL d   1      47.420  35.692  52.646  0.00  0.00     0.100 A 
ATOM     30  C   UNL d   1      47.841  35.385  51.998  0.00  0.00     0.026 A 
ATOM     31  C   UNL d   1      48.642  35.214  52.057  0.00  0.00     0.021 A 
BRANCH  29  32
ATOM     32  O   UNL d   1      46.624  35.862  52.590  0.00  0.00    -0.305 OA
BRANCH  32  33
ATOM     33  C   UNL d   1      46.291  36.063  51.862  0.00  0.00     0.123 C 
ATOM     34  C   UNL d   1      45.540  36.408  51.832  0.00  0.00     0.029 C 
ENDBRANCH  32  33
ENDBRANCH  29  32
ENDBRANCH  24  26
ENDBRANCH   3  23
TORSDOF 7
ENDMDL
