MODEL 1
REMARK VINA RESULT:      52.5      0.000      0.000
REMARK  4 active torsions:
REMARK  status: ('A' for Active; 'I' for Inactive)
REMARK    1  A    between atoms: C_2  and  S_1 
REMARK    2  A    between atoms: C_5  and  S_1 
REMARK    3  A    between atoms: C_7  and  C_5 
REMARK       I    between atoms: N_11  and  C_7 
REMARK    4  A    between atoms: C_14  and  N_11 
ROOT
ATOM      1  S   UNL d   1     -50.008  27.103  33.562  0.00  0.00     0.217 S 
ATOM      2  O   UNL d   1     -49.193  26.944  33.520  0.00  0.00    -0.217 OA
ATOM      3  O   UNL d   1     -50.825  27.261  33.604  0.00  0.00    -0.217 OA
ENDROOT
BRANCH   1   4
ATOM      4  C   UNL d   1     -50.172  26.298  33.471  0.00  0.00     0.109 A 
ATOM      5  C   UNL d   1     -49.616  25.696  33.378  0.00  0.00     0.110 A 
ATOM      6  N   UNL d   1     -50.019  24.984  33.307  0.00  0.00    -0.243 NA
ATOM      7  C   UNL d   1     -50.829  25.145  33.356  0.00  0.00     0.082 A 
ATOM      8  C   UNL d   1     -50.916  25.956  33.457  0.00  0.00     0.030 A 
ATOM      9  C   UNL d   1     -51.492  24.654  33.322  0.00  0.00     0.019 A 
ATOM     10  C   UNL d   1     -51.671  26.285  33.525  0.00  0.00     0.002 A 
ATOM     11  C   UNL d   1     -52.334  25.795  33.491  0.00  0.00     0.000 A 
ATOM     12  C   UNL d   1     -52.243  24.986  33.390  0.00  0.00     0.002 A 
ENDBRANCH   1   4
BRANCH   1  13
ATOM     13  C   UNL d   1     -49.848  27.921  33.655  0.00  0.00     0.161 C 
BRANCH  13  14
ATOM     14  C   UNL d   1     -49.214  28.158  34.133  0.00  0.00     0.291 C 
ATOM     15  N   UNL d   1     -49.141  28.955  34.335  0.00  0.00    -0.207 NA
ATOM     16  O   UNL d   1     -48.666  27.613  34.403  0.00  0.00    -0.264 OA
BRANCH  15  17
ATOM     17  C   UNL d   1     -48.509  29.196  34.812  0.00  0.00     0.085 A 
ATOM     18  C   UNL d   1     -47.964  29.751  34.539  0.00  0.00     0.019 A 
ATOM     19  C   UNL d   1     -47.334  29.989  35.020  0.00  0.00     0.002 A 
ATOM     20  C   UNL d   1     -47.246  29.672  35.782  0.00  0.00     0.000 A 
ATOM     21  C   UNL d   1     -47.795  29.115  36.051  0.00  0.00     0.002 A 
ATOM     22  C   UNL d   1     -48.422  28.880  35.568  0.00  0.00     0.019 A 
ENDBRANCH  15  17
ENDBRANCH  13  14
ENDBRANCH   1  13
TORSDOF 4
ENDMDL
