MODEL 1
REMARK VINA RESULT:      -8.8      0.000      0.000
REMARK  5 active torsions:
REMARK  status: ('A' for Active; 'I' for Inactive)
REMARK    1  A    between atoms: S_6  and  C_2 
REMARK    2  A    between atoms: C_16  and  S_6 
REMARK    3  A    between atoms: C_8  and  C_16 
REMARK       I    between atoms: N_13  and  C_8 
REMARK    4  A    between atoms: C_19  and  N_13 
REMARK    5  A    between atoms: C_18  and  C_19 
ROOT
ATOM      1  C   UNL d   1      50.496  34.418  52.550  0.00  0.00     0.286 C 
ATOM      2  N   UNL d   1      49.838  34.828  52.811  0.00  0.00    -0.206 NA
ATOM      3  O   UNL d   1      50.504  34.088  51.795  0.00  0.00    -0.265 OA
ENDROOT
BRANCH   1   4
ATOM      4  C   UNL d   1      51.156  34.330  53.039  0.00  0.00     0.098 C 
BRANCH   4   5
ATOM      5  S   UNL d   1      51.672  33.692  52.928  0.00  0.00    -0.080 SA
BRANCH   5   6
ATOM      6  C   UNL d   1      52.324  33.609  53.423  0.00  0.00     0.049 A 
ATOM      7  C   UNL d   1      52.625  34.182  53.940  0.00  0.00     0.087 A 
ATOM      8  N   UNL d   1      53.281  33.864  54.328  0.00  0.00    -0.302 N 
ATOM      9  C   UNL d   1      53.386  33.091  54.050  0.00  0.00     0.065 A 
ATOM     10  C   UNL d   1      53.752  34.238  54.890  0.00  0.00     0.100 C 
ATOM     11  C   UNL d   1      52.794  32.936  53.491  0.00  0.00     0.024 A 
ATOM     12  C   UNL d   1      53.947  32.507  54.235  0.00  0.00     0.018 A 
ATOM     13  C   UNL d   1      52.763  32.199  53.119  0.00  0.00     0.002 A 
ATOM     14  C   UNL d   1      53.321  31.622  53.304  0.00  0.00     0.000 A 
ATOM     15  C   UNL d   1      53.913  31.777  53.862  0.00  0.00     0.002 A 
ENDBRANCH   5   6
ENDBRANCH   4   5
ENDBRANCH   1   4
BRANCH   2  16
ATOM     16  C   UNL d   1      49.187  34.913  52.324  0.00  0.00     0.102 C 
BRANCH  16  17
ATOM     17  C   UNL d   1      48.538  35.369  52.531  0.00  0.00     0.021 A 
ATOM     18  C   UNL d   1      47.950  35.506  51.966  0.00  0.00     0.028 A 
ATOM     19  C   UNL d   1      47.285  35.971  52.171  0.00  0.00     0.119 A 
ATOM     20  O   UNL d   1      46.629  36.203  51.757  0.00  0.00    -0.300 OA
ATOM     21  C   UNL d   1      47.233  36.280  52.932  0.00  0.00     0.119 A 
ATOM     22  C   UNL d   1      46.158  36.658  52.244  0.00  0.00     0.304 A 
ATOM     23  O   UNL d   1      46.530  36.709  52.979  0.00  0.00    -0.300 OA
ATOM     24  C   UNL d   1      47.833  36.133  53.488  0.00  0.00     0.026 A 
ATOM     25  C   UNL d   1      48.479  35.676  53.273  0.00  0.00     0.004 A 
ENDBRANCH  16  17
ENDBRANCH   2  16
TORSDOF 5
ENDMDL
MODEL 2
REMARK VINA RESULT:      -8.4      1.680      6.032
REMARK  5 active torsions:
REMARK  status: ('A' for Active; 'I' for Inactive)
REMARK    1  A    between atoms: S_6  and  C_2 
REMARK    2  A    between atoms: C_16  and  S_6 
REMARK    3  A    between atoms: C_8  and  C_16 
REMARK       I    between atoms: N_13  and  C_8 
REMARK    4  A    between atoms: C_19  and  N_13 
REMARK    5  A    between atoms: C_18  and  C_19 
ROOT
ATOM      1  C   UNL d   1      50.750  34.202  52.582  0.00  0.00     0.286 C 
ATOM      2  N   UNL d   1      51.332  33.934  53.092  0.00  0.00    -0.206 NA
ATOM      3  O   UNL d   1      50.861  34.151  51.768  0.00  0.00    -0.265 OA
ENDROOT
BRANCH   1   4
ATOM      4  C   UNL d   1      50.050  34.525  52.877  0.00  0.00     0.098 C 
BRANCH   4   5
ATOM      5  S   UNL d   1      49.471  34.803  52.357  0.00  0.00    -0.080 SA
BRANCH   5   6
ATOM      6  C   UNL d   1      48.857  35.270  52.646  0.00  0.00     0.049 A 
ATOM      7  C   UNL d   1      48.828  35.639  53.387  0.00  0.00     0.087 A 
ATOM      8  N   UNL d   1      48.114  36.049  53.446  0.00  0.00    -0.302 N 
ATOM      9  C   UNL d   1      47.700  35.933  52.739  0.00  0.00     0.065 A 
ATOM     10  C   UNL d   1      47.852  36.495  54.087  0.00  0.00     0.100 C 
ATOM     11  C   UNL d   1      48.161  35.452  52.247  0.00  0.00     0.024 A 
ATOM     12  C   UNL d   1      46.959  36.206  52.480  0.00  0.00     0.018 A 
ATOM     13  C   UNL d   1      47.882  35.243  51.497  0.00  0.00     0.002 A 
ATOM     14  C   UNL d   1      47.147  35.515  51.242  0.00  0.00     0.000 A 
ATOM     15  C   UNL d   1      46.686  35.996  51.734  0.00  0.00     0.002 A 
ENDBRANCH   5   6
ENDBRANCH   4   5
ENDBRANCH   1   4
BRANCH   2  16
ATOM     16  C   UNL d   1      52.023  33.615  52.796  0.00  0.00     0.102 C 
BRANCH  16  17
ATOM     17  C   UNL d   1      52.622  33.334  53.280  0.00  0.00     0.021 A 
ATOM     18  C   UNL d   1      53.018  33.865  53.774  0.00  0.00     0.028 A 
ATOM     19  C   UNL d   1      53.631  33.584  54.271  0.00  0.00     0.119 A 
ATOM     20  O   UNL d   1      54.115  33.951  54.806  0.00  0.00    -0.300 OA
ATOM     21  C   UNL d   1      53.822  32.784  54.255  0.00  0.00     0.119 A 
ATOM     22  C   UNL d   1      54.615  33.394  55.133  0.00  0.00     0.304 A 
ATOM     23  O   UNL d   1      54.437  32.664  54.793  0.00  0.00    -0.300 OA
ATOM     24  C   UNL d   1      53.414  32.263  53.752  0.00  0.00     0.026 A 
ATOM     25  C   UNL d   1      52.816  32.553  53.271  0.00  0.00     0.004 A 
ENDBRANCH  16  17
ENDBRANCH   2  16
TORSDOF 5
ENDMDL
MODEL 3
REMARK VINA RESULT:      -8.4      0.839      1.087
REMARK  5 active torsions:
REMARK  status: ('A' for Active; 'I' for Inactive)
REMARK    1  A    between atoms: S_6  and  C_2 
REMARK    2  A    between atoms: C_16  and  S_6 
REMARK    3  A    between atoms: C_8  and  C_16 
REMARK       I    between atoms: N_13  and  C_8 
REMARK    4  A    between atoms: C_19  and  N_13 
REMARK    5  A    between atoms: C_18  and  C_19 
ROOT
ATOM      1  C   UNL d   1      51.203  34.086  52.392  0.00  0.00     0.286 C 
ATOM      2  N   UNL d   1      50.417  34.265  52.533  0.00  0.00    -0.206 NA
ATOM      3  O   UNL d   1      51.564  34.338  51.696  0.00  0.00    -0.265 OA
ENDROOT
BRANCH   1   4
ATOM      4  C   UNL d   1      51.641  33.654  52.943  0.00  0.00     0.098 C 
BRANCH   4   5
ATOM      5  S   UNL d   1      52.168  33.071  52.686  0.00  0.00    -0.080 SA
BRANCH   5   6
ATOM      6  C   UNL d   1      52.702  32.745  53.222  0.00  0.00     0.049 A 
ATOM      7  C   UNL d   1      53.116  33.152  53.813  0.00  0.00     0.087 A 
ATOM      8  N   UNL d   1      53.589  32.611  54.220  0.00  0.00    -0.302 N 
ATOM      9  C   UNL d   1      53.466  31.867  53.879  0.00  0.00     0.065 A 
ATOM     10  C   UNL d   1      54.093  32.772  54.850  0.00  0.00     0.100 C 
ATOM     11  C   UNL d   1      52.919  31.952  53.263  0.00  0.00     0.024 A 
ATOM     12  C   UNL d   1      53.786  31.119  54.053  0.00  0.00     0.018 A 
ATOM     13  C   UNL d   1      52.690  31.291  52.822  0.00  0.00     0.002 A 
ATOM     14  C   UNL d   1      53.008  30.551  52.996  0.00  0.00     0.000 A 
ATOM     15  C   UNL d   1      53.556  30.466  53.611  0.00  0.00     0.002 A 
ENDBRANCH   5   6
ENDBRANCH   4   5
ENDBRANCH   1   4
BRANCH   2  16
ATOM     16  C   UNL d   1      49.987  34.693  51.986  0.00  0.00     0.102 C 
BRANCH  16  17
ATOM     17  C   UNL d   1      49.233  34.974  52.140  0.00  0.00     0.021 A 
ATOM     18  C   UNL d   1      48.667  34.949  51.537  0.00  0.00     0.028 A 
ATOM     19  C   UNL d   1      47.895  35.235  51.687  0.00  0.00     0.119 A 
ATOM     20  O   UNL d   1      47.230  35.288  51.228  0.00  0.00    -0.300 OA
ATOM     21  C   UNL d   1      47.718  35.534  52.433  0.00  0.00     0.119 A 
ATOM     22  C   UNL d   1      46.630  35.617  51.672  0.00  0.00     0.304 A 
ATOM     23  O   UNL d   1      46.928  35.773  52.425  0.00  0.00    -0.300 OA
ATOM     24  C   UNL d   1      48.299  35.552  53.029  0.00  0.00     0.026 A 
ATOM     25  C   UNL d   1      49.051  35.269  52.866  0.00  0.00     0.004 A 
ENDBRANCH  16  17
ENDBRANCH   2  16
TORSDOF 5
ENDMDL
MODEL 4
REMARK VINA RESULT:      -8.0      1.817      6.121
REMARK  5 active torsions:
REMARK  status: ('A' for Active; 'I' for Inactive)
REMARK    1  A    between atoms: S_6  and  C_2 
REMARK    2  A    between atoms: C_16  and  S_6 
REMARK    3  A    between atoms: C_8  and  C_16 
REMARK       I    between atoms: N_13  and  C_8 
REMARK    4  A    between atoms: C_19  and  N_13 
REMARK    5  A    between atoms: C_18  and  C_19 
ROOT
ATOM      1  C   UNL d   1      51.186  34.166  52.912  0.00  0.00     0.286 C 
ATOM      2  N   UNL d   1      51.578  33.447  52.926  0.00  0.00    -0.206 NA
ATOM      3  O   UNL d   1      51.527  34.828  53.263  0.00  0.00    -0.265 OA
ENDROOT
BRANCH   1   4
ATOM      4  C   UNL d   1      50.448  34.234  52.548  0.00  0.00     0.098 C 
BRANCH   4   5
ATOM      5  S   UNL d   1      49.890  34.770  52.840  0.00  0.00    -0.080 SA
BRANCH   5   6
ATOM      6  C   UNL d   1      49.222  34.943  52.392  0.00  0.00     0.049 A 
ATOM      7  C   UNL d   1      49.056  34.665  51.629  0.00  0.00     0.087 A 
ATOM      8  N   UNL d   1      48.329  34.976  51.390  0.00  0.00    -0.302 N 
ATOM      9  C   UNL d   1      48.045  35.448  52.008  0.00  0.00     0.065 A 
ATOM     10  C   UNL d   1      47.949  34.846  50.672  0.00  0.00     0.100 C 
ATOM     11  C   UNL d   1      48.598  35.426  52.625  0.00  0.00     0.024 A 
ATOM     12  C   UNL d   1      47.350  35.897  52.086  0.00  0.00     0.018 A 
ATOM     13  C   UNL d   1      48.456  35.852  53.319  0.00  0.00     0.002 A 
ATOM     14  C   UNL d   1      47.766  36.296  53.394  0.00  0.00     0.000 A 
ATOM     15  C   UNL d   1      47.213  36.318  52.778  0.00  0.00     0.002 A 
ENDBRANCH   5   6
ENDBRANCH   4   5
ENDBRANCH   1   4
BRANCH   2  16
ATOM     16  C   UNL d   1      52.307  33.384  53.288  0.00  0.00     0.102 C 
BRANCH  16  17
ATOM     17  C   UNL d   1      52.702  32.669  53.362  0.00  0.00     0.021 A 
ATOM     18  C   UNL d   1      52.357  31.988  53.045  0.00  0.00     0.028 A 
ATOM     19  C   UNL d   1      52.755  31.255  53.118  0.00  0.00     0.119 A 
ATOM     20  O   UNL d   1      52.572  30.505  52.874  0.00  0.00    -0.300 OA
ATOM     21  C   UNL d   1      53.481  31.232  53.504  0.00  0.00     0.119 A 
ATOM     22  C   UNL d   1      53.173  30.001  53.101  0.00  0.00     0.304 A 
ATOM     23  O   UNL d   1      53.743  30.449  53.494  0.00  0.00    -0.300 OA
ATOM     24  C   UNL d   1      53.814  31.926  53.817  0.00  0.00     0.026 A 
ATOM     25  C   UNL d   1      53.413  32.637  53.738  0.00  0.00     0.004 A 
ENDBRANCH  16  17
ENDBRANCH   2  16
TORSDOF 5
ENDMDL
MODEL 5
REMARK VINA RESULT:      -7.8      1.850      6.137
REMARK  5 active torsions:
REMARK  status: ('A' for Active; 'I' for Inactive)
REMARK    1  A    between atoms: S_6  and  C_2 
REMARK    2  A    between atoms: C_16  and  S_6 
REMARK    3  A    between atoms: C_8  and  C_16 
REMARK       I    between atoms: N_13  and  C_8 
REMARK    4  A    between atoms: C_19  and  N_13 
REMARK    5  A    between atoms: C_18  and  C_19 
ROOT
ATOM      1  C   UNL d   1      51.075  33.565  53.128  0.00  0.00     0.286 C 
ATOM      2  N   UNL d   1      51.877  33.640  53.275  0.00  0.00    -0.206 NA
ATOM      3  O   UNL d   1      50.663  32.910  53.411  0.00  0.00    -0.265 OA
ENDROOT
BRANCH   1   4
ATOM      4  C   UNL d   1      50.672  34.142  52.696  0.00  0.00     0.098 C 
BRANCH   4   5
ATOM      5  S   UNL d   1      50.002  34.506  53.016  0.00  0.00    -0.080 SA
BRANCH   5   6
ATOM      6  C   UNL d   1      49.402  34.761  52.513  0.00  0.00     0.049 A 
ATOM      7  C   UNL d   1      49.282  34.521  51.729  0.00  0.00     0.087 A 
ATOM      8  N   UNL d   1      48.618  34.915  51.435  0.00  0.00    -0.302 N 
ATOM      9  C   UNL d   1      48.327  35.400  52.039  0.00  0.00     0.065 A 
ATOM     10  C   UNL d   1      48.297  34.844  50.681  0.00  0.00     0.100 C 
ATOM     11  C   UNL d   1      48.813  35.303  52.704  0.00  0.00     0.024 A 
ATOM     12  C   UNL d   1      47.679  35.919  52.068  0.00  0.00     0.018 A 
ATOM     13  C   UNL d   1      48.650  35.725  53.396  0.00  0.00     0.002 A 
ATOM     14  C   UNL d   1      48.007  36.239  53.422  0.00  0.00     0.000 A 
ATOM     15  C   UNL d   1      47.522  36.336  52.758  0.00  0.00     0.002 A 
ENDBRANCH   5   6
ENDBRANCH   4   5
ENDBRANCH   1   4
BRANCH   2  16
ATOM     16  C   UNL d   1      52.271  33.067  53.703  0.00  0.00     0.102 C 
BRANCH  16  17
ATOM     17  C   UNL d   1      53.068  33.125  53.888  0.00  0.00     0.021 A 
ATOM     18  C   UNL d   1      53.298  33.616  54.512  0.00  0.00     0.028 A 
ATOM     19  C   UNL d   1      54.110  33.679  54.706  0.00  0.00     0.119 A 
ATOM     20  O   UNL d   1      54.508  34.101  55.271  0.00  0.00    -0.300 OA
ATOM     21  C   UNL d   1      54.659  33.250  54.268  0.00  0.00     0.119 A 
ATOM     22  C   UNL d   1      55.307  33.946  55.200  0.00  0.00     0.304 A 
ATOM     23  O   UNL d   1      55.407  33.416  54.576  0.00  0.00    -0.300 OA
ATOM     24  C   UNL d   1      54.411  32.760  53.644  0.00  0.00     0.026 A 
ATOM     25  C   UNL d   1      53.613  32.708  53.466  0.00  0.00     0.004 A 
ENDBRANCH  16  17
ENDBRANCH   2  16
TORSDOF 5
ENDMDL
MODEL 6
REMARK VINA RESULT:      -6.6      1.841      6.523
REMARK  5 active torsions:
REMARK  status: ('A' for Active; 'I' for Inactive)
REMARK    1  A    between atoms: S_6  and  C_2 
REMARK    2  A    between atoms: C_16  and  S_6 
REMARK    3  A    between atoms: C_8  and  C_16 
REMARK       I    between atoms: N_13  and  C_8 
REMARK    4  A    between atoms: C_19  and  N_13 
REMARK    5  A    between atoms: C_18  and  C_19 
ROOT
ATOM      1  C   UNL d   1      48.806  35.490  52.959  0.00  0.00     0.286 C 
ATOM      2  N   UNL d   1      49.381  34.945  52.754  0.00  0.00    -0.206 NA
ATOM      3  O   UNL d   1      48.893  35.944  53.641  0.00  0.00    -0.265 OA
ENDROOT
BRANCH   1   4
ATOM      4  C   UNL d   1      48.136  35.591  52.487  0.00  0.00     0.098 C 
BRANCH   4   5
ATOM      5  S   UNL d   1      47.477  35.992  52.784  0.00  0.00    -0.080 SA
BRANCH   5   6
ATOM      6  C   UNL d   1      46.768  35.971  52.366  0.00  0.00     0.049 A 
ATOM      7  C   UNL d   1      46.664  35.707  51.587  0.00  0.00     0.087 A 
ATOM      8  N   UNL d   1      45.866  35.783  51.390  0.00  0.00    -0.302 N 
ATOM      9  C   UNL d   1      45.475  36.094  52.050  0.00  0.00     0.065 A 
ATOM     10  C   UNL d   1      45.514  35.587  50.673  0.00  0.00     0.100 C 
ATOM     11  C   UNL d   1      46.033  36.209  52.650  0.00  0.00     0.024 A 
ATOM     12  C   UNL d   1      44.677  36.288  52.179  0.00  0.00     0.018 A 
ATOM     13  C   UNL d   1      45.795  36.518  53.380  0.00  0.00     0.002 A 
ATOM     14  C   UNL d   1      45.004  36.709  53.506  0.00  0.00     0.000 A 
ATOM     15  C   UNL d   1      44.445  36.594  52.905  0.00  0.00     0.002 A 
ENDBRANCH   5   6
ENDBRANCH   4   5
ENDBRANCH   1   4
BRANCH   2  16
ATOM     16  C   UNL d   1      50.042  34.849  53.224  0.00  0.00     0.102 C 
BRANCH  16  17
ATOM     17  C   UNL d   1      50.685  34.395  52.993  0.00  0.00     0.021 A 
ATOM     18  C   UNL d   1      51.065  33.926  53.559  0.00  0.00     0.028 A 
ATOM     19  C   UNL d   1      51.722  33.460  53.330  0.00  0.00     0.119 A 
ATOM     20  O   UNL d   1      52.204  32.953  53.738  0.00  0.00    -0.300 OA
ATOM     21  C   UNL d   1      51.972  33.481  52.546  0.00  0.00     0.119 A 
ATOM     22  C   UNL d   1      52.761  32.649  53.223  0.00  0.00     0.304 A 
ATOM     23  O   UNL d   1      52.621  32.975  52.478  0.00  0.00    -0.300 OA
ATOM     24  C   UNL d   1      51.579  33.958  51.990  0.00  0.00     0.026 A 
ATOM     25  C   UNL d   1      50.937  34.409  52.229  0.00  0.00     0.004 A 
ENDBRANCH  16  17
ENDBRANCH   2  16
TORSDOF 5
ENDMDL
MODEL 7
REMARK VINA RESULT:      -6.1     10.192     11.251
REMARK  5 active torsions:
REMARK  status: ('A' for Active; 'I' for Inactive)
REMARK    1  A    between atoms: S_6  and  C_2 
REMARK    2  A    between atoms: C_16  and  S_6 
REMARK    3  A    between atoms: C_8  and  C_16 
REMARK       I    between atoms: N_13  and  C_8 
REMARK    4  A    between atoms: C_19  and  N_13 
REMARK    5  A    between atoms: C_18  and  C_19 
ROOT
ATOM      1  C   UNL d   1      44.876  26.649  56.973  0.00  0.00     0.286 C 
ATOM      2  N   UNL d   1      44.839  26.124  56.347  0.00  0.00    -0.206 NA
ATOM      3  O   UNL d   1      44.817  26.372  57.747  0.00  0.00    -0.265 OA
ENDROOT
BRANCH   1   4
ATOM      4  C   UNL d   1      44.971  27.458  56.837  0.00  0.00     0.098 C 
BRANCH   4   5
ATOM      5  S   UNL d   1      44.913  27.993  57.466  0.00  0.00    -0.080 SA
BRANCH   5   6
ATOM      6  C   UNL d   1      44.860  28.799  57.307  0.00  0.00     0.049 A 
ATOM      7  C   UNL d   1      44.710  29.146  56.570  0.00  0.00     0.087 A 
ATOM      8  N   UNL d   1      44.705  29.966  56.664  0.00  0.00    -0.302 N 
ATOM      9  C   UNL d   1      44.853  30.127  57.462  0.00  0.00     0.065 A 
ATOM     10  C   UNL d   1      44.578  30.530  56.077  0.00  0.00     0.100 C 
ATOM     11  C   UNL d   1      44.948  29.405  57.857  0.00  0.00     0.024 A 
ATOM     12  C   UNL d   1      44.913  30.842  57.881  0.00  0.00     0.018 A 
ATOM     13  C   UNL d   1      45.103  29.397  58.670  0.00  0.00     0.002 A 
ATOM     14  C   UNL d   1      45.162  30.108  59.082  0.00  0.00     0.000 A 
ATOM     15  C   UNL d   1      45.067  30.830  58.688  0.00  0.00     0.002 A 
ENDBRANCH   5   6
ENDBRANCH   4   5
ENDBRANCH   1   4
BRANCH   2  16
ATOM     16  C   UNL d   1      44.745  25.325  56.485  0.00  0.00     0.102 C 
BRANCH  16  17
ATOM     17  C   UNL d   1      44.763  24.767  55.884  0.00  0.00     0.021 A 
ATOM     18  C   UNL d   1      45.152  24.050  56.016  0.00  0.00     0.028 A 
ATOM     19  C   UNL d   1      45.174  23.477  55.406  0.00  0.00     0.119 A 
ATOM     20  O   UNL d   1      45.501  22.737  55.359  0.00  0.00    -0.300 OA
ATOM     21  C   UNL d   1      44.806  23.643  54.689  0.00  0.00     0.119 A 
ATOM     22  C   UNL d   1      45.346  22.429  54.619  0.00  0.00     0.304 A 
ATOM     23  O   UNL d   1      44.913  22.989  54.197  0.00  0.00    -0.300 OA
ATOM     24  C   UNL d   1      44.419  24.370  54.572  0.00  0.00     0.026 A 
ATOM     25  C   UNL d   1      44.406  24.921  55.179  0.00  0.00     0.004 A 
ENDBRANCH  16  17
ENDBRANCH   2  16
TORSDOF 5
ENDMDL
