MODEL 1
REMARK VINA RESULT:      -7.6      0.000      0.000
REMARK  2 active torsions:
REMARK  status: ('A' for Active; 'I' for Inactive)
REMARK    1  A    between atoms: S_6  and  C_1 
REMARK    2  A    between atoms: C_7  and  S_6 
ROOT
ATOM      1  C   UNL d   1      53.674  31.626  53.886  0.00  0.00     0.194 A 
ATOM      2  N   UNL d   1      54.223  32.132  53.483  0.00  0.00    -0.220 NA
ATOM      3  N   UNL d   1      53.607  31.900  54.659  0.00  0.00    -0.220 NA
ATOM      4  C   UNL d   1      54.471  32.691  54.010  0.00  0.00     0.101 A 
ATOM      5  C   UNL d   1      54.082  32.545  54.754  0.00  0.00     0.101 A 
ATOM      6  C   UNL d   1      54.999  33.341  53.973  0.00  0.00     0.021 A 
ATOM      7  C   UNL d   1      54.231  33.034  55.401  0.00  0.00     0.021 A 
ATOM      8  C   UNL d   1      54.757  33.665  55.329  0.00  0.00     0.002 A 
ATOM      9  C   UNL d   1      55.135  33.807  54.608  0.00  0.00     0.002 A 
ENDROOT
BRANCH   1  10
ATOM     10  S   UNL d   1      53.525  31.137  53.238  0.00  0.00    -0.049 SA
BRANCH  10  11
ATOM     11  C   UNL d   1      53.136  30.417  53.346  0.00  0.00     0.032 C 
ATOM     12  C   UNL d   1      52.390  30.297  53.014  0.00  0.00     0.007 C 
ATOM     13  C   UNL d   1      53.318  29.715  53.740  0.00  0.00     0.007 C 
ENDBRANCH  10  11
ENDBRANCH   1  10
TORSDOF 2
ENDMDL
MODEL 2
REMARK VINA RESULT:      -7.5      2.528      2.851
REMARK  2 active torsions:
REMARK  status: ('A' for Active; 'I' for Inactive)
REMARK    1  A    between atoms: S_6  and  C_1 
REMARK    2  A    between atoms: C_7  and  S_6 
ROOT
ATOM      1  C   UNL d   1      52.378  33.882  53.546  0.00  0.00     0.194 A 
ATOM      2  N   UNL d   1      52.832  34.405  54.037  0.00  0.00    -0.220 NA
ATOM      3  N   UNL d   1      52.698  33.128  53.627  0.00  0.00    -0.220 NA
ATOM      4  C   UNL d   1      53.405  33.965  54.397  0.00  0.00     0.101 A 
ATOM      5  C   UNL d   1      53.321  33.157  54.138  0.00  0.00     0.101 A 
ATOM      6  C   UNL d   1      54.023  34.134  54.937  0.00  0.00     0.021 A 
ATOM      7  C   UNL d   1      53.836  32.579  54.418  0.00  0.00     0.021 A 
ATOM      8  C   UNL d   1      54.434  32.780  54.950  0.00  0.00     0.002 A 
ATOM      9  C   UNL d   1      54.516  33.563  55.201  0.00  0.00     0.002 A 
ENDROOT
BRANCH   1  10
ATOM     10  S   UNL d   1      51.863  34.462  53.266  0.00  0.00    -0.049 SA
BRANCH  10  11
ATOM     11  C   UNL d   1      51.307  34.273  52.685  0.00  0.00     0.032 C 
ATOM     12  C   UNL d   1      50.509  34.207  52.882  0.00  0.00     0.007 C 
ATOM     13  C   UNL d   1      51.348  34.119  51.875  0.00  0.00     0.007 C 
ENDBRANCH  10  11
ENDBRANCH   1  10
TORSDOF 2
ENDMDL
MODEL 3
REMARK VINA RESULT:      -7.4      1.665      3.319
REMARK  2 active torsions:
REMARK  status: ('A' for Active; 'I' for Inactive)
REMARK    1  A    between atoms: S_6  and  C_1 
REMARK    2  A    between atoms: C_7  and  S_6 
ROOT
ATOM      1  C   UNL d   1      53.083  32.984  53.459  0.00  0.00     0.194 A 
ATOM      2  N   UNL d   1      53.656  32.489  53.843  0.00  0.00    -0.220 NA
ATOM      3  N   UNL d   1      52.585  32.495  53.025  0.00  0.00    -0.220 NA
ATOM      4  C   UNL d   1      53.495  31.725  53.635  0.00  0.00     0.101 A 
ATOM      5  C   UNL d   1      52.817  31.728  53.118  0.00  0.00     0.101 A 
ATOM      6  C   UNL d   1      53.838  30.982  53.817  0.00  0.00     0.021 A 
ATOM      7  C   UNL d   1      52.525  31.019  52.818  0.00  0.00     0.021 A 
ATOM      8  C   UNL d   1      52.888  30.305  53.017  0.00  0.00     0.002 A 
ATOM      9  C   UNL d   1      53.545  30.302  53.518  0.00  0.00     0.002 A 
ENDROOT
BRANCH   1  10
ATOM     10  S   UNL d   1      53.376  33.694  53.761  0.00  0.00    -0.049 SA
BRANCH  10  11
ATOM     11  C   UNL d   1      52.965  34.398  53.630  0.00  0.00     0.032 C 
ATOM     12  C   UNL d   1      52.928  34.970  54.224  0.00  0.00     0.007 C 
ATOM     13  C   UNL d   1      52.538  34.709  52.996  0.00  0.00     0.007 C 
ENDBRANCH  10  11
ENDBRANCH   1  10
TORSDOF 2
ENDMDL
MODEL 4
REMARK VINA RESULT:      -7.3      1.892      2.177
REMARK  2 active torsions:
REMARK  status: ('A' for Active; 'I' for Inactive)
REMARK    1  A    between atoms: S_6  and  C_1 
REMARK    2  A    between atoms: C_7  and  S_6 
ROOT
ATOM      1  C   UNL d   1      52.944  31.965  53.184  0.00  0.00     0.194 A 
ATOM      2  N   UNL d   1      53.383  32.593  53.548  0.00  0.00    -0.220 NA
ATOM      3  N   UNL d   1      52.294  32.302  52.809  0.00  0.00    -0.220 NA
ATOM      4  C   UNL d   1      52.996  33.284  53.388  0.00  0.00     0.101 A 
ATOM      5  C   UNL d   1      52.307  33.100  52.922  0.00  0.00     0.101 A 
ATOM      6  C   UNL d   1      53.129  34.089  53.579  0.00  0.00     0.021 A 
ATOM      7  C   UNL d   1      51.803  33.704  52.676  0.00  0.00     0.021 A 
ATOM      8  C   UNL d   1      51.964  34.487  52.881  0.00  0.00     0.002 A 
ATOM      9  C   UNL d   1      52.632  34.665  53.334  0.00  0.00     0.002 A 
ENDROOT
BRANCH   1  10
ATOM     10  S   UNL d   1      53.449  31.361  53.430  0.00  0.00    -0.049 SA
BRANCH  10  11
ATOM     11  C   UNL d   1      53.237  30.572  53.313  0.00  0.00     0.032 C 
ATOM     12  C   UNL d   1      53.357  30.018  53.912  0.00  0.00     0.007 C 
ATOM     13  C   UNL d   1      52.901  30.151  52.688  0.00  0.00     0.007 C 
ENDBRANCH  10  11
ENDBRANCH   1  10
TORSDOF 2
ENDMDL
MODEL 5
REMARK VINA RESULT:      -7.1      2.519      3.503
REMARK  2 active torsions:
REMARK  status: ('A' for Active; 'I' for Inactive)
REMARK    1  A    between atoms: S_6  and  C_1 
REMARK    2  A    between atoms: C_7  and  S_6 
ROOT
ATOM      1  C   UNL d   1      53.234  33.566  53.930  0.00  0.00     0.194 A 
ATOM      2  N   UNL d   1      52.526  33.109  54.031  0.00  0.00    -0.220 NA
ATOM      3  N   UNL d   1      53.065  34.168  53.394  0.00  0.00    -0.220 NA
ATOM      4  C   UNL d   1      51.955  33.438  53.564  0.00  0.00     0.101 A 
ATOM      5  C   UNL d   1      52.295  34.108  53.161  0.00  0.00     0.101 A 
ATOM      6  C   UNL d   1      51.150  33.263  53.408  0.00  0.00     0.021 A 
ATOM      7  C   UNL d   1      51.836  34.554  52.643  0.00  0.00     0.021 A 
ATOM      8  C   UNL d   1      51.046  34.353  52.513  0.00  0.00     0.002 A 
ATOM      9  C   UNL d   1      50.716  33.704  52.903  0.00  0.00     0.002 A 
ENDROOT
BRANCH   1  10
ATOM     10  S   UNL d   1      53.693  33.119  54.449  0.00  0.00    -0.049 SA
BRANCH  10  11
ATOM     11  C   UNL d   1      54.502  33.270  54.518  0.00  0.00     0.032 C 
ATOM     12  C   UNL d   1      54.810  33.552  55.229  0.00  0.00     0.007 C 
ATOM     13  C   UNL d   1      55.147  33.204  54.007  0.00  0.00     0.007 C 
ENDBRANCH  10  11
ENDBRANCH   1  10
TORSDOF 2
ENDMDL
