MODEL 1
REMARK VINA RESULT:       5.1      0.000      0.000
REMARK  7 active torsions:
REMARK  status: ('A' for Active; 'I' for Inactive)
REMARK    1  A    between atoms: S_2  and  C_1 
REMARK    2  A    between atoms: C_7  and  S_2 
REMARK    3  A    between atoms: C_9  and  N_3 
REMARK    4  A    between atoms: C_11  and  C_7 
REMARK    5  A    between atoms: C_8  and  C_9 
REMARK       I    between atoms: N_10  and  C_8 
REMARK       I    between atoms: N_15  and  C_11 
REMARK    6  A    between atoms: C_12  and  C_16 
REMARK    7  A    between atoms: C_23  and  N_15 
ROOT
ATOM      1  C   UNL d   1     -41.794-122.919 -51.152  0.00  0.00     0.107 A 
ATOM      2  N   UNL d   1     -41.701-122.697 -49.843  0.00  0.00    -0.299 N 
ATOM      3  C   UNL d   1     -41.879-123.270 -50.407  0.00  0.00     0.092 A 
ATOM      4  C   UNL d   1     -41.565-122.134 -51.042  0.00  0.00     0.028 A 
ATOM      5  C   UNL d   1     -41.508-121.998 -50.228  0.00  0.00     0.065 A 
ATOM      6  C   UNL d   1     -41.402-121.530 -51.575  0.00  0.00     0.002 A 
ATOM      7  C   UNL d   1     -41.286-121.253 -49.956  0.00  0.00     0.018 A 
ATOM      8  C   UNL d   1     -41.179-120.780 -51.302  0.00  0.00     0.000 A 
ATOM      9  C   UNL d   1     -41.123-120.648 -50.489  0.00  0.00     0.002 A 
ENDROOT
BRANCH   1  10
ATOM     10  S   UNL d   1     -41.917-123.293 -51.882  0.00  0.00     0.217 S 
ATOM     11  O   UNL d   1     -41.125-123.483 -51.967  0.00  0.00    -0.217 OA
ATOM     12  O   UNL d   1     -42.721-123.098 -51.791  0.00  0.00    -0.217 OA
BRANCH  10  13
ATOM     13  C   UNL d   1     -42.046-123.665 -52.612  0.00  0.00     0.161 C 
BRANCH  13  14
ATOM     14  C   UNL d   1     -41.925-123.254 -53.304  0.00  0.00     0.291 C 
ATOM     15  N   UNL d   1     -42.560-123.069 -53.796  0.00  0.00    -0.207 NA
ATOM     16  O   UNL d   1     -41.160-123.019 -53.517  0.00  0.00    -0.264 OA
BRANCH  15  17
ATOM     17  C   UNL d   1     -42.434-122.653 -54.497  0.00  0.00     0.085 A 
ATOM     18  C   UNL d   1     -42.474-123.041 -55.227  0.00  0.00     0.019 A 
ATOM     19  C   UNL d   1     -42.349-122.632 -55.929  0.00  0.00     0.006 A 
ATOM     20  C   UNL d   1     -42.181-121.818 -55.911  0.00  0.00     0.059 A 
ATOM     21  C   UNL d   1     -42.139-121.420 -55.188  0.00  0.00     0.006 A 
ATOM     22  C   UNL d   1     -42.266-121.837 -54.475  0.00  0.00     0.019 A 
BRANCH  20  23
ATOM     23  C   UNL d   1     -42.055-121.401 -56.604  0.00  0.00     0.297 C 
ATOM     24  O   UNL d   1     -42.503-121.557 -57.284  0.00  0.00    -0.264 OA
ATOM     25  N   UNL d   1     -41.464-120.808 -56.627  0.00  0.00    -0.102 N 
ENDBRANCH  20  23
ENDBRANCH  15  17
ENDBRANCH  13  14
ENDBRANCH  10  13
ENDBRANCH   1  10
BRANCH   2  26
ATOM     26  C   UNL d   1     -41.716-122.807 -49.026  0.00  0.00     0.142 C 
BRANCH  26  27
ATOM     27  C   UNL d   1     -42.408-123.047 -48.655  0.00  0.00     0.282 C 
ATOM     28  N   UNL d   1     -42.386-123.327 -47.880  0.00  0.00    -0.271 N 
ATOM     29  C   UNL d   1     -41.719-123.399 -47.406  0.00  0.00     0.083 A 
ATOM     30  C   UNL d   1     -43.037-123.587 -47.437  0.00  0.00     0.083 A 
ATOM     31  C   UNL d   1     -41.944-123.700 -46.677  0.00  0.00     0.021 A 
ATOM     32  C   UNL d   1     -42.761-123.817 -46.692  0.00  0.00     0.021 A 
ATOM     33  O   UNL d   1     -43.124-123.008 -49.059  0.00  0.00    -0.265 OA
ENDBRANCH  26  27
ENDBRANCH   2  26
TORSDOF 7
ENDMDL
