MODEL 1
REMARK VINA RESULT:      -3.2      0.000      0.000
REMARK  4 active torsions:
REMARK  status: ('A' for Active; 'I' for Inactive)
REMARK    1  A    between atoms: N_5  and  C_1 
REMARK    2  A    between atoms: C_9  and  C_2 
REMARK       I    between atoms: C_6  and  N_5 
REMARK    3  A    between atoms: C_8  and  C_6 
REMARK    4  A    between atoms: N_10  and  C_9 
ROOT
ATOM      1  C   UNL d   1      58.580  -0.484  29.935  0.00  0.00     0.115 A 
ATOM      2  C   UNL d   1      59.137  -1.025  29.666  0.00  0.00     0.042 A 
ATOM      3  S   UNL d   1      58.684   0.224  29.508  0.00  0.00    -0.068 SA
ATOM      4  C   UNL d   1      59.583  -0.659  29.077  0.00  0.00     0.009 A 
ATOM      5  C   UNL d   1      59.296   0.111  28.987  0.00  0.00     0.031 A 
ATOM      6  C   UNL d   1      60.205  -0.991  28.648  0.00  0.00     0.001 C 
ATOM      7  C   UNL d   1      59.578   0.681  28.457  0.00  0.00     0.007 C 
ENDROOT
BRANCH   1   8
ATOM      8  N   UNL d   1      58.049  -0.696  30.532  0.00  0.00    -0.201 NA
ATOM      9  C   UNL d   1      57.800  -0.137  31.080  0.00  0.00     0.282 C 
ATOM     10  O   UNL d   1      58.080   0.634  31.034  0.00  0.00    -0.265 OA
BRANCH   9  11
ATOM     11  C   UNL d   1      57.271  -0.349  31.674  0.00  0.00     0.085 A 
ATOM     12  C   UNL d   1      57.343  -0.022  32.424  0.00  0.00     0.145 A 
ATOM     13  F   UNL d   1      57.955   0.525  32.576  0.00  0.00    -0.204 F 
ATOM     14  C   UNL d   1      56.814  -0.233  33.018  0.00  0.00     0.030 A 
ATOM     15  C   UNL d   1      56.214  -0.772  32.863  0.00  0.00     0.002 A 
ATOM     16  C   UNL d   1      56.141  -1.102  32.110  0.00  0.00     0.000 A 
ATOM     17  C   UNL d   1      56.670  -0.890  31.516  0.00  0.00     0.007 A 
ENDBRANCH   9  11
ENDBRANCH   1   8
BRANCH   2  18
ATOM     18  C   UNL d   1      59.232  -1.805  29.940  0.00  0.00     0.082 C 
BRANCH  18  19
ATOM     19  N   UNL d   1      59.061  -2.440  29.447  0.00  0.00    -0.302 N 
ATOM     20  C   UNL d   1      59.592  -3.072  29.389  0.00  0.00     0.080 A 
ATOM     21  C   UNL d   1      59.421  -3.712  28.893  0.00  0.00     0.019 A 
ATOM     22  C   UNL d   1      58.721  -3.718  28.458  0.00  0.00     0.003 A 
ATOM     23  C   UNL d   1      58.189  -3.086  28.516  0.00  0.00     0.019 A 
ATOM     24  C   UNL d   1      58.358  -2.448  29.009  0.00  0.00     0.080 A 
ENDBRANCH  18  19
ENDBRANCH   2  18
TORSDOF 4
ENDMDL
MODEL 2
REMARK VINA RESULT:      -0.7      2.466      4.598
REMARK  4 active torsions:
REMARK  status: ('A' for Active; 'I' for Inactive)
REMARK    1  A    between atoms: N_5  and  C_1 
REMARK    2  A    between atoms: C_9  and  C_2 
REMARK       I    between atoms: C_6  and  N_5 
REMARK    3  A    between atoms: C_8  and  C_6 
REMARK    4  A    between atoms: N_10  and  C_9 
ROOT
ATOM      1  C   UNL d   1      58.030   0.678  32.584  0.00  0.00     0.115 A 
ATOM      2  C   UNL d   1      57.349   0.677  33.044  0.00  0.00     0.042 A 
ATOM      3  S   UNL d   1      58.686   0.681  33.097  0.00  0.00    -0.068 SA
ATOM      4  C   UNL d   1      57.579   0.678  33.836  0.00  0.00     0.009 A 
ATOM      5  C   UNL d   1      58.405   0.680  33.858  0.00  0.00     0.031 A 
ATOM      6  C   UNL d   1      57.083   0.676  34.496  0.00  0.00     0.001 C 
ATOM      7  C   UNL d   1      58.878   0.682  34.538  0.00  0.00     0.007 C 
ENDROOT
BRANCH   1   8
ATOM      8  N   UNL d   1      57.973   0.678  31.759  0.00  0.00    -0.201 NA
ATOM      9  C   UNL d   1      58.653   0.671  31.299  0.00  0.00     0.282 C 
ATOM     10  O   UNL d   1      59.391   0.665  31.660  0.00  0.00    -0.265 OA
BRANCH   9  11
ATOM     11  C   UNL d   1      58.596   0.671  30.478  0.00  0.00     0.085 A 
ATOM     12  C   UNL d   1      59.277   0.676  30.018  0.00  0.00     0.145 A 
ATOM     13  F   UNL d   1      60.024   0.681  30.392  0.00  0.00    -0.204 F 
ATOM     14  C   UNL d   1      59.220   0.675  29.197  0.00  0.00     0.030 A 
ATOM     15  C   UNL d   1      58.482   0.670  28.836  0.00  0.00     0.002 A 
ATOM     16  C   UNL d   1      57.798   0.665  29.296  0.00  0.00     0.000 A 
ATOM     17  C   UNL d   1      57.855   0.665  30.117  0.00  0.00     0.007 A 
ENDBRANCH   9  11
ENDBRANCH   1   8
BRANCH   2  18
ATOM     18  C   UNL d   1      56.567   0.674  32.761  0.00  0.00     0.082 C 
BRANCH  18  19
ATOM     19  N   UNL d   1      56.069   0.043  32.929  0.00  0.00    -0.302 N 
ATOM     20  C   UNL d   1      55.405   0.158  33.409  0.00  0.00     0.080 A 
ATOM     21  C   UNL d   1      54.902  -0.477  33.579  0.00  0.00     0.019 A 
ATOM     22  C   UNL d   1      55.065  -1.223  33.269  0.00  0.00     0.003 A 
ATOM     23  C   UNL d   1      55.729  -1.339  32.789  0.00  0.00     0.019 A 
ATOM     24  C   UNL d   1      56.230  -0.708  32.619  0.00  0.00     0.080 A 
ENDBRANCH  18  19
ENDBRANCH   2  18
TORSDOF 4
ENDMDL
