MODEL 1
REMARK VINA RESULT:      17.4      0.000      0.000
REMARK  2 active torsions:
REMARK  status: ('A' for Active; 'I' for Inactive)
REMARK    1  A    between atoms: N_6  and  C_1 
REMARK    2  A    between atoms: C_7  and  C_2 
REMARK       I    between atoms: C_8  and  N_6 
ROOT
ATOM      1  C   UNL d   1      23.096  12.897  -1.275  0.00  0.00     0.119 A 
ATOM      2  C   UNL d   1      23.839  12.595  -1.256  0.00  0.00     0.084 A 
ATOM      3  S   UNL d   1      22.811  12.847  -2.059  0.00  0.00    -0.068 SA
ATOM      4  C   UNL d   1      24.036  12.355  -2.004  0.00  0.00     0.013 A 
ATOM      5  C   UNL d   1      23.392  12.513  -2.506  0.00  0.00     0.031 A 
ATOM      6  C   UNL d   1      24.721  12.009  -2.305  0.00  0.00     0.001 A 
ATOM      7  C   UNL d   1      23.455  12.317  -3.305  0.00  0.00     0.006 A 
ATOM      8  C   UNL d   1      24.768  11.818  -3.112  0.00  0.00     0.000 A 
ATOM      9  C   UNL d   1      24.140  11.975  -3.587  0.00  0.00     0.001 A 
ENDROOT
BRANCH   1  10
ATOM     10  N   UNL d   1      22.679  13.212  -0.600  0.00  0.00    -0.201 NA
ATOM     11  C   UNL d   1      21.935  13.554  -0.675  0.00  0.00     0.280 C 
ATOM     12  O   UNL d   1      21.563  13.601  -1.426  0.00  0.00    -0.265 OA
ATOM     13  C   UNL d   1      21.542  13.855  -0.014  0.00  0.00     0.068 C 
ENDBRANCH   1  10
BRANCH   2  14
ATOM     14  C   UNL d   1      24.314  12.548  -0.561  0.00  0.00     0.299 C 
ATOM     15  O   UNL d   1      24.321  11.829  -0.145  0.00  0.00    -0.264 OA
ATOM     16  N   UNL d   1      24.757  13.185  -0.294  0.00  0.00    -0.102 N 
ENDBRANCH   2  14
TORSDOF 2
ENDMDL
