MODEL 1
REMARK VINA RESULT:      -7.7      0.000      0.000
REMARK  6 active torsions:
REMARK  status: ('A' for Active; 'I' for Inactive)
REMARK    1  A    between atoms: C_2  and  N_10 
REMARK    2  A    between atoms: N_8  and  C_2 
REMARK    3  A    between atoms: C_4  and  N_8 
REMARK    4  A    between atoms: N_10  and  C_16 
REMARK    5  A    between atoms: C_22  and  C_13 
REMARK    6  A    between atoms: C_16  and  C_15 
ROOT
ATOM      1  C   UNL d   1     -49.058  12.776  23.443  0.00  0.00     0.221 C 
ATOM      2  S   UNL d   1     -49.121  11.968  23.596  0.00  0.00    -0.037 SA
ENDROOT
BRANCH   1   3
ATOM      3  N   UNL d   1     -48.353  13.086  23.143  0.00  0.00    -0.216 NA
BRANCH   3   4
ATOM      4  C   UNL d   1     -47.624  12.855  23.466  0.00  0.00     0.101 C 
BRANCH   4   5
ATOM      5  C   UNL d   1     -46.920  13.124  23.123  0.00  0.00     0.019 A 
ATOM      6  C   UNL d   1     -46.747  13.932  23.100  0.00  0.00     0.003 A 
ATOM      7  C   UNL d   1     -46.043  14.193  22.756  0.00  0.00     0.019 A 
ATOM      8  C   UNL d   1     -45.517  13.649  22.439  0.00  0.00     0.081 A 
ATOM      9  C   UNL d   1     -45.690  12.842  22.461  0.00  0.00     0.019 A 
ATOM     10  N   UNL d   1     -44.785  13.742  22.066  0.00  0.00    -0.246 NA
ATOM     11  C   UNL d   1     -46.389  12.580  22.802  0.00  0.00     0.003 A 
ATOM     12  C   UNL d   1     -45.063  12.442  22.103  0.00  0.00     0.021 A 
ATOM     13  C   UNL d   1     -44.512  12.987  21.863  0.00  0.00     0.082 A 
ATOM     14  C   UNL d   1     -43.802  12.811  21.479  0.00  0.00     0.021 C 
ENDBRANCH   4   5
ENDBRANCH   3   4
ENDBRANCH   1   3
BRANCH   1  15
ATOM     15  N   UNL d   1     -49.698  13.274  23.590  0.00  0.00    -0.217 NA
BRANCH  15  16
ATOM     16  C   UNL d   1     -50.152  13.553  22.963  0.00  0.00     0.084 A 
ATOM     17  C   UNL d   1     -50.500  13.023  22.436  0.00  0.00     0.018 A 
ATOM     18  C   UNL d   1     -50.955  13.303  21.808  0.00  0.00     0.002 A 
ATOM     19  C   UNL d   1     -50.395  12.207  22.535  0.00  0.00     0.002 C 
ATOM     20  C   UNL d   1     -51.064  14.120  21.704  0.00  0.00     0.000 A 
ATOM     21  C   UNL d   1     -50.716  14.650  22.231  0.00  0.00     0.002 A 
ATOM     22  C   UNL d   1     -50.259  14.364  22.862  0.00  0.00     0.018 A 
BRANCH  22  23
ATOM     23  C   UNL d   1     -49.910  14.894  23.389  0.00  0.00     0.002 C 
ATOM     24  C   UNL d   1     -50.209  15.650  23.472  0.00  0.00     0.000 C 
ENDBRANCH  22  23
ENDBRANCH  15  16
ENDBRANCH   1  15
TORSDOF 6
ENDMDL
MODEL 2
REMARK VINA RESULT:      -7.7      1.002      1.697
REMARK  6 active torsions:
REMARK  status: ('A' for Active; 'I' for Inactive)
REMARK    1  A    between atoms: C_2  and  N_10 
REMARK    2  A    between atoms: N_8  and  C_2 
REMARK    3  A    between atoms: C_4  and  N_8 
REMARK    4  A    between atoms: N_10  and  C_16 
REMARK    5  A    between atoms: C_22  and  C_13 
REMARK    6  A    between atoms: C_16  and  C_15 
ROOT
ATOM      1  C   UNL d   1     -48.574  14.213  23.001  0.00  0.00     0.221 C 
ATOM      2  S   UNL d   1     -48.520  14.999  22.758  0.00  0.00    -0.037 SA
ENDROOT
BRANCH   1   3
ATOM      3  N   UNL d   1     -47.921  13.711  22.924  0.00  0.00    -0.216 NA
BRANCH   3   4
ATOM      4  C   UNL d   1     -47.151  14.017  22.959  0.00  0.00     0.101 C 
BRANCH   4   5
ATOM      5  C   UNL d   1     -46.504  13.514  22.846  0.00  0.00     0.019 A 
ATOM      6  C   UNL d   1     -46.463  12.790  23.241  0.00  0.00     0.003 A 
ATOM      7  C   UNL d   1     -45.813  12.293  23.123  0.00  0.00     0.019 A 
ATOM      8  C   UNL d   1     -45.211  12.520  22.615  0.00  0.00     0.081 A 
ATOM      9  C   UNL d   1     -45.253  13.244  22.220  0.00  0.00     0.019 A 
ATOM     10  N   UNL d   1     -44.507  12.148  22.391  0.00  0.00    -0.246 NA
ATOM     11  C   UNL d   1     -45.896  13.740  22.335  0.00  0.00     0.003 A 
ATOM     12  C   UNL d   1     -44.574  13.315  21.755  0.00  0.00     0.021 A 
ATOM     13  C   UNL d   1     -44.121  12.650  21.858  0.00  0.00     0.082 A 
ATOM     14  C   UNL d   1     -43.396  12.505  21.489  0.00  0.00     0.021 C 
ENDBRANCH   4   5
ENDBRANCH   3   4
ENDBRANCH   1   3
BRANCH   1  15
ATOM     15  N   UNL d   1     -49.278  13.928  23.320  0.00  0.00    -0.217 NA
BRANCH  15  16
ATOM     16  C   UNL d   1     -49.871  13.650  22.822  0.00  0.00     0.084 A 
ATOM     17  C   UNL d   1     -50.209  14.152  22.262  0.00  0.00     0.018 A 
ATOM     18  C   UNL d   1     -50.804  13.875  21.763  0.00  0.00     0.002 A 
ATOM     19  C   UNL d   1     -49.953  14.938  22.197  0.00  0.00     0.002 C 
ATOM     20  C   UNL d   1     -51.064  13.088  21.824  0.00  0.00     0.000 A 
ATOM     21  C   UNL d   1     -50.727  12.586  22.384  0.00  0.00     0.002 A 
ATOM     22  C   UNL d   1     -50.128  12.870  22.885  0.00  0.00     0.018 A 
BRANCH  22  23
ATOM     23  C   UNL d   1     -49.790  12.368  23.445  0.00  0.00     0.002 C 
ATOM     24  C   UNL d   1     -50.138  11.650  23.619  0.00  0.00     0.000 C 
ENDBRANCH  22  23
ENDBRANCH  15  16
ENDBRANCH   1  15
TORSDOF 6
ENDMDL
MODEL 3
REMARK VINA RESULT:      -6.7      8.819     10.100
REMARK  6 active torsions:
REMARK  status: ('A' for Active; 'I' for Inactive)
REMARK    1  A    between atoms: C_2  and  N_10 
REMARK    2  A    between atoms: N_8  and  C_2 
REMARK    3  A    between atoms: C_4  and  N_8 
REMARK    4  A    between atoms: N_10  and  C_16 
REMARK    5  A    between atoms: C_22  and  C_13 
REMARK    6  A    between atoms: C_16  and  C_15 
ROOT
ATOM      1  C   UNL d   1     -40.263  14.361  18.502  0.00  0.00     0.221 C 
ATOM      2  S   UNL d   1     -40.883  14.876  18.326  0.00  0.00    -0.037 SA
ENDROOT
BRANCH   1   3
ATOM      3  N   UNL d   1     -39.861  14.431  19.221  0.00  0.00    -0.216 NA
BRANCH   3   4
ATOM      4  C   UNL d   1     -40.275  14.607  19.917  0.00  0.00     0.101 C 
BRANCH   4   5
ATOM      5  C   UNL d   1     -39.866  14.669  20.634  0.00  0.00     0.019 A 
ATOM      6  C   UNL d   1     -39.568  15.397  20.885  0.00  0.00     0.003 A 
ATOM      7  C   UNL d   1     -39.161  15.450  21.602  0.00  0.00     0.019 A 
ATOM      8  C   UNL d   1     -39.053  14.780  22.062  0.00  0.00     0.081 A 
ATOM      9  C   UNL d   1     -39.351  14.052  21.811  0.00  0.00     0.019 A 
ATOM     10  N   UNL d   1     -38.677  14.663  22.789  0.00  0.00    -0.246 NA
ATOM     11  C   UNL d   1     -39.756  13.996  21.100  0.00  0.00     0.003 A 
ATOM     12  C   UNL d   1     -39.157  13.491  22.385  0.00  0.00     0.021 A 
ATOM     13  C   UNL d   1     -38.747  13.861  22.979  0.00  0.00     0.082 A 
ATOM     14  C   UNL d   1     -38.453  13.492  23.658  0.00  0.00     0.021 C 
ENDBRANCH   4   5
ENDBRANCH   3   4
ENDBRANCH   1   3
BRANCH   1  15
ATOM     15  N   UNL d   1     -40.045  13.780  17.961  0.00  0.00    -0.217 NA
BRANCH  15  16
ATOM     16  C   UNL d   1     -39.457  13.934  17.407  0.00  0.00     0.084 A 
ATOM     17  C   UNL d   1     -39.547  14.557  16.872  0.00  0.00     0.018 A 
ATOM     18  C   UNL d   1     -38.958  14.712  16.317  0.00  0.00     0.002 A 
ATOM     19  C   UNL d   1     -40.228  15.028  16.892  0.00  0.00     0.002 C 
ATOM     20  C   UNL d   1     -38.273  14.242  16.293  0.00  0.00     0.000 A 
ATOM     21  C   UNL d   1     -38.184  13.620  16.827  0.00  0.00     0.002 A 
ATOM     22  C   UNL d   1     -38.779  13.467  17.385  0.00  0.00     0.018 A 
BRANCH  22  23
ATOM     23  C   UNL d   1     -38.690  12.845  17.919  0.00  0.00     0.002 C 
ATOM     24  C   UNL d   1     -38.113  12.279  17.801  0.00  0.00     0.000 C 
ENDBRANCH  22  23
ENDBRANCH  15  16
ENDBRANCH   1  15
TORSDOF 6
ENDMDL
MODEL 4
REMARK VINA RESULT:      -5.6      1.380      4.716
REMARK  6 active torsions:
REMARK  status: ('A' for Active; 'I' for Inactive)
REMARK    1  A    between atoms: C_2  and  N_10 
REMARK    2  A    between atoms: N_8  and  C_2 
REMARK    3  A    between atoms: C_4  and  N_8 
REMARK    4  A    between atoms: N_10  and  C_16 
REMARK    5  A    between atoms: C_22  and  C_13 
REMARK    6  A    between atoms: C_16  and  C_15 
ROOT
ATOM      1  C   UNL d   1     -46.859  11.870  23.546  0.00  0.00     0.221 C 
ATOM      2  S   UNL d   1     -46.757  11.052  23.523  0.00  0.00    -0.037 SA
ENDROOT
BRANCH   1   3
ATOM      3  N   UNL d   1     -47.610  12.195  23.428  0.00  0.00    -0.216 NA
BRANCH   3   4
ATOM      4  C   UNL d   1     -48.273  11.702  23.353  0.00  0.00     0.101 C 
BRANCH   4   5
ATOM      5  C   UNL d   1     -48.988  12.014  23.077  0.00  0.00     0.019 A 
ATOM      6  C   UNL d   1     -49.702  11.813  23.442  0.00  0.00     0.003 A 
ATOM      7  C   UNL d   1     -50.411  12.130  23.161  0.00  0.00     0.019 A 
ATOM      8  C   UNL d   1     -50.405  12.642  22.521  0.00  0.00     0.081 A 
ATOM      9  C   UNL d   1     -49.692  12.844  22.156  0.00  0.00     0.019 A 
ATOM     10  N   UNL d   1     -51.013  13.038  22.124  0.00  0.00    -0.246 NA
ATOM     11  C   UNL d   1     -48.986  12.531  22.433  0.00  0.00     0.003 A 
ATOM     12  C   UNL d   1     -49.864  13.362  21.538  0.00  0.00     0.021 A 
ATOM     13  C   UNL d   1     -50.667  13.481  21.517  0.00  0.00     0.082 A 
ATOM     14  C   UNL d   1     -51.064  13.965  20.977  0.00  0.00     0.021 C 
ENDBRANCH   4   5
ENDBRANCH   3   4
ENDBRANCH   1   3
BRANCH   1  15
ATOM     15  N   UNL d   1     -46.214  12.362  23.686  0.00  0.00    -0.217 NA
BRANCH  15  16
ATOM     16  C   UNL d   1     -45.659  12.490  23.092  0.00  0.00     0.084 A 
ATOM     17  C   UNL d   1     -45.094  11.914  22.923  0.00  0.00     0.018 A 
ATOM     18  C   UNL d   1     -44.538  12.042  22.329  0.00  0.00     0.002 A 
ATOM     19  C   UNL d   1     -45.082  11.204  23.351  0.00  0.00     0.002 C 
ATOM     20  C   UNL d   1     -44.545  12.752  21.897  0.00  0.00     0.000 A 
ATOM     21  C   UNL d   1     -45.110  13.329  22.066  0.00  0.00     0.002 A 
ATOM     22  C   UNL d   1     -45.669  13.195  22.666  0.00  0.00     0.018 A 
BRANCH  22  23
ATOM     23  C   UNL d   1     -46.234  13.772  22.835  0.00  0.00     0.002 C 
ATOM     24  C   UNL d   1     -46.015  14.556  22.907  0.00  0.00     0.000 C 
ENDBRANCH  22  23
ENDBRANCH  15  16
ENDBRANCH   1  15
TORSDOF 6
ENDMDL
