MODEL 1
REMARK VINA RESULT:      21.3      0.000      0.000
REMARK  5 active torsions:
REMARK  status: ('A' for Active; 'I' for Inactive)
REMARK    1  A    between atoms: N_3  and  S_1 
REMARK    2  A    between atoms: C_4  and  S_1 
REMARK    3  A    between atoms: S_2  and  N_5 
REMARK    4  A    between atoms: C_8  and  N_3 
REMARK    5  A    between atoms: N_5  and  C_15 
ROOT
ATOM      1  N   UNL d   1      46.081 -17.976  44.331  0.00  0.00    -0.229 N 
ATOM      2  C   UNL d   1      46.120 -18.510  44.954  0.00  0.00     0.111 C 
ENDROOT
BRANCH   1   3
ATOM      3  S   UNL d   1      46.194 -18.239  43.554  0.00  0.00     0.271 S 
ATOM      4  O   UNL d   1      46.526 -18.654  44.184  0.00  0.00    -0.200 OA
ATOM      5  O   UNL d   1      45.744 -17.552  43.696  0.00  0.00    -0.200 OA
BRANCH   3   6
ATOM      6  C   UNL d   1      46.308 -18.502  42.776  0.00  0.00     0.104 A 
ATOM      7  C   UNL d   1      46.330 -19.310  42.611  0.00  0.00     0.013 A 
ATOM      8  C   UNL d   1      46.441 -19.569  41.848  0.00  0.00     0.001 A 
ATOM      9  C   UNL d   1      46.533 -19.026  41.236  0.00  0.00     0.000 A 
ATOM     10  C   UNL d   1      46.513 -18.218  41.395  0.00  0.00     0.001 A 
ATOM     11  C   UNL d   1      46.646 -19.298  40.461  0.00  0.00     0.000 C 
ATOM     12  C   UNL d   1      46.400 -17.958  42.163  0.00  0.00     0.013 A 
ENDBRANCH   3   6
ENDBRANCH   1   3
BRANCH   1  13
ATOM     13  C   UNL d   1      45.928 -17.176  44.477  0.00  0.00     0.075 A 
ATOM     14  C   UNL d   1      45.159 -16.882  44.391  0.00  0.00     0.020 A 
ATOM     15  C   UNL d   1      45.010 -16.084  44.539  0.00  0.00     0.021 A 
ATOM     16  C   UNL d   1      45.629 -15.579  44.772  0.00  0.00     0.094 A 
ATOM     17  C   UNL d   1      46.393 -15.881  44.855  0.00  0.00     0.021 A 
ATOM     18  C   UNL d   1      46.541 -16.676  44.708  0.00  0.00     0.020 A 
BRANCH  16  19
ATOM     19  N   UNL d   1      45.477 -14.778  44.919  0.00  0.00    -0.162 NA
BRANCH  19  20
ATOM     20  S   UNL d   1      45.676 -14.202  44.351  0.00  0.00     0.266 S 
ATOM     21  O   UNL d   1      46.376 -14.270  43.924  0.00  0.00    -0.203 OA
ATOM     22  O   UNL d   1      44.968 -14.137  44.787  0.00  0.00    -0.203 OA
ATOM     23  C   UNL d   1      45.168 -13.561  44.219  0.00  0.00     0.165 C 
ENDBRANCH  19  20
ENDBRANCH  16  19
ENDBRANCH   1  13
TORSDOF 5
ENDMDL
MODEL 2
REMARK VINA RESULT:      21.3      1.241      4.581
REMARK  5 active torsions:
REMARK  status: ('A' for Active; 'I' for Inactive)
REMARK    1  A    between atoms: N_3  and  S_1 
REMARK    2  A    between atoms: C_4  and  S_1 
REMARK    3  A    between atoms: S_2  and  N_5 
REMARK    4  A    between atoms: C_8  and  N_3 
REMARK    5  A    between atoms: N_5  and  C_15 
ROOT
ATOM      1  N   UNL d   1      44.862 -15.969  44.610  0.00  0.00    -0.229 N 
ATOM      2  C   UNL d   1      44.098 -16.105  44.884  0.00  0.00     0.111 C 
ENDROOT
BRANCH   1   3
ATOM      3  S   UNL d   1      45.184 -15.207  44.644  0.00  0.00     0.271 S 
ATOM      4  O   UNL d   1      45.601 -15.847  44.954  0.00  0.00    -0.200 OA
ATOM      5  O   UNL d   1      44.435 -15.325  44.295  0.00  0.00    -0.200 OA
BRANCH   3   6
ATOM      6  C   UNL d   1      45.506 -14.444  44.678  0.00  0.00     0.104 A 
ATOM      7  C   UNL d   1      46.300 -14.338  44.872  0.00  0.00     0.013 A 
ATOM      8  C   UNL d   1      46.617 -13.589  44.906  0.00  0.00     0.001 A 
ATOM      9  C   UNL d   1      46.146 -12.934  44.745  0.00  0.00     0.000 A 
ATOM     10  C   UNL d   1      45.352 -13.034  44.550  0.00  0.00     0.001 A 
ATOM     11  C   UNL d   1      46.477 -12.174  44.782  0.00  0.00     0.000 C 
ATOM     12  C   UNL d   1      45.034 -13.787  44.517  0.00  0.00     0.013 A 
ENDBRANCH   3   6
ENDBRANCH   1   3
BRANCH   1  13
ATOM     13  C   UNL d   1      45.308 -16.593  44.300  0.00  0.00     0.075 A 
ATOM     14  C   UNL d   1      45.673 -17.132  44.812  0.00  0.00     0.020 A 
ATOM     15  C   UNL d   1      46.118 -17.752  44.500  0.00  0.00     0.021 A 
ATOM     16  C   UNL d   1      46.199 -17.836  43.676  0.00  0.00     0.094 A 
ATOM     17  C   UNL d   1      45.831 -17.294  43.172  0.00  0.00     0.021 A 
ATOM     18  C   UNL d   1      45.388 -16.676  43.484  0.00  0.00     0.020 A 
BRANCH  16  19
ATOM     19  N   UNL d   1      46.645 -18.460  43.365  0.00  0.00    -0.162 NA
BRANCH  19  20
ATOM     20  S   UNL d   1      46.303 -19.214  43.266  0.00  0.00     0.266 S 
ATOM     21  O   UNL d   1      46.014 -19.622  43.919  0.00  0.00    -0.203 OA
ATOM     22  O   UNL d   1      46.597 -18.794  42.608  0.00  0.00    -0.203 OA
ATOM     23  C   UNL d   1      46.254 -19.548  42.510  0.00  0.00     0.165 C 
ENDBRANCH  19  20
ENDBRANCH  16  19
ENDBRANCH   1  13
TORSDOF 5
ENDMDL
MODEL 3
REMARK VINA RESULT:      22.6      0.673      1.048
REMARK  5 active torsions:
REMARK  status: ('A' for Active; 'I' for Inactive)
REMARK    1  A    between atoms: N_3  and  S_1 
REMARK    2  A    between atoms: C_4  and  S_1 
REMARK    3  A    between atoms: S_2  and  N_5 
REMARK    4  A    between atoms: C_8  and  N_3 
REMARK    5  A    between atoms: N_5  and  C_15 
ROOT
ATOM      1  N   UNL d   1      45.927 -17.454  44.268  0.00  0.00    -0.229 N 
ATOM      2  C   UNL d   1      45.799 -17.889  44.954  0.00  0.00     0.111 C 
ENDROOT
BRANCH   1   3
ATOM      3  S   UNL d   1      46.071 -17.845  43.552  0.00  0.00     0.271 S 
ATOM      4  O   UNL d   1      45.392 -17.386  43.644  0.00  0.00    -0.200 OA
ATOM      5  O   UNL d   1      46.615 -17.918  44.180  0.00  0.00    -0.200 OA
BRANCH   3   6
ATOM      6  C   UNL d   1      46.215 -18.236  42.836  0.00  0.00     0.104 A 
ATOM      7  C   UNL d   1      46.146 -17.831  42.120  0.00  0.00     0.013 A 
ATOM      8  C   UNL d   1      46.287 -18.215  41.418  0.00  0.00     0.001 A 
ATOM      9  C   UNL d   1      46.501 -19.010  41.416  0.00  0.00     0.000 A 
ATOM     10  C   UNL d   1      46.571 -19.419  42.127  0.00  0.00     0.001 A 
ATOM     11  C   UNL d   1      46.643 -19.393  40.695  0.00  0.00     0.000 C 
ATOM     12  C   UNL d   1      46.429 -19.033  42.834  0.00  0.00     0.013 A 
ENDBRANCH   3   6
ENDBRANCH   1   3
BRANCH   1  13
ATOM     13  C   UNL d   1      45.911 -16.627  44.291  0.00  0.00     0.075 A 
ATOM     14  C   UNL d   1      45.398 -16.240  44.813  0.00  0.00     0.020 A 
ATOM     15  C   UNL d   1      45.385 -15.416  44.833  0.00  0.00     0.021 A 
ATOM     16  C   UNL d   1      45.885 -14.977  44.333  0.00  0.00     0.094 A 
ATOM     17  C   UNL d   1      46.394 -15.371  43.816  0.00  0.00     0.021 A 
ATOM     18  C   UNL d   1      46.407 -16.193  43.796  0.00  0.00     0.020 A 
BRANCH  16  19
ATOM     19  N   UNL d   1      45.870 -14.149  44.356  0.00  0.00    -0.162 NA
BRANCH  19  20
ATOM     20  S   UNL d   1      45.251 -13.730  43.986  0.00  0.00     0.266 S 
ATOM     21  O   UNL d   1      44.593 -14.134  43.704  0.00  0.00    -0.203 OA
ATOM     22  O   UNL d   1      45.921 -13.326  44.275  0.00  0.00    -0.203 OA
ATOM     23  C   UNL d   1      45.302 -12.907  43.906  0.00  0.00     0.165 C 
ENDBRANCH  19  20
ENDBRANCH  16  19
ENDBRANCH   1  13
TORSDOF 5
ENDMDL
