MODEL 1
REMARK VINA RESULT:      -4.5      0.000      0.000
REMARK  4 active torsions:
REMARK  status: ('A' for Active; 'I' for Inactive)
REMARK    1  A    between atoms: N_3  and  S_1 
REMARK    2  A    between atoms: C_4  and  S_1 
REMARK    3  A    between atoms: C_2  and  N_3 
REMARK    4  A    between atoms: O_18  and  C_13 
ROOT
ATOM      1  S   UNL d   1     -41.221-122.930 -51.642  0.00  0.00     0.285 S 
ATOM      2  O   UNL d   1     -41.193-122.071 -51.664  0.00  0.00    -0.198 OA
ATOM      3  O   UNL d   1     -41.250-123.779 -51.629  0.00  0.00    -0.198 OA
ENDROOT
BRANCH   1   4
ATOM      4  N   UNL d   1     -41.129-122.917 -50.818  0.00  0.00    -0.157 NA
BRANCH   4   5
ATOM      5  C   UNL d   1     -41.810-122.809 -50.322  0.00  0.00     0.113 A 
ATOM      6  C   UNL d   1     -41.793-123.103 -49.552  0.00  0.00     0.100 A 
ATOM      7  C   UNL d   1     -42.454-122.999 -49.070  0.00  0.00     0.021 A 
ATOM      8  N   UNL d   1     -41.140-123.494 -49.256  0.00  0.00    -0.242 NA
ATOM      9  C   UNL d   1     -42.449-123.288 -48.302  0.00  0.00     0.003 A 
ATOM     10  C   UNL d   1     -43.119-122.603 -49.368  0.00  0.00     0.026 A 
ATOM     11  C   UNL d   1     -41.788-123.681 -48.008  0.00  0.00     0.021 A 
ATOM     12  C   UNL d   1     -41.126-123.785 -48.490  0.00  0.00     0.099 A 
ATOM     13  C   UNL d   1     -43.126-122.312 -50.140  0.00  0.00     0.096 A 
ATOM     14  C   UNL d   1     -42.464-122.417 -50.622  0.00  0.00     0.046 A 
BRANCH  13  15
ATOM     15  O   UNL d   1     -43.780-121.912 -50.462  0.00  0.00    -0.328 OA
ATOM     16  C   UNL d   1     -44.553-122.161 -50.279  0.00  0.00     0.181 C 
ENDBRANCH  13  15
ENDBRANCH   4   5
ENDBRANCH   1   4
BRANCH   1  17
ATOM     17  C   UNL d   1     -41.316-122.955 -52.488  0.00  0.00     0.105 A 
ATOM     18  C   UNL d   1     -41.525-122.277 -52.902  0.00  0.00     0.013 A 
ATOM     19  C   UNL d   1     -41.616-122.307 -53.720  0.00  0.00     0.001 A 
ATOM     20  C   UNL d   1     -41.823-121.633 -54.131  0.00  0.00     0.000 A 
ATOM     21  C   UNL d   1     -41.498-123.016 -54.130  0.00  0.00     0.000 A 
ATOM     22  C   UNL d   1     -41.913-121.670 -54.950  0.00  0.00     0.000 A 
ATOM     23  C   UNL d   1     -41.796-122.372 -55.358  0.00  0.00     0.000 A 
ATOM     24  C   UNL d   1     -41.588-123.046 -54.947  0.00  0.00     0.000 A 
ATOM     25  C   UNL d   1     -41.282-123.715 -53.704  0.00  0.00     0.001 A 
ATOM     26  C   UNL d   1     -41.193-123.679 -52.884  0.00  0.00     0.013 A 
ENDBRANCH   1  17
TORSDOF 4
ENDMDL
