MODEL 1
REMARK VINA RESULT:      -9.0      0.000      0.000
REMARK  4 active torsions:
REMARK  status: ('A' for Active; 'I' for Inactive)
REMARK    1  A    between atoms: N_7  and  C_1 
REMARK    2  A    between atoms: C_11  and  C_2 
REMARK       I    between atoms: C_8  and  N_7 
REMARK    3  A    between atoms: C_13  and  C_8 
REMARK    4  A    between atoms: N_9  and  C_13 
ROOT
ATOM      1  C   UNL d   1     -47.154  13.056  23.310  0.00  0.00     0.142 A 
ATOM      2  C   UNL d   1     -47.909  13.193  23.029  0.00  0.00     0.024 A 
ATOM      3  C   UNL d   1     -46.609  13.675  23.327  0.00  0.00     0.297 A 
ATOM      4  C   UNL d   1     -48.136  13.936  22.764  0.00  0.00     0.020 A 
ATOM      5  N   UNL d   1     -46.819  14.431  23.064  0.00  0.00    -0.207 NA
ATOM      6  C   UNL d   1     -47.591  14.555  22.781  0.00  0.00     0.085 A 
ATOM      7  C   UNL d   1     -48.889  14.072  22.485  0.00  0.00     0.008 A 
ATOM      8  O   UNL d   1     -45.835  13.549  23.611  0.00  0.00    -0.264 OA
ATOM      9  C   UNL d   1     -47.799  15.309  22.520  0.00  0.00     0.020 A 
ATOM     10  C   UNL d   1     -49.113  14.812  22.221  0.00  0.00     0.035 A 
ATOM     11  C   UNL d   1     -48.568  15.431  22.238  0.00  0.00     0.008 A 
ATOM     12 BR   UNL d   1     -49.886  14.965  21.931  0.00  0.00    -0.049 Br
ENDROOT
BRANCH   1  13
ATOM     13  N   UNL d   1     -46.915  12.302  23.582  0.00  0.00    -0.202 NA
ATOM     14  C   UNL d   1     -46.168  12.000  23.334  0.00  0.00     0.297 C 
ATOM     15  O   UNL d   1     -45.803  12.372  22.936  0.00  0.00    -0.264 OA
BRANCH  14  16
ATOM     16  C   UNL d   1     -45.934  11.261  23.601  0.00  0.00     0.144 C 
BRANCH  16  17
ATOM     17  N   UNL d   1     -45.159  10.998  23.430  0.00  0.00    -0.295 N 
ATOM     18  C   UNL d   1     -44.910  10.265  23.698  0.00  0.00     0.107 A 
ATOM     19  C   UNL d   1     -44.128  10.001  23.525  0.00  0.00     0.142 A 
ATOM     20  O   UNL d   1     -43.619  10.478  23.090  0.00  0.00    -0.300 OA
ATOM     21  C   UNL d   1     -43.890  11.238  22.817  0.00  0.00     0.142 A 
ATOM     22  C   UNL d   1     -44.654  11.483  22.992  0.00  0.00     0.107 A 
ENDBRANCH  16  17
ENDBRANCH  14  16
ENDBRANCH   1  13
BRANCH   2  23
ATOM     23  C   UNL d   1     -48.467  12.561  23.011  0.00  0.00     0.002 A 
ATOM     24  C   UNL d   1     -48.583  12.138  22.317  0.00  0.00     0.000 A 
ATOM     25  C   UNL d   1     -49.125  11.522  22.300  0.00  0.00     0.000 A 
ATOM     26  C   UNL d   1     -49.567  11.312  22.976  0.00  0.00     0.000 A 
ATOM     27  C   UNL d   1     -49.434  11.755  23.674  0.00  0.00     0.000 A 
ATOM     28  C   UNL d   1     -48.891  12.371  23.692  0.00  0.00     0.000 A 
ENDBRANCH   2  23
TORSDOF 4
ENDMDL
MODEL 2
REMARK VINA RESULT:      -8.7      1.369      2.566
REMARK  4 active torsions:
REMARK  status: ('A' for Active; 'I' for Inactive)
REMARK    1  A    between atoms: N_7  and  C_1 
REMARK    2  A    between atoms: C_11  and  C_2 
REMARK       I    between atoms: C_8  and  N_7 
REMARK    3  A    between atoms: C_13  and  C_8 
REMARK    4  A    between atoms: N_9  and  C_13 
ROOT
ATOM      1  C   UNL d   1     -47.463  12.700  23.239  0.00  0.00     0.142 A 
ATOM      2  C   UNL d   1     -48.223  12.963  23.088  0.00  0.00     0.024 A 
ATOM      3  C   UNL d   1     -47.349  11.940  23.539  0.00  0.00     0.297 A 
ATOM      4  C   UNL d   1     -48.875  12.484  23.229  0.00  0.00     0.020 A 
ATOM      5  N   UNL d   1     -47.995  11.442  23.688  0.00  0.00    -0.207 NA
ATOM      6  C   UNL d   1     -48.761  11.724  23.529  0.00  0.00     0.085 A 
ATOM      7  C   UNL d   1     -49.630  12.748  23.078  0.00  0.00     0.008 A 
ATOM      8  O   UNL d   1     -46.580  11.659  23.698  0.00  0.00    -0.264 OA
ATOM      9  C   UNL d   1     -49.402  11.227  23.677  0.00  0.00     0.020 A 
ATOM     10  C   UNL d   1     -50.279  12.270  23.219  0.00  0.00     0.035 A 
ATOM     11  C   UNL d   1     -50.165  11.510  23.519  0.00  0.00     0.008 A 
ATOM     12 BR   UNL d   1     -51.063  12.529  23.068  0.00  0.00    -0.049 Br
ENDROOT
BRANCH   1  13
ATOM     13  N   UNL d   1     -46.794  13.181  23.099  0.00  0.00    -0.202 NA
ATOM     14  C   UNL d   1     -46.120  12.839  22.726  0.00  0.00     0.297 C 
ATOM     15  O   UNL d   1     -46.150  12.205  22.560  0.00  0.00    -0.264 OA
BRANCH  14  16
ATOM     16  C   UNL d   1     -45.464  13.311  22.588  0.00  0.00     0.144 C 
BRANCH  16  17
ATOM     17  N   UNL d   1     -44.802  12.976  22.203  0.00  0.00    -0.295 N 
ATOM     18  C   UNL d   1     -44.374  12.384  22.574  0.00  0.00     0.107 A 
ATOM     19  C   UNL d   1     -43.706  12.046  22.185  0.00  0.00     0.142 A 
ATOM     20  O   UNL d   1     -43.486  12.311  21.438  0.00  0.00    -0.300 OA
ATOM     21  C   UNL d   1     -43.940  12.927  21.064  0.00  0.00     0.142 A 
ATOM     22  C   UNL d   1     -44.588  13.247  21.453  0.00  0.00     0.107 A 
ENDBRANCH  16  17
ENDBRANCH  14  16
ENDBRANCH   1  13
BRANCH   2  23
ATOM     23  C   UNL d   1     -48.339  13.740  22.782  0.00  0.00     0.002 A 
ATOM     24  C   UNL d   1     -48.402  13.854  21.971  0.00  0.00     0.000 A 
ATOM     25  C   UNL d   1     -48.515  14.611  21.673  0.00  0.00     0.000 A 
ATOM     26  C   UNL d   1     -48.569  15.274  22.177  0.00  0.00     0.000 A 
ATOM     27  C   UNL d   1     -48.503  15.136  23.001  0.00  0.00     0.000 A 
ATOM     28  C   UNL d   1     -48.390  14.380  23.299  0.00  0.00     0.000 A 
ENDBRANCH   2  23
TORSDOF 4
ENDMDL
MODEL 3
REMARK VINA RESULT:      -7.8      7.241      9.153
REMARK  4 active torsions:
REMARK  status: ('A' for Active; 'I' for Inactive)
REMARK    1  A    between atoms: N_7  and  C_1 
REMARK    2  A    between atoms: C_11  and  C_2 
REMARK       I    between atoms: C_8  and  N_7 
REMARK    3  A    between atoms: C_13  and  C_8 
REMARK    4  A    between atoms: N_9  and  C_13 
ROOT
ATOM      1  C   UNL d   1     -39.343  13.857  20.197  0.00  0.00     0.142 A 
ATOM      2  C   UNL d   1     -39.572  14.231  20.887  0.00  0.00     0.024 A 
ATOM      3  C   UNL d   1     -38.640  13.426  20.184  0.00  0.00     0.297 A 
ATOM      4  C   UNL d   1     -39.116  14.185  21.568  0.00  0.00     0.020 A 
ATOM      5  N   UNL d   1     -38.166  13.368  20.861  0.00  0.00    -0.207 NA
ATOM      6  C   UNL d   1     -38.413  13.754  21.555  0.00  0.00     0.085 A 
ATOM      7  C   UNL d   1     -39.346  14.558  22.255  0.00  0.00     0.008 A 
ATOM      8  O   UNL d   1     -38.394  13.039  19.487  0.00  0.00    -0.264 OA
ATOM      9  C   UNL d   1     -37.940  13.696  22.228  0.00  0.00     0.020 A 
ATOM     10  C   UNL d   1     -38.890  14.512  22.932  0.00  0.00     0.035 A 
ATOM     11  C   UNL d   1     -38.187  14.080  22.918  0.00  0.00     0.008 A 
ATOM     12 BR   UNL d   1     -39.115  14.891  23.646  0.00  0.00    -0.049 Br
ENDROOT
BRANCH   1  13
ATOM     13  N   UNL d   1     -39.803  13.899  19.500  0.00  0.00    -0.202 NA
ATOM     14  C   UNL d   1     -39.418  14.081  18.772  0.00  0.00     0.297 C 
ATOM     15  O   UNL d   1     -38.770  14.183  18.784  0.00  0.00    -0.264 OA
BRANCH  14  16
ATOM     16  C   UNL d   1     -39.869  14.122  18.088  0.00  0.00     0.144 C 
BRANCH  16  17
ATOM     17  N   UNL d   1     -39.693  14.715  17.526  0.00  0.00    -0.295 N 
ATOM     18  C   UNL d   1     -40.291  15.202  17.249  0.00  0.00     0.107 A 
ATOM     19  C   UNL d   1     -40.114  15.800  16.682  0.00  0.00     0.142 A 
ATOM     20  O   UNL d   1     -39.344  15.893  16.409  0.00  0.00    -0.300 OA
ATOM     21  C   UNL d   1     -38.731  15.380  16.704  0.00  0.00     0.142 A 
ATOM     22  C   UNL d   1     -38.918  14.801  17.256  0.00  0.00     0.107 A 
ENDBRANCH  16  17
ENDBRANCH  14  16
ENDBRANCH   1  13
BRANCH   2  23
ATOM     23  C   UNL d   1     -40.291  14.672  20.901  0.00  0.00     0.002 A 
ATOM     24  C   UNL d   1     -40.267  15.493  20.909  0.00  0.00     0.000 A 
ATOM     25  C   UNL d   1     -40.967  15.922  20.922  0.00  0.00     0.000 A 
ATOM     26  C   UNL d   1     -41.710  15.543  20.928  0.00  0.00     0.000 A 
ATOM     27  C   UNL d   1     -41.714  14.705  20.919  0.00  0.00     0.000 A 
ATOM     28  C   UNL d   1     -41.014  14.276  20.906  0.00  0.00     0.000 A 
ENDBRANCH   2  23
TORSDOF 4
ENDMDL
MODEL 4
REMARK VINA RESULT:      -7.3      2.235      4.644
REMARK  4 active torsions:
REMARK  status: ('A' for Active; 'I' for Inactive)
REMARK    1  A    between atoms: N_7  and  C_1 
REMARK    2  A    between atoms: C_11  and  C_2 
REMARK       I    between atoms: C_8  and  N_7 
REMARK    3  A    between atoms: C_13  and  C_8 
REMARK    4  A    between atoms: N_9  and  C_13 
ROOT
ATOM      1  C   UNL d   1     -47.685  12.032  23.365  0.00  0.00     0.142 A 
ATOM      2  C   UNL d   1     -46.898  12.207  23.230  0.00  0.00     0.024 A 
ATOM      3  C   UNL d   1     -47.902  11.259  23.556  0.00  0.00     0.297 A 
ATOM      4  C   UNL d   1     -46.318  11.628  23.281  0.00  0.00     0.020 A 
ATOM      5  N   UNL d   1     -47.331  10.662  23.612  0.00  0.00    -0.207 NA
ATOM      6  C   UNL d   1     -46.535  10.855  23.472  0.00  0.00     0.085 A 
ATOM      7  C   UNL d   1     -45.535  11.804  23.146  0.00  0.00     0.008 A 
ATOM      8  O   UNL d   1     -48.701  11.067  23.697  0.00  0.00    -0.264 OA
ATOM      9  C   UNL d   1     -45.968  10.258  23.528  0.00  0.00     0.020 A 
ATOM     10  C   UNL d   1     -44.959  11.226  23.197  0.00  0.00     0.035 A 
ATOM     11  C   UNL d   1     -45.176  10.453  23.388  0.00  0.00     0.008 A 
ATOM     12 BR   UNL d   1     -44.148  11.393  23.061  0.00  0.00    -0.049 Br
ENDROOT
BRANCH   1  13
ATOM     13  N   UNL d   1     -48.281  12.616  23.316  0.00  0.00    -0.202 NA
ATOM     14  C   UNL d   1     -49.054  12.387  23.069  0.00  0.00     0.297 C 
ATOM     15  O   UNL d   1     -49.155  11.755  22.926  0.00  0.00    -0.264 OA
BRANCH  14  16
ATOM     16  C   UNL d   1     -49.638  12.960  23.020  0.00  0.00     0.144 C 
BRANCH  16  17
ATOM     17  N   UNL d   1     -49.949  13.153  22.269  0.00  0.00    -0.295 N 
ATOM     18  C   UNL d   1     -50.214  12.557  21.773  0.00  0.00     0.107 A 
ATOM     19  C   UNL d   1     -50.527  12.752  21.015  0.00  0.00     0.142 A 
ATOM     20  O   UNL d   1     -50.568  13.538  20.776  0.00  0.00    -0.300 OA
ATOM     21  C   UNL d   1     -50.290  14.148  21.301  0.00  0.00     0.142 A 
ATOM     22  C   UNL d   1     -49.986  13.945  22.036  0.00  0.00     0.107 A 
ENDBRANCH  16  17
ENDBRANCH  14  16
ENDBRANCH   1  13
BRANCH   2  23
ATOM     23  C   UNL d   1     -46.676  12.997  23.035  0.00  0.00     0.002 A 
ATOM     24  C   UNL d   1     -46.577  13.211  22.249  0.00  0.00     0.000 A 
ATOM     25  C   UNL d   1     -46.361  13.980  22.059  0.00  0.00     0.000 A 
ATOM     26  C   UNL d   1     -46.239  14.556  22.650  0.00  0.00     0.000 A 
ATOM     27  C   UNL d   1     -46.344  14.318  23.446  0.00  0.00     0.000 A 
ATOM     28  C   UNL d   1     -46.560  13.549  23.636  0.00  0.00     0.000 A 
ENDBRANCH   2  23
TORSDOF 4
ENDMDL
MODEL 5
REMARK VINA RESULT:      -7.3      6.955      8.563
REMARK  4 active torsions:
REMARK  status: ('A' for Active; 'I' for Inactive)
REMARK    1  A    between atoms: N_7  and  C_1 
REMARK    2  A    between atoms: C_11  and  C_2 
REMARK       I    between atoms: C_8  and  N_7 
REMARK    3  A    between atoms: C_13  and  C_8 
REMARK    4  A    between atoms: N_9  and  C_13 
ROOT
ATOM      1  C   UNL d   1     -39.345  15.596  19.827  0.00  0.00     0.142 A 
ATOM      2  C   UNL d   1     -40.061  15.472  19.453  0.00  0.00     0.024 A 
ATOM      3  C   UNL d   1     -38.680  15.786  19.377  0.00  0.00     0.297 A 
ATOM      4  C   UNL d   1     -40.132  15.533  18.637  0.00  0.00     0.020 A 
ATOM      5  N   UNL d   1     -38.731  15.852  18.553  0.00  0.00    -0.207 NA
ATOM      6  C   UNL d   1     -39.467  15.723  18.187  0.00  0.00     0.085 A 
ATOM      7  C   UNL d   1     -40.846  15.410  18.266  0.00  0.00     0.008 A 
ATOM      8  O   UNL d   1     -37.943  15.914  19.746  0.00  0.00    -0.264 OA
ATOM      9  C   UNL d   1     -39.516  15.790  17.367  0.00  0.00     0.020 A 
ATOM     10  C   UNL d   1     -40.915  15.472  17.454  0.00  0.00     0.035 A 
ATOM     11  C   UNL d   1     -40.250  15.661  17.004  0.00  0.00     0.008 A 
ATOM     12 BR   UNL d   1     -41.645  15.347  17.059  0.00  0.00    -0.049 Br
ENDROOT
BRANCH   1  13
ATOM     13  N   UNL d   1     -39.265  15.535  20.657  0.00  0.00    -0.202 NA
ATOM     14  C   UNL d   1     -38.654  15.046  20.971  0.00  0.00     0.297 C 
ATOM     15  O   UNL d   1     -38.265  14.731  20.547  0.00  0.00    -0.264 OA
BRANCH  14  16
ATOM     16  C   UNL d   1     -38.576  14.986  21.785  0.00  0.00     0.144 C 
BRANCH  16  17
ATOM     17  N   UNL d   1     -38.527  14.226  22.129  0.00  0.00    -0.295 N 
ATOM     18  C   UNL d   1     -37.999  13.677  21.827  0.00  0.00     0.107 A 
ATOM     19  C   UNL d   1     -37.949  12.911  22.174  0.00  0.00     0.142 A 
ATOM     20  O   UNL d   1     -38.429  12.716  22.814  0.00  0.00    -0.300 OA
ATOM     21  C   UNL d   1     -38.973  13.296  23.118  0.00  0.00     0.142 A 
ATOM     22  C   UNL d   1     -39.012  14.039  22.771  0.00  0.00     0.107 A 
ENDBRANCH  16  17
ENDBRANCH  14  16
ENDBRANCH   1  13
BRANCH   2  23
ATOM     23  C   UNL d   1     -40.741  15.278  19.913  0.00  0.00     0.002 A 
ATOM     24  C   UNL d   1     -41.141  15.868  20.320  0.00  0.00     0.000 A 
ATOM     25  C   UNL d   1     -41.803  15.679  20.767  0.00  0.00     0.000 A 
ATOM     26  C   UNL d   1     -42.083  14.895  20.820  0.00  0.00     0.000 A 
ATOM     27  C   UNL d   1     -41.661  14.307  20.398  0.00  0.00     0.000 A 
ATOM     28  C   UNL d   1     -40.999  14.496  19.951  0.00  0.00     0.000 A 
ENDBRANCH   2  23
TORSDOF 4
ENDMDL
MODEL 6
REMARK VINA RESULT:      -6.7      2.372      4.272
REMARK  4 active torsions:
REMARK  status: ('A' for Active; 'I' for Inactive)
REMARK    1  A    between atoms: N_7  and  C_1 
REMARK    2  A    between atoms: C_11  and  C_2 
REMARK       I    between atoms: C_8  and  N_7 
REMARK    3  A    between atoms: C_13  and  C_8 
REMARK    4  A    between atoms: N_9  and  C_13 
ROOT
ATOM      1  C   UNL d   1     -47.219  13.932  22.896  0.00  0.00     0.142 A 
ATOM      2  C   UNL d   1     -46.808  13.238  22.762  0.00  0.00     0.024 A 
ATOM      3  C   UNL d   1     -46.834  14.655  22.801  0.00  0.00     0.297 A 
ATOM      4  C   UNL d   1     -46.019  13.246  22.534  0.00  0.00     0.020 A 
ATOM      5  N   UNL d   1     -46.039  14.684  22.571  0.00  0.00    -0.207 NA
ATOM      6  C   UNL d   1     -45.635  13.970  22.439  0.00  0.00     0.085 A 
ATOM      7  C   UNL d   1     -45.612  12.554  22.402  0.00  0.00     0.008 A 
ATOM      8  O   UNL d   1     -47.240  15.372  22.934  0.00  0.00    -0.264 OA
ATOM      9  C   UNL d   1     -44.843  14.001  22.211  0.00  0.00     0.020 A 
ATOM     10  C   UNL d   1     -44.827  12.564  22.175  0.00  0.00     0.035 A 
ATOM     11  C   UNL d   1     -44.442  13.288  22.079  0.00  0.00     0.008 A 
ATOM     12 BR   UNL d   1     -44.395  11.858  22.035  0.00  0.00    -0.049 Br
ENDROOT
BRANCH   1  13
ATOM     13  N   UNL d   1     -48.022  13.931  23.128  0.00  0.00    -0.202 NA
ATOM     14  C   UNL d   1     -48.533  14.527  22.820  0.00  0.00     0.297 C 
ATOM     15  O   UNL d   1     -48.277  14.968  22.408  0.00  0.00    -0.264 OA
BRANCH  14  16
ATOM     16  C   UNL d   1     -49.321  14.526  23.048  0.00  0.00     0.144 C 
BRANCH  16  17
ATOM     17  N   UNL d   1     -49.904  14.352  22.476  0.00  0.00    -0.295 N 
ATOM     18  C   UNL d   1     -49.920  14.770  21.771  0.00  0.00     0.107 A 
ATOM     19  C   UNL d   1     -50.508  14.595  21.194  0.00  0.00     0.142 A 
ATOM     20  O   UNL d   1     -51.064  14.006  21.338  0.00  0.00    -0.300 OA
ATOM     21  C   UNL d   1     -51.037  13.578  22.074  0.00  0.00     0.142 A 
ATOM     22  C   UNL d   1     -50.459  13.759  22.628  0.00  0.00     0.107 A 
ENDBRANCH  16  17
ENDBRANCH  14  16
ENDBRANCH   1  13
BRANCH   2  23
ATOM     23  C   UNL d   1     -47.201  12.498  22.860  0.00  0.00     0.002 A 
ATOM     24  C   UNL d   1     -47.562  12.139  22.216  0.00  0.00     0.000 A 
ATOM     25  C   UNL d   1     -47.945  11.419  22.311  0.00  0.00     0.000 A 
ATOM     26  C   UNL d   1     -47.978  11.038  23.053  0.00  0.00     0.000 A 
ATOM     27  C   UNL d   1     -47.604  11.421  23.698  0.00  0.00     0.000 A 
ATOM     28  C   UNL d   1     -47.221  12.141  23.603  0.00  0.00     0.000 A 
ENDBRANCH   2  23
TORSDOF 4
ENDMDL
