MODEL 1
REMARK VINA RESULT:      15.3      0.000      0.000
REMARK  3 active torsions:
REMARK  status: ('A' for Active; 'I' for Inactive)
REMARK    1  A    between atoms: C_3  and  C_1 
REMARK       I    between atoms: N_6  and  C_3 
REMARK    2  A    between atoms: C_12  and  N_5 
REMARK    3  A    between atoms: C_8  and  N_6 
ROOT
ATOM      1  C   UNL d   1      13.773  13.074  -2.979  0.00  0.00     0.348 C 
ATOM      2  N   UNL d   1      13.898  12.671  -2.261  0.00  0.00    -0.362 NA
ATOM      3  O   UNL d   1      13.965  13.902  -3.042  0.00  0.00    -0.249 OA
ENDROOT
BRANCH   1   4
ATOM      4  C   UNL d   1      13.458  12.658  -3.631  0.00  0.00     0.173 A 
ATOM      5  N   UNL d   1      13.617  12.817  -4.432  0.00  0.00    -0.159 NA
ATOM      6  N   UNL d   1      13.186  12.266  -4.884  0.00  0.00    -0.227 N 
ATOM      7  C   UNL d   1      12.770  11.779  -4.367  0.00  0.00     0.102 A 
ATOM      8  C   UNL d   1      12.935  12.017  -3.590  0.00  0.00     0.048 A 
BRANCH   6   9
ATOM      9  C   UNL d   1      13.179  12.220  -5.709  0.00  0.00     0.101 C 
ATOM     10  C   UNL d   1      13.607  11.796  -6.271  0.00  0.00     0.022 C 
ENDBRANCH   6   9
ENDBRANCH   1   4
BRANCH   2  11
ATOM     11  C   UNL d   1      14.061  12.372  -1.506  0.00  0.00     0.146 A 
ATOM     12  C   UNL d   1      14.849  12.334  -1.230  0.00  0.00     0.087 A 
ATOM     13 CL   UNL d   1      15.469  12.601  -1.720  0.00  0.00    -0.080 Cl
ATOM     14  C   UNL d   1      15.009  12.042  -0.492  0.00  0.00     0.014 A 
ATOM     15  C   UNL d   1      14.389  11.780  -0.014  0.00  0.00     0.001 A 
ATOM     16  C   UNL d   1      13.608  11.814  -0.279  0.00  0.00     0.003 A 
ATOM     17  C   UNL d   1      13.442  12.111  -1.030  0.00  0.00     0.033 A 
ENDBRANCH   2  11
TORSDOF 3
ENDMDL
