MODEL 1
REMARK VINA RESULT:      -2.3      0.000      0.000
REMARK  6 active torsions:
REMARK  status: ('A' for Active; 'I' for Inactive)
REMARK    1  A    between atoms: C_2  and  C_1 
REMARK    2  A    between atoms: N_13  and  C_8 
REMARK    3  A    between atoms: C_12  and  C_20 
REMARK    4  A    between atoms: C_20  and  N_13 
REMARK    5  A    between atoms: O_21  and  C_16 
REMARK    6  A    between atoms: C_25  and  O_21 
ROOT
ATOM      1  C   UNL d   1      32.767  21.040 -21.118  0.00  0.00     0.089 A 
ATOM      2  C   UNL d   1      32.926  20.842 -20.334  0.00  0.00     0.302 A 
ATOM      3  O   UNL d   1      32.823  21.407 -19.731  0.00  0.00    -0.271 OA
ATOM      4  C   UNL d   1      32.503  21.804 -21.303  0.00  0.00     0.009 A 
ATOM      5  C   UNL d   1      32.560  22.165 -19.925  0.00  0.00     0.126 A 
ATOM      6  C   UNL d   1      32.400  22.363 -20.709  0.00  0.00     0.025 A 
ATOM      7  O   UNL d   1      33.194  20.073 -20.130  0.00  0.00    -0.259 OA
ATOM      8  C   UNL d   1      32.458  22.724 -19.325  0.00  0.00     0.123 A 
ATOM      9  C   UNL d   1      32.138  23.120 -20.896  0.00  0.00     0.002 A 
ATOM     10  C   UNL d   1      32.035  23.686 -20.292  0.00  0.00     0.002 A 
ATOM     11  C   UNL d   1      32.193  23.490 -19.516  0.00  0.00     0.027 A 
ENDROOT
BRANCH   1  12
ATOM     12  C   UNL d   1      32.869  20.481 -21.712  0.00  0.00     0.140 A 
ATOM     13  S   UNL d   1      32.644  19.676 -21.712  0.00  0.00    -0.026 SA
ATOM     14  C   UNL d   1      32.868  19.349 -22.435  0.00  0.00     0.216 A 
ATOM     15  N   UNL d   1      33.230  19.952 -22.878  0.00  0.00    -0.121 NA
ATOM     16  N   UNL d   1      33.231  20.647 -22.432  0.00  0.00    -0.139 NA
BRANCH  14  17
ATOM     17  N   UNL d   1      32.756  18.569 -22.681  0.00  0.00    -0.216 NA
BRANCH  17  18
ATOM     18  C   UNL d   1      32.449  18.414 -23.436  0.00  0.00     0.126 C 
BRANCH  18  19
ATOM     19  C   UNL d   1      32.061  17.702 -23.588  0.00  0.00     0.119 A 
ATOM     20  O   UNL d   1      31.648  17.179 -23.105  0.00  0.00    -0.304 OA
ATOM     21  C   UNL d   1      31.380  16.556 -23.569  0.00  0.00     0.123 A 
ATOM     22  C   UNL d   1      31.622  16.686 -24.338  0.00  0.00     0.029 A 
ATOM     23  C   UNL d   1      32.047  17.398 -24.358  0.00  0.00     0.028 A 
ENDBRANCH  18  19
ENDBRANCH  17  18
ENDBRANCH  14  17
ENDBRANCH   1  12
BRANCH   8  24
ATOM     24  O   UNL d   1      32.620  22.518 -18.542  0.00  0.00    -0.303 OA
BRANCH  24  25
ATOM     25  C   UNL d   1      32.952  23.085 -18.034  0.00  0.00     0.123 C 
ATOM     26  C   UNL d   1      33.163  22.867 -17.267  0.00  0.00     0.029 C 
ENDBRANCH  24  25
ENDBRANCH   8  24
TORSDOF 6
ENDMDL
MODEL 2
REMARK VINA RESULT:      -2.2      1.099      6.095
REMARK  6 active torsions:
REMARK  status: ('A' for Active; 'I' for Inactive)
REMARK    1  A    between atoms: C_2  and  C_1 
REMARK    2  A    between atoms: N_13  and  C_8 
REMARK    3  A    between atoms: C_12  and  C_20 
REMARK    4  A    between atoms: C_20  and  N_13 
REMARK    5  A    between atoms: O_21  and  C_16 
REMARK    6  A    between atoms: C_25  and  O_21 
ROOT
ATOM      1  C   UNL d   1      32.573  18.474 -23.287  0.00  0.00     0.089 A 
ATOM      2  C   UNL d   1      31.934  18.342 -23.790  0.00  0.00     0.302 A 
ATOM      3  O   UNL d   1      31.696  17.563 -23.966  0.00  0.00    -0.271 OA
ATOM      4  C   UNL d   1      32.978  17.828 -22.958  0.00  0.00     0.009 A 
ATOM      5  C   UNL d   1      32.105  16.927 -23.635  0.00  0.00     0.126 A 
ATOM      6  C   UNL d   1      32.744  17.060 -23.132  0.00  0.00     0.025 A 
ATOM      7  O   UNL d   1      31.514  18.983 -24.130  0.00  0.00    -0.259 OA
ATOM      8  C   UNL d   1      31.866  16.157 -23.813  0.00  0.00     0.123 A 
ATOM      9  C   UNL d   1      33.148  16.422 -22.804  0.00  0.00     0.002 A 
ATOM     10  C   UNL d   1      32.909  15.643 -22.982  0.00  0.00     0.002 A 
ATOM     11  C   UNL d   1      32.276  15.512 -23.480  0.00  0.00     0.027 A 
ENDROOT
BRANCH   1  12
ATOM     12  C   UNL d   1      32.807  19.243 -23.113  0.00  0.00     0.140 A 
ATOM     13  S   UNL d   1      32.843  19.619 -22.368  0.00  0.00    -0.026 SA
ATOM     14  C   UNL d   1      33.112  20.389 -22.483  0.00  0.00     0.216 A 
ATOM     15  N   UNL d   1      33.241  20.487 -23.299  0.00  0.00    -0.121 NA
ATOM     16  N   UNL d   1      33.053  19.781 -23.685  0.00  0.00    -0.139 NA
BRANCH  14  17
ATOM     17  N   UNL d   1      33.233  20.963 -21.903  0.00  0.00    -0.216 NA
BRANCH  17  18
ATOM     18  C   UNL d   1      32.748  20.978 -21.230  0.00  0.00     0.126 C 
BRANCH  18  19
ATOM     19  C   UNL d   1      32.807  21.599 -20.690  0.00  0.00     0.119 A 
ATOM     20  O   UNL d   1      33.205  21.680 -19.975  0.00  0.00    -0.304 OA
ATOM     21  C   UNL d   1      33.059  22.432 -19.680  0.00  0.00     0.123 A 
ATOM     22  C   UNL d   1      32.572  22.824 -20.207  0.00  0.00     0.029 A 
ATOM     23  C   UNL d   1      32.410  22.311 -20.839  0.00  0.00     0.028 A 
ENDBRANCH  18  19
ENDBRANCH  17  18
ENDBRANCH  14  17
ENDBRANCH   1  12
BRANCH   8  24
ATOM     24  O   UNL d   1      31.225  16.032 -24.317  0.00  0.00    -0.303 OA
BRANCH  24  25
ATOM     25  C   UNL d   1      30.662  15.453 -24.123  0.00  0.00     0.123 C 
ATOM     26  C   UNL d   1      29.905  15.499 -24.447  0.00  0.00     0.029 C 
ENDBRANCH  24  25
ENDBRANCH   8  24
TORSDOF 6
ENDMDL
MODEL 3
REMARK VINA RESULT:      -2.1      2.508      3.597
REMARK  6 active torsions:
REMARK  status: ('A' for Active; 'I' for Inactive)
REMARK    1  A    between atoms: C_2  and  C_1 
REMARK    2  A    between atoms: N_13  and  C_8 
REMARK    3  A    between atoms: C_12  and  C_20 
REMARK    4  A    between atoms: C_20  and  N_13 
REMARK    5  A    between atoms: O_21  and  C_16 
REMARK    6  A    between atoms: C_25  and  O_21 
ROOT
ATOM      1  C   UNL d   1      32.760  18.676 -23.170  0.00  0.00     0.089 A 
ATOM      2  C   UNL d   1      32.787  19.265 -23.746  0.00  0.00     0.302 A 
ATOM      3  O   UNL d   1      32.915  20.058 -23.527  0.00  0.00    -0.271 OA
ATOM      4  C   UNL d   1      32.861  18.878 -22.371  0.00  0.00     0.009 A 
ATOM      5  C   UNL d   1      33.014  20.249 -22.730  0.00  0.00     0.126 A 
ATOM      6  C   UNL d   1      32.987  19.661 -22.154  0.00  0.00     0.025 A 
ATOM      7  O   UNL d   1      32.687  19.077 -24.557  0.00  0.00    -0.259 OA
ATOM      8  C   UNL d   1      33.140  21.037 -22.516  0.00  0.00     0.123 A 
ATOM      9  C   UNL d   1      33.086  19.857 -21.361  0.00  0.00     0.002 A 
ATOM     10  C   UNL d   1      33.214  20.652 -21.143  0.00  0.00     0.002 A 
ATOM     11  C   UNL d   1      33.240  21.235 -21.713  0.00  0.00     0.027 A 
ENDROOT
BRANCH   1  12
ATOM     12  C   UNL d   1      32.634  17.893 -23.387  0.00  0.00     0.140 A 
ATOM     13  S   UNL d   1      31.911  17.512 -23.561  0.00  0.00    -0.026 SA
ATOM     14  C   UNL d   1      32.074  16.727 -23.750  0.00  0.00     0.216 A 
ATOM     15  N   UNL d   1      32.898  16.625 -23.692  0.00  0.00    -0.121 NA
ATOM     16  N   UNL d   1      33.241  17.343 -23.469  0.00  0.00    -0.139 NA
BRANCH  14  17
ATOM     17  N   UNL d   1      31.529  16.144 -23.958  0.00  0.00    -0.216 NA
BRANCH  17  18
ATOM     18  C   UNL d   1      30.765  16.161 -23.636  0.00  0.00     0.126 C 
BRANCH  18  19
ATOM     19  C   UNL d   1      30.119  15.916 -24.088  0.00  0.00     0.119 A 
ATOM     20  O   UNL d   1      30.041  15.708 -24.880  0.00  0.00    -0.304 OA
ATOM     21  C   UNL d   1      29.256  15.509 -25.018  0.00  0.00     0.123 A 
ATOM     22  C   UNL d   1      28.843  15.591 -24.319  0.00  0.00     0.029 A 
ATOM     23  C   UNL d   1      29.374  15.844 -23.734  0.00  0.00     0.028 A 
ENDBRANCH  18  19
ENDBRANCH  17  18
ENDBRANCH  14  17
ENDBRANCH   1  12
BRANCH   8  24
ATOM     24  O   UNL d   1      33.166  21.621 -23.099  0.00  0.00    -0.303 OA
BRANCH  24  25
ATOM     25  C   UNL d   1      32.824  22.362 -22.946  0.00  0.00     0.123 C 
ATOM     26  C   UNL d   1      32.698  22.886 -23.570  0.00  0.00     0.029 C 
ENDBRANCH  24  25
ENDBRANCH   8  24
TORSDOF 6
ENDMDL
MODEL 4
REMARK VINA RESULT:      -1.5      1.289      5.671
REMARK  6 active torsions:
REMARK  status: ('A' for Active; 'I' for Inactive)
REMARK    1  A    between atoms: C_2  and  C_1 
REMARK    2  A    between atoms: N_13  and  C_8 
REMARK    3  A    between atoms: C_12  and  C_20 
REMARK    4  A    between atoms: C_20  and  N_13 
REMARK    5  A    between atoms: O_21  and  C_16 
REMARK    6  A    between atoms: C_25  and  O_21 
ROOT
ATOM      1  C   UNL d   1      33.062  20.132 -22.764  0.00  0.00     0.089 A 
ATOM      2  C   UNL d   1      33.084  19.489 -22.249  0.00  0.00     0.302 A 
ATOM      3  O   UNL d   1      33.026  18.714 -22.548  0.00  0.00    -0.271 OA
ATOM      4  C   UNL d   1      32.981  20.004 -23.580  0.00  0.00     0.009 A 
ATOM      5  C   UNL d   1      32.945  18.595 -23.361  0.00  0.00     0.126 A 
ATOM      6  C   UNL d   1      32.923  19.239 -23.875  0.00  0.00     0.025 A 
ATOM      7  O   UNL d   1      33.166  19.603 -21.422  0.00  0.00    -0.259 OA
ATOM      8  C   UNL d   1      32.888  17.825 -23.653  0.00  0.00     0.123 A 
ATOM      9  C   UNL d   1      32.843  19.115 -24.685  0.00  0.00     0.002 A 
ATOM     10  C   UNL d   1      32.784  18.338 -24.982  0.00  0.00     0.002 A 
ATOM     11  C   UNL d   1      32.806  17.701 -24.473  0.00  0.00     0.027 A 
ENDROOT
BRANCH   1  12
ATOM     12  C   UNL d   1      33.120  20.897 -22.468  0.00  0.00     0.140 A 
ATOM     13  S   UNL d   1      33.141  21.146 -21.671  0.00  0.00    -0.026 SA
ATOM     14  C   UNL d   1      33.202  21.968 -21.661  0.00  0.00     0.216 A 
ATOM     15  N   UNL d   1      33.218  22.225 -22.452  0.00  0.00    -0.121 NA
ATOM     16  N   UNL d   1      33.168  21.565 -22.947  0.00  0.00    -0.139 NA
BRANCH  14  17
ATOM     17  N   UNL d   1      33.241  22.453 -20.994  0.00  0.00    -0.216 NA
BRANCH  17  18
ATOM     18  C   UNL d   1      32.702  22.344 -20.373  0.00  0.00     0.126 C 
BRANCH  18  19
ATOM     19  C   UNL d   1      32.750  22.813 -19.696  0.00  0.00     0.119 A 
ATOM     20  O   UNL d   1      33.223  23.455 -19.495  0.00  0.00    -0.304 OA
ATOM     21  C   UNL d   1      33.020  23.699 -18.738  0.00  0.00     0.123 A 
ATOM     22  C   UNL d   1      32.424  23.214 -18.463  0.00  0.00     0.029 A 
ATOM     23  C   UNL d   1      32.249  22.659 -19.054  0.00  0.00     0.028 A 
ENDBRANCH  18  19
ENDBRANCH  17  18
ENDBRANCH  14  17
ENDBRANCH   1  12
BRANCH   8  24
ATOM     24  O   UNL d   1      32.911  17.186 -23.132  0.00  0.00    -0.303 OA
BRANCH  24  25
ATOM     25  C   UNL d   1      32.763  16.421 -23.421  0.00  0.00     0.123 C 
ATOM     26  C   UNL d   1      32.839  15.775 -22.913  0.00  0.00     0.029 C 
ENDBRANCH  24  25
ENDBRANCH   8  24
TORSDOF 6
ENDMDL
MODEL 5
REMARK VINA RESULT:      -0.1      1.748      5.690
REMARK  6 active torsions:
REMARK  status: ('A' for Active; 'I' for Inactive)
REMARK    1  A    between atoms: C_2  and  C_1 
REMARK    2  A    between atoms: N_13  and  C_8 
REMARK    3  A    between atoms: C_12  and  C_20 
REMARK    4  A    between atoms: C_20  and  N_13 
REMARK    5  A    between atoms: O_21  and  C_16 
REMARK    6  A    between atoms: C_25  and  O_21 
ROOT
ATOM      1  C   UNL d   1      33.003  21.299 -22.130  0.00  0.00     0.089 A 
ATOM      2  C   UNL d   1      32.783  21.274 -22.924  0.00  0.00     0.302 A 
ATOM      3  O   UNL d   1      32.715  20.542 -23.316  0.00  0.00    -0.271 OA
ATOM      4  C   UNL d   1      33.156  20.591 -21.724  0.00  0.00     0.009 A 
ATOM      5  C   UNL d   1      32.868  19.844 -22.904  0.00  0.00     0.126 A 
ATOM      6  C   UNL d   1      33.088  19.868 -22.110  0.00  0.00     0.025 A 
ATOM      7  O   UNL d   1      32.625  21.980 -23.348  0.00  0.00    -0.259 OA
ATOM      8  C   UNL d   1      32.799  19.120 -23.295  0.00  0.00     0.123 A 
ATOM      9  C   UNL d   1      33.240  19.169 -21.704  0.00  0.00     0.002 A 
ATOM     10  C   UNL d   1      33.171  18.437 -22.098  0.00  0.00     0.002 A 
ATOM     11  C   UNL d   1      32.953  18.413 -22.884  0.00  0.00     0.027 A 
ENDROOT
BRANCH   1  12
ATOM     12  C   UNL d   1      33.070  22.022 -21.745  0.00  0.00     0.140 A 
ATOM     13  S   UNL d   1      33.017  22.180 -20.926  0.00  0.00    -0.026 SA
ATOM     14  C   UNL d   1      33.122  22.991 -20.815  0.00  0.00     0.216 A 
ATOM     15  N   UNL d   1      33.241  23.329 -21.566  0.00  0.00    -0.121 NA
ATOM     16  N   UNL d   1      33.209  22.732 -22.136  0.00  0.00    -0.139 NA
BRANCH  14  17
ATOM     17  N   UNL d   1      33.114  23.397 -20.098  0.00  0.00    -0.216 NA
BRANCH  17  18
ATOM     18  C   UNL d   1      32.508  23.253 -19.549  0.00  0.00     0.126 C 
BRANCH  18  19
ATOM     19  C   UNL d   1      32.675  23.239 -18.741  0.00  0.00     0.119 A 
ATOM     20  O   UNL d   1      33.236  22.835 -18.295  0.00  0.00    -0.304 OA
ATOM     21  C   UNL d   1      33.138  23.043 -17.507  0.00  0.00     0.123 A 
ATOM     22  C   UNL d   1      32.520  23.575 -17.456  0.00  0.00     0.029 A 
ATOM     23  C   UNL d   1      32.226  23.702 -18.221  0.00  0.00     0.028 A 
ENDBRANCH  18  19
ENDBRANCH  17  18
ENDBRANCH  14  17
ENDBRANCH   1  12
BRANCH   8  24
ATOM     24  O   UNL d   1      32.578  19.104 -24.090  0.00  0.00    -0.303 OA
BRANCH  24  25
ATOM     25  C   UNL d   1      31.920  18.651 -24.320  0.00  0.00     0.123 C 
ATOM     26  C   UNL d   1      31.898  18.325 -25.077  0.00  0.00     0.029 C 
ENDBRANCH  24  25
ENDBRANCH   8  24
TORSDOF 6
ENDMDL
