MODEL 1
REMARK VINA RESULT:      63.7      0.000      0.000
REMARK  5 active torsions:
REMARK  status: ('A' for Active; 'I' for Inactive)
REMARK    1  A    between atoms: N_2  and  S_1 
REMARK    2  A    between atoms: C_10  and  S_1 
REMARK    3  A    between atoms: C_4  and  C_3 
REMARK       I    between atoms: N_5  and  C_4 
REMARK    4  A    between atoms: C_6  and  N_5 
REMARK    5  A    between atoms: O_24  and  C_21 
ROOT
ATOM      1  N   UNL d   1      13.818  13.664  -3.553  0.00  0.00    -0.226 N 
ATOM      2  C   UNL d   1      13.686  12.919  -3.197  0.00  0.00     0.133 A 
ATOM      3  C   UNL d   1      13.653  13.773  -4.351  0.00  0.00     0.092 A 
ATOM      4  C   UNL d   1      13.391  12.291  -3.643  0.00  0.00     0.023 A 
ATOM      5  C   UNL d   1      13.357  13.148  -4.804  0.00  0.00     0.018 A 
ATOM      6  C   UNL d   1      13.227  12.404  -4.444  0.00  0.00     0.003 A 
ATOM      7  C   UNL d   1      13.191  13.252  -5.600  0.00  0.00     0.002 A 
ATOM      8  C   UNL d   1      12.931  11.779  -4.897  0.00  0.00     0.000 A 
ATOM      9  C   UNL d   1      12.898  12.630  -6.045  0.00  0.00     0.000 A 
ATOM     10  C   UNL d   1      12.769  11.898  -5.695  0.00  0.00     0.000 A 
ENDROOT
BRANCH   1  11
ATOM     11  S   UNL d   1      14.117  14.292  -3.092  0.00  0.00     0.271 S 
ATOM     12  O   UNL d   1      13.350  14.542  -2.952  0.00  0.00    -0.200 OA
ATOM     13  O   UNL d   1      14.876  14.032  -3.240  0.00  0.00    -0.200 OA
BRANCH  11  14
ATOM     14  C   UNL d   1      14.408  14.910  -2.639  0.00  0.00     0.104 A 
ATOM     15  C   UNL d   1      14.580  14.788  -1.839  0.00  0.00     0.015 A 
ATOM     16  C   UNL d   1      14.871  15.407  -1.386  0.00  0.00     0.025 A 
ATOM     17  C   UNL d   1      14.993  16.151  -1.724  0.00  0.00     0.094 A 
ATOM     18  C   UNL d   1      14.819  16.266  -2.520  0.00  0.00     0.025 A 
ATOM     19  C   UNL d   1      14.526  15.647  -2.984  0.00  0.00     0.015 A 
BRANCH  17  20
ATOM     20  O   UNL d   1      15.284  16.770  -1.271  0.00  0.00    -0.328 OA
ATOM     21  C   UNL d   1      15.207  16.748  -0.447  0.00  0.00     0.181 C 
ENDBRANCH  17  20
ENDBRANCH  11  14
ENDBRANCH   1  11
BRANCH   2  22
ATOM     22  C   UNL d   1      13.855  12.813  -2.391  0.00  0.00     0.298 C 
ATOM     23  N   UNL d   1      14.489  12.340  -2.166  0.00  0.00    -0.181 NA
ATOM     24  O   UNL d   1      13.384  13.184  -1.820  0.00  0.00    -0.264 OA
BRANCH  23  25
ATOM     25  C   UNL d   1      14.659  12.233  -1.368  0.00  0.00     0.197 A 
ATOM     26  N   UNL d   1      15.373  12.449  -0.839  0.00  0.00    -0.219 NA
ATOM     27  C   UNL d   1      15.195  12.170  -0.015  0.00  0.00     0.108 A 
ATOM     28  C   UNL d   1      14.379  11.780  -0.014  0.00  0.00     0.059 A 
ATOM     29  S   UNL d   1      14.047  11.818  -0.848  0.00  0.00    -0.046 SA
ENDBRANCH  23  25
ENDBRANCH   2  22
TORSDOF 5
ENDMDL
