MODEL 1
REMARK VINA RESULT:     208.6      0.000      0.000
REMARK  5 active torsions:
REMARK  status: ('A' for Active; 'I' for Inactive)
REMARK    1  A    between atoms: N_3  and  S_1 
REMARK    2  A    between atoms: C_13  and  S_1 
REMARK    3  A    between atoms: C_2  and  N_3 
REMARK    4  A    between atoms: N_9  and  C_4 
REMARK       I    between atoms: C_8  and  N_10 
REMARK    5  A    between atoms: C_19  and  C_8 
ROOT
ATOM      1  C   UNL d   1     -55.394-102.173 -40.836  0.00  0.00     0.110 A 
ATOM      2  C   UNL d   1     -56.437-102.054 -41.002  0.00  0.00     0.083 A 
ATOM      3  C   UNL d   1     -55.378-102.417 -40.053  0.00  0.00     0.020 A 
ATOM      4  C   UNL d   1     -56.770-102.259 -40.275  0.00  0.00     0.018 A 
ATOM      5  C   UNL d   1     -56.142-102.453 -39.778  0.00  0.00     0.003 A 
ATOM      6  C   UNL d   1     -56.289-102.685 -39.001  0.00  0.00     0.000 A 
ATOM      7  C   UNL d   1     -54.735-102.610 -39.563  0.00  0.00     0.002 A 
ATOM      8  C   UNL d   1     -57.532-102.295 -40.000  0.00  0.00     0.002 A 
ATOM      9  C   UNL d   1     -54.898-102.843 -38.779  0.00  0.00     0.000 A 
ATOM     10  C   UNL d   1     -57.699-102.528 -39.214  0.00  0.00     0.000 A 
ATOM     11  C   UNL d   1     -55.669-102.880 -38.500  0.00  0.00     0.000 A 
ATOM     12  C   UNL d   1     -57.059-102.722 -38.723  0.00  0.00     0.000 A 
ENDROOT
BRANCH   2  13
ATOM     13  N   UNL d   1     -56.923-101.831 -41.621  0.00  0.00    -0.300 N 
ATOM     14  C   UNL d   1     -57.153-102.391 -42.180  0.00  0.00     0.100 A 
ATOM     15  C   UNL d   1     -57.625-102.166 -42.777  0.00  0.00     0.102 A 
ATOM     16  N   UNL d   1     -57.909-101.373 -42.873  0.00  0.00    -0.269 N 
ATOM     17  C   UNL d   1     -58.399-101.134 -43.491  0.00  0.00     0.265 C 
ATOM     18  C   UNL d   1     -57.681-100.820 -42.319  0.00  0.00     0.102 A 
ATOM     19  O   UNL d   1     -58.662-101.653 -44.082  0.00  0.00    -0.267 OA
ATOM     20  C   UNL d   1     -57.163-101.060 -41.662  0.00  0.00     0.100 A 
BRANCH  17  21
ATOM     21  C   UNL d   1     -58.634-100.350 -43.520  0.00  0.00     0.057 A 
ATOM     22  C   UNL d   1     -58.096 -99.745 -43.717  0.00  0.00     0.005 A 
ATOM     23  C   UNL d   1     -58.342 -98.951 -43.744  0.00  0.00     0.000 A 
ATOM     24  C   UNL d   1     -59.135 -98.755 -43.573  0.00  0.00     0.000 A 
ATOM     25  C   UNL d   1     -59.667 -99.359 -43.377  0.00  0.00     0.000 A 
ATOM     26  C   UNL d   1     -59.416-100.149 -43.352  0.00  0.00     0.005 A 
ENDBRANCH  17  21
ENDBRANCH   2  13
BRANCH   1  27
ATOM     27  N   UNL d   1     -54.711-102.082 -41.270  0.00  0.00    -0.157 NA
BRANCH  27  28
ATOM     28  S   UNL d   1     -54.725-101.790 -42.039  0.00  0.00     0.285 S 
ATOM     29  O   UNL d   1     -54.712-102.563 -42.324  0.00  0.00    -0.198 OA
ATOM     30  O   UNL d   1     -54.738-101.024 -41.750  0.00  0.00    -0.198 OA
BRANCH  28  31
ATOM     31  C   UNL d   1     -54.739-101.505 -42.805  0.00  0.00     0.105 A 
ATOM     32  C   UNL d   1     -54.712-100.691 -42.951  0.00  0.00     0.013 A 
ATOM     33  C   UNL d   1     -54.726-100.410 -43.719  0.00  0.00     0.001 A 
ATOM     34  C   UNL d   1     -54.766-100.930 -44.346  0.00  0.00     0.000 A 
ATOM     35  C   UNL d   1     -54.794-101.760 -44.215  0.00  0.00     0.001 A 
ATOM     36  C   UNL d   1     -54.779-102.028 -43.435  0.00  0.00     0.013 A 
ENDBRANCH  28  31
ENDBRANCH  27  28
ENDBRANCH   1  27
TORSDOF 5
ENDMDL
