MODEL 1
REMARK VINA RESULT:      -3.5      0.000      0.000
REMARK  3 active torsions:
REMARK  status: ('A' for Active; 'I' for Inactive)
REMARK    1  A    between atoms: C_5  and  C_4 
REMARK    2  A    between atoms: C_6  and  C_5 
REMARK       I    between atoms: N_9  and  C_6 
REMARK    3  A    between atoms: C_12  and  N_9 
ROOT
ATOM      1  N   UNL d   1      30.493  15.555 -23.123  0.00  0.00    -0.205 NA
ATOM      2  C   UNL d   1      31.209  15.847 -23.413  0.00  0.00     0.297 A 
ATOM      3  N   UNL d   1      30.530  16.895 -24.129  0.00  0.00    -0.239 NA
ATOM      4  C   UNL d   1      31.227  16.506 -23.907  0.00  0.00     0.144 A 
ATOM      5  C   UNL d   1      29.791  15.940 -23.341  0.00  0.00     0.102 A 
ATOM      6  C   UNL d   1      29.809  16.599 -23.835  0.00  0.00     0.099 A 
ATOM      7  O   UNL d   1      31.906  15.463 -23.194  0.00  0.00    -0.264 OA
ATOM      8  C   UNL d   1      29.064  15.649 -23.050  0.00  0.00     0.021 A 
ATOM      9  C   UNL d   1      29.101  16.989 -24.057  0.00  0.00     0.021 A 
ATOM     10  C   UNL d   1      28.367  16.034 -23.268  0.00  0.00     0.002 A 
ATOM     11  C   UNL d   1      28.385  16.693 -23.763  0.00  0.00     0.002 A 
ENDROOT
BRANCH   4  12
ATOM     12  C   UNL d   1      31.943  16.802 -24.201  0.00  0.00     0.086 C 
BRANCH  12  13
ATOM     13  C   UNL d   1      32.112  17.608 -24.120  0.00  0.00     0.281 C 
ATOM     14  N   UNL d   1      32.673  17.834 -23.593  0.00  0.00    -0.208 NA
ATOM     15  O   UNL d   1      31.719  18.165 -24.565  0.00  0.00    -0.265 OA
BRANCH  14  16
ATOM     16  C   UNL d   1      32.859  18.648 -23.497  0.00  0.00     0.085 A 
ATOM     17  C   UNL d   1      33.045  19.104 -24.131  0.00  0.00     0.019 A 
ATOM     18  C   UNL d   1      33.228  19.909 -24.031  0.00  0.00     0.002 A 
ATOM     19  C   UNL d   1      33.213  20.218 -23.278  0.00  0.00     0.000 A 
ATOM     20  C   UNL d   1      33.027  19.768 -22.640  0.00  0.00     0.002 A 
ATOM     21  C   UNL d   1      32.850  18.983 -22.749  0.00  0.00     0.019 A 
ENDBRANCH  14  16
ENDBRANCH  12  13
ENDBRANCH   4  12
TORSDOF 3
ENDMDL
MODEL 2
REMARK VINA RESULT:      -3.3      2.557      5.315
REMARK  3 active torsions:
REMARK  status: ('A' for Active; 'I' for Inactive)
REMARK    1  A    between atoms: C_5  and  C_4 
REMARK    2  A    between atoms: C_6  and  C_5 
REMARK       I    between atoms: N_9  and  C_6 
REMARK    3  A    between atoms: C_12  and  N_9 
ROOT
ATOM      1  N   UNL d   1      32.478  21.813 -20.835  0.00  0.00    -0.205 NA
ATOM      2  C   UNL d   1      32.663  21.017 -20.957  0.00  0.00     0.297 A 
ATOM      3  N   UNL d   1      33.188  21.306 -22.267  0.00  0.00    -0.239 NA
ATOM      4  C   UNL d   1      33.012  20.768 -21.661  0.00  0.00     0.144 A 
ATOM      5  C   UNL d   1      32.651  22.357 -21.438  0.00  0.00     0.102 A 
ATOM      6  C   UNL d   1      33.000  22.108 -22.141  0.00  0.00     0.099 A 
ATOM      7  O   UNL d   1      32.490  20.478 -20.357  0.00  0.00    -0.264 OA
ATOM      8  C   UNL d   1      32.466  23.163 -21.320  0.00  0.00     0.021 A 
ATOM      9  C   UNL d   1      33.176  22.655 -22.751  0.00  0.00     0.021 A 
ATOM     10  C   UNL d   1      32.640  23.702 -21.920  0.00  0.00     0.002 A 
ATOM     11  C   UNL d   1      32.988  23.453 -22.624  0.00  0.00     0.002 A 
ENDROOT
BRANCH   4  12
ATOM     12  C   UNL d   1      33.199  19.971 -21.788  0.00  0.00     0.086 C 
BRANCH  12  13
ATOM     13  C   UNL d   1      32.854  19.570 -22.424  0.00  0.00     0.281 C 
ATOM     14  N   UNL d   1      33.240  18.939 -22.737  0.00  0.00    -0.208 NA
ATOM     15  O   UNL d   1      32.138  19.805 -22.729  0.00  0.00    -0.265 OA
BRANCH  14  16
ATOM     16  C   UNL d   1      32.906  18.518 -23.383  0.00  0.00     0.085 A 
ATOM     17  C   UNL d   1      33.032  18.759 -24.139  0.00  0.00     0.019 A 
ATOM     18  C   UNL d   1      32.700  18.340 -24.775  0.00  0.00     0.002 A 
ATOM     19  C   UNL d   1      32.246  17.684 -24.611  0.00  0.00     0.000 A 
ATOM     20  C   UNL d   1      32.116  17.437 -23.858  0.00  0.00     0.002 A 
ATOM     21  C   UNL d   1      32.445  17.855 -23.244  0.00  0.00     0.019 A 
ENDBRANCH  14  16
ENDBRANCH  12  13
ENDBRANCH   4  12
TORSDOF 3
ENDMDL
MODEL 3
REMARK VINA RESULT:      -2.4      1.624      2.691
REMARK  3 active torsions:
REMARK  status: ('A' for Active; 'I' for Inactive)
REMARK    1  A    between atoms: C_5  and  C_4 
REMARK    2  A    between atoms: C_6  and  C_5 
REMARK       I    between atoms: N_9  and  C_6 
REMARK    3  A    between atoms: C_12  and  N_9 
ROOT
ATOM      1  N   UNL d   1      31.646  17.873 -24.867  0.00  0.00    -0.205 NA
ATOM      2  C   UNL d   1      32.223  18.413 -24.628  0.00  0.00     0.297 A 
ATOM      3  N   UNL d   1      32.533  17.621 -23.467  0.00  0.00    -0.239 NA
ATOM      4  C   UNL d   1      32.659  18.289 -23.940  0.00  0.00     0.144 A 
ATOM      5  C   UNL d   1      31.514  17.201 -24.398  0.00  0.00     0.102 A 
ATOM      6  C   UNL d   1      31.950  17.077 -23.710  0.00  0.00     0.099 A 
ATOM      7  O   UNL d   1      32.353  19.081 -25.096  0.00  0.00    -0.264 OA
ATOM      8  C   UNL d   1      30.932  16.651 -24.635  0.00  0.00     0.021 A 
ATOM      9  C   UNL d   1      31.818  16.399 -23.235  0.00  0.00     0.021 A 
ATOM     10  C   UNL d   1      30.802  15.984 -24.167  0.00  0.00     0.002 A 
ATOM     11  C   UNL d   1      31.238  15.860 -23.478  0.00  0.00     0.002 A 
ENDROOT
BRANCH   4  12
ATOM     12  C   UNL d   1      33.239  18.829 -23.696  0.00  0.00     0.086 C 
BRANCH  12  13
ATOM     13  C   UNL d   1      33.164  19.200 -22.962  0.00  0.00     0.281 C 
ATOM     14  N   UNL d   1      33.241  19.998 -22.923  0.00  0.00    -0.208 NA
ATOM     15  O   UNL d   1      33.014  18.770 -22.288  0.00  0.00    -0.265 OA
BRANCH  14  16
ATOM     16  C   UNL d   1      33.168  20.395 -22.186  0.00  0.00     0.085 A 
ATOM     17  C   UNL d   1      33.156  19.981 -21.497  0.00  0.00     0.019 A 
ATOM     18  C   UNL d   1      33.083  20.378 -20.770  0.00  0.00     0.002 A 
ATOM     19  C   UNL d   1      33.026  21.190 -20.777  0.00  0.00     0.000 A 
ATOM     20  C   UNL d   1      33.037  21.609 -21.461  0.00  0.00     0.002 A 
ATOM     21  C   UNL d   1      33.108  21.212 -22.165  0.00  0.00     0.019 A 
ENDBRANCH  14  16
ENDBRANCH  12  13
ENDBRANCH   4  12
TORSDOF 3
ENDMDL
MODEL 4
REMARK VINA RESULT:      -1.6      1.123      1.461
REMARK  3 active torsions:
REMARK  status: ('A' for Active; 'I' for Inactive)
REMARK    1  A    between atoms: C_5  and  C_4 
REMARK    2  A    between atoms: C_6  and  C_5 
REMARK       I    between atoms: N_9  and  C_6 
REMARK    3  A    between atoms: C_12  and  N_9 
ROOT
ATOM      1  N   UNL d   1      29.260  15.453 -22.886  0.00  0.00    -0.205 NA
ATOM      2  C   UNL d   1      30.083  15.511 -22.845  0.00  0.00     0.297 A 
ATOM      3  N   UNL d   1      30.174  15.683 -24.272  0.00  0.00    -0.239 NA
ATOM      4  C   UNL d   1      30.532  15.624 -23.527  0.00  0.00     0.144 A 
ATOM      5  C   UNL d   1      28.895  15.511 -23.629  0.00  0.00     0.102 A 
ATOM      6  C   UNL d   1      29.344  15.624 -24.310  0.00  0.00     0.099 A 
ATOM      7  O   UNL d   1      30.444  15.453 -22.105  0.00  0.00    -0.264 OA
ATOM      8  C   UNL d   1      28.063  15.453 -23.675  0.00  0.00     0.021 A 
ATOM      9  C   UNL d   1      28.977  15.683 -25.061  0.00  0.00     0.021 A 
ATOM     10  C   UNL d   1      27.702  15.511 -24.416  0.00  0.00     0.002 A 
ATOM     11  C   UNL d   1      28.151  15.624 -25.097  0.00  0.00     0.002 A 
ENDROOT
BRANCH   4  12
ATOM     12  C   UNL d   1      31.358  15.683 -23.491  0.00  0.00     0.086 C 
BRANCH  12  13
ATOM     13  C   UNL d   1      31.735  16.319 -23.862  0.00  0.00     0.281 C 
ATOM     14  N   UNL d   1      31.839  16.999 -23.448  0.00  0.00    -0.208 NA
ATOM     15  O   UNL d   1      31.997  16.261 -24.629  0.00  0.00    -0.265 OA
BRANCH  14  16
ATOM     16  C   UNL d   1      32.220  17.657 -23.807  0.00  0.00     0.085 A 
ATOM     17  C   UNL d   1      31.963  17.947 -24.511  0.00  0.00     0.019 A 
ATOM     18  C   UNL d   1      32.343  18.598 -24.861  0.00  0.00     0.002 A 
ATOM     19  C   UNL d   1      32.978  18.929 -24.475  0.00  0.00     0.000 A 
ATOM     20  C   UNL d   1      33.241  18.645 -23.772  0.00  0.00     0.002 A 
ATOM     21  C   UNL d   1      32.862  18.009 -23.438  0.00  0.00     0.019 A 
ENDBRANCH  14  16
ENDBRANCH  12  13
ENDBRANCH   4  12
TORSDOF 3
ENDMDL
MODEL 5
REMARK VINA RESULT:      -1.5      3.523      6.162
REMARK  3 active torsions:
REMARK  status: ('A' for Active; 'I' for Inactive)
REMARK    1  A    between atoms: C_5  and  C_4 
REMARK    2  A    between atoms: C_6  and  C_5 
REMARK       I    between atoms: N_9  and  C_6 
REMARK    3  A    between atoms: C_12  and  N_9 
ROOT
ATOM      1  N   UNL d   1      31.958  23.218 -21.186  0.00  0.00    -0.205 NA
ATOM      2  C   UNL d   1      32.278  22.762 -21.796  0.00  0.00     0.297 A 
ATOM      3  N   UNL d   1      33.235  22.171 -20.897  0.00  0.00    -0.239 NA
ATOM      4  C   UNL d   1      32.905  22.247 -21.654  0.00  0.00     0.144 A 
ATOM      5  C   UNL d   1      32.284  23.147 -20.426  0.00  0.00     0.102 A 
ATOM      6  C   UNL d   1      32.911  22.632 -20.284  0.00  0.00     0.099 A 
ATOM      7  O   UNL d   1      31.953  22.834 -22.551  0.00  0.00    -0.264 OA
ATOM      8  C   UNL d   1      31.964  23.606 -19.805  0.00  0.00     0.021 A 
ATOM      9  C   UNL d   1      33.241  22.559 -19.517  0.00  0.00     0.021 A 
ATOM     10  C   UNL d   1      32.289  23.533 -19.050  0.00  0.00     0.002 A 
ATOM     11  C   UNL d   1      32.917  23.018 -18.908  0.00  0.00     0.002 A 
ENDROOT
BRANCH   4  12
ATOM     12  C   UNL d   1      33.229  21.787 -22.263  0.00  0.00     0.086 C 
BRANCH  12  13
ATOM     13  C   UNL d   1      33.165  20.964 -22.226  0.00  0.00     0.281 C 
ATOM     14  N   UNL d   1      33.221  20.542 -22.907  0.00  0.00    -0.208 NA
ATOM     15  O   UNL d   1      33.047  20.583 -21.517  0.00  0.00    -0.265 OA
BRANCH  14  16
ATOM     16  C   UNL d   1      33.158  19.704 -22.892  0.00  0.00     0.085 A 
ATOM     17  C   UNL d   1      33.241  19.299 -22.203  0.00  0.00     0.019 A 
ATOM     18  C   UNL d   1      33.178  18.471 -22.192  0.00  0.00     0.002 A 
ATOM     19  C   UNL d   1      33.031  18.085 -22.894  0.00  0.00     0.000 A 
ATOM     20  C   UNL d   1      32.947  18.483 -23.586  0.00  0.00     0.002 A 
ATOM     21  C   UNL d   1      33.010  19.292 -23.585  0.00  0.00     0.019 A 
ENDBRANCH  14  16
ENDBRANCH  12  13
ENDBRANCH   4  12
TORSDOF 3
ENDMDL
MODEL 6
REMARK VINA RESULT:      -0.8      1.346      1.976
REMARK  3 active torsions:
REMARK  status: ('A' for Active; 'I' for Inactive)
REMARK    1  A    between atoms: C_5  and  C_4 
REMARK    2  A    between atoms: C_6  and  C_5 
REMARK       I    between atoms: N_9  and  C_6 
REMARK    3  A    between atoms: C_12  and  N_9 
ROOT
ATOM      1  N   UNL d   1      28.291  17.541 -24.213  0.00  0.00    -0.205 NA
ATOM      2  C   UNL d   1      28.955  17.754 -24.655  0.00  0.00     0.297 A 
ATOM      3  N   UNL d   1      29.666  16.583 -24.213  0.00  0.00    -0.239 NA
ATOM      4  C   UNL d   1      29.631  17.283 -24.655  0.00  0.00     0.144 A 
ATOM      5  C   UNL d   1      28.319  16.841 -23.768  0.00  0.00     0.102 A 
ATOM      6  C   UNL d   1      28.995  16.370 -23.768  0.00  0.00     0.099 A 
ATOM      7  O   UNL d   1      28.925  18.451 -25.097  0.00  0.00    -0.264 OA
ATOM      8  C   UNL d   1      27.650  16.621 -23.319  0.00  0.00     0.021 A 
ATOM      9  C   UNL d   1      29.025  15.663 -23.319  0.00  0.00     0.021 A 
ATOM     10  C   UNL d   1      27.680  15.924 -22.878  0.00  0.00     0.002 A 
ATOM     11  C   UNL d   1      28.356  15.453 -22.877  0.00  0.00     0.002 A 
ENDROOT
BRANCH   4  12
ATOM     12  C   UNL d   1      30.300  17.493 -25.097  0.00  0.00     0.086 C 
BRANCH  12  13
ATOM     13  C   UNL d   1      30.870  17.988 -24.759  0.00  0.00     0.281 C 
ATOM     14  N   UNL d   1      31.502  17.655 -24.394  0.00  0.00    -0.208 NA
ATOM     15  O   UNL d   1      30.795  18.797 -24.793  0.00  0.00    -0.265 OA
BRANCH  14  16
ATOM     16  C   UNL d   1      32.092  18.141 -24.045  0.00  0.00     0.085 A 
ATOM     17  C   UNL d   1      32.214  18.132 -23.251  0.00  0.00     0.019 A 
ATOM     18  C   UNL d   1      32.799  18.615 -22.910  0.00  0.00     0.002 A 
ATOM     19  C   UNL d   1      33.240  19.092 -23.400  0.00  0.00     0.000 A 
ATOM     20  C   UNL d   1      33.124  19.107 -24.193  0.00  0.00     0.002 A 
ATOM     21  C   UNL d   1      32.550  18.631 -24.516  0.00  0.00     0.019 A 
ENDBRANCH  14  16
ENDBRANCH  12  13
ENDBRANCH   4  12
TORSDOF 3
ENDMDL
