MODEL 1
REMARK VINA RESULT:      47.0      0.000      0.000
REMARK  2 active torsions:
REMARK  status: ('A' for Active; 'I' for Inactive)
REMARK    1  A    between atoms: C_2  and  N_1 
REMARK    2  A    between atoms: C_4  and  C_7 
ROOT
ATOM      1  C   UNL d   1      60.465  49.278  51.281  0.00  0.00     0.146 A 
ATOM      2  C   UNL d   1      59.776  49.320  51.734  0.00  0.00     0.027 A 
ATOM      3  C   UNL d   1      59.047  49.525  51.371  0.00  0.00     0.021 A 
ATOM      4  C   UNL d   1      60.436  49.438  50.473  0.00  0.00     0.125 A 
ATOM      5  C   UNL d   1      59.025  49.683  50.566  0.00  0.00     0.003 A 
ATOM      6  C   UNL d   1      59.706  49.643  50.110  0.00  0.00     0.023 A 
ATOM      7  N   UNL d   1      61.126  49.396  50.017  0.00  0.00    -0.146 N 
ENDROOT
BRANCH   3   8
ATOM      8  C   UNL d   1      58.365  49.565  51.827  0.00  0.00     0.103 A 
ATOM      9  N   UNL d   1      58.405  49.644  52.650  0.00  0.00    -0.145 NA
ATOM     10  N   UNL d   1      57.723  49.684  53.106  0.00  0.00    -0.106 NA
ATOM     11  C   UNL d   1      56.984  49.645  52.739  0.00  0.00     0.297 A 
ATOM     12  C   UNL d   1      56.937  49.566  51.912  0.00  0.00     0.066 A 
ATOM     13  O   UNL d   1      56.295  49.685  53.191  0.00  0.00    -0.264 OA
ATOM     14  C   UNL d   1      57.626  49.526  51.460  0.00  0.00     0.024 A 
ATOM     15  C   UNL d   1      57.577  49.447  50.637  0.00  0.00     0.002 C 
ENDBRANCH   3   8
BRANCH   1  16
ATOM     16  N   UNL d   1      61.183  49.076  51.638  0.00  0.00    -0.112 N 
ATOM     17  O   UNL d   1      61.584  49.628  52.101  0.00  0.00    -0.532 OA
ATOM     18  O   UNL d   1      61.499  48.321  51.532  0.00  0.00    -0.532 OA
ENDBRANCH   1  16
TORSDOF 2
ENDMDL
