MODEL 1
REMARK VINA RESULT:      -5.1      0.000      0.000
REMARK  3 active torsions:
REMARK  status: ('A' for Active; 'I' for Inactive)
REMARK    1  A    between atoms: N_9  and  C_5 
REMARK    2  A    between atoms: C_12  and  N_9 
REMARK    3  A    between atoms: C_13  and  C_12 
ROOT
ATOM      1  C   UNL d   1     -41.923-122.457 -51.227  0.00  0.00     0.153 A 
ATOM      2  O   UNL d   1     -42.343-123.156 -51.123  0.00  0.00    -0.302 OA
ATOM      3  C   UNL d   1     -41.853-122.088 -50.491  0.00  0.00     0.111 A 
ATOM      4  C   UNL d   1     -42.234-122.567 -49.933  0.00  0.00     0.043 A 
ATOM      5  C   UNL d   1     -41.592-122.105 -51.901  0.00  0.00     0.189 A 
ATOM      6  C   UNL d   1     -42.534-123.221 -50.323  0.00  0.00     0.102 A 
ATOM      7  N   UNL d   1     -41.193-121.386 -51.836  0.00  0.00    -0.203 NA
ATOM      8  N   UNL d   1     -41.452-121.370 -50.436  0.00  0.00    -0.222 NA
ATOM      9  C   UNL d   1     -41.123-121.017 -51.100  0.00  0.00     0.201 A 
ATOM     10  C   UNL d   1     -42.336-122.476 -49.126  0.00  0.00     0.004 A 
ATOM     11  C   UNL d   1     -42.944-123.796 -49.897  0.00  0.00     0.025 A 
ATOM     12  C   UNL d   1     -42.747-123.050 -48.700  0.00  0.00     0.000 A 
ATOM     13  C   UNL d   1     -43.051-123.711 -49.086  0.00  0.00     0.002 A 
ENDROOT
BRANCH   5  14
ATOM     14  N   UNL d   1     -41.664-122.476 -52.640  0.00  0.00    -0.222 NA
BRANCH  14  15
ATOM     15  C   UNL d   1     -41.328-122.123 -53.305  0.00  0.00     0.120 C 
BRANCH  15  16
ATOM     16  C   UNL d   1     -41.632-122.297 -54.052  0.00  0.00     0.101 A 
ATOM     17  N   UNL d   1     -42.146-121.768 -54.422  0.00  0.00    -0.242 NA
ATOM     18  C   UNL d   1     -42.457-121.934 -55.172  0.00  0.00     0.099 A 
ATOM     19  C   UNL d   1     -42.246-122.640 -55.553  0.00  0.00     0.021 A 
ATOM     20  C   UNL d   1     -41.732-123.169 -55.184  0.00  0.00     0.003 A 
ATOM     21  C   UNL d   1     -41.425-122.996 -54.432  0.00  0.00     0.021 A 
ENDBRANCH  15  16
ENDBRANCH  14  15
ENDBRANCH   5  14
TORSDOF 3
ENDMDL
MODEL 2
REMARK VINA RESULT:      -5.1      1.060      4.436
REMARK  3 active torsions:
REMARK  status: ('A' for Active; 'I' for Inactive)
REMARK    1  A    between atoms: N_9  and  C_5 
REMARK    2  A    between atoms: C_12  and  N_9 
REMARK    3  A    between atoms: C_13  and  C_12 
ROOT
ATOM      1  C   UNL d   1     -41.517-122.516 -51.850  0.00  0.00     0.153 A 
ATOM      2  O   UNL d   1     -41.625-123.272 -52.155  0.00  0.00    -0.302 OA
ATOM      3  C   UNL d   1     -41.311-122.015 -52.473  0.00  0.00     0.111 A 
ATOM      4  C   UNL d   1     -41.293-122.470 -53.166  0.00  0.00     0.043 A 
ATOM      5  C   UNL d   1     -41.580-122.216 -51.079  0.00  0.00     0.189 A 
ATOM      6  C   UNL d   1     -41.486-123.241 -52.968  0.00  0.00     0.102 A 
ATOM      7  N   UNL d   1     -41.436-121.417 -50.937  0.00  0.00    -0.203 NA
ATOM      8  N   UNL d   1     -41.169-121.218 -52.321  0.00  0.00    -0.222 NA
ATOM      9  C   UNL d   1     -41.230-120.916 -51.560  0.00  0.00     0.201 A 
ATOM     10  C   UNL d   1     -41.124-122.265 -53.941  0.00  0.00     0.004 A 
ATOM     11  C   UNL d   1     -41.511-123.817 -53.556  0.00  0.00     0.025 A 
ATOM     12  C   UNL d   1     -41.148-122.842 -54.528  0.00  0.00     0.000 A 
ATOM     13  C   UNL d   1     -41.342-123.619 -54.337  0.00  0.00     0.002 A 
ENDROOT
BRANCH   5  14
ATOM     14  N   UNL d   1     -41.787-122.721 -50.454  0.00  0.00    -0.222 NA
BRANCH  14  15
ATOM     15  C   UNL d   1     -41.617-122.497 -49.679  0.00  0.00     0.120 C 
BRANCH  15  16
ATOM     16  C   UNL d   1     -41.927-122.936 -49.054  0.00  0.00     0.101 A 
ATOM     17  N   UNL d   1     -42.743-122.964 -48.933  0.00  0.00    -0.242 NA
ATOM     18  C   UNL d   1     -43.064-123.403 -48.307  0.00  0.00     0.099 A 
ATOM     19  C   UNL d   1     -42.557-123.817 -47.798  0.00  0.00     0.021 A 
ATOM     20  C   UNL d   1     -41.741-123.790 -47.919  0.00  0.00     0.003 A 
ATOM     21  C   UNL d   1     -41.427-123.349 -48.547  0.00  0.00     0.021 A 
ENDBRANCH  15  16
ENDBRANCH  14  15
ENDBRANCH   5  14
TORSDOF 3
ENDMDL
MODEL 3
REMARK VINA RESULT:      -3.6      1.143      4.588
REMARK  3 active torsions:
REMARK  status: ('A' for Active; 'I' for Inactive)
REMARK    1  A    between atoms: N_9  and  C_5 
REMARK    2  A    between atoms: C_12  and  N_9 
REMARK    3  A    between atoms: C_13  and  C_12 
ROOT
ATOM      1  C   UNL d   1     -42.006-122.432 -53.216  0.00  0.00     0.153 A 
ATOM      2  O   UNL d   1     -42.420-121.768 -53.467  0.00  0.00    -0.302 OA
ATOM      3  C   UNL d   1     -41.717-122.821 -53.885  0.00  0.00     0.111 A 
ATOM      4  C   UNL d   1     -41.957-122.390 -54.550  0.00  0.00     0.043 A 
ATOM      5  C   UNL d   1     -41.854-122.736 -52.460  0.00  0.00     0.189 A 
ATOM      6  C   UNL d   1     -42.388-121.744 -54.292  0.00  0.00     0.102 A 
ATOM      7  N   UNL d   1     -41.412-123.428 -52.376  0.00  0.00    -0.203 NA
ATOM      8  N   UNL d   1     -41.277-123.512 -53.791  0.00  0.00    -0.222 NA
ATOM      9  C   UNL d   1     -41.123-123.817 -53.045  0.00  0.00     0.201 A 
ATOM     10  C   UNL d   1     -41.829-122.517 -55.349  0.00  0.00     0.004 A 
ATOM     11  C   UNL d   1     -42.698-121.215 -54.842  0.00  0.00     0.025 A 
ATOM     12  C   UNL d   1     -42.139-121.988 -55.899  0.00  0.00     0.000 A 
ATOM     13  C   UNL d   1     -42.574-121.336 -55.647  0.00  0.00     0.002 A 
ENDROOT
BRANCH   5  14
ATOM     14  N   UNL d   1     -42.145-122.344 -51.789  0.00  0.00    -0.222 NA
BRANCH  14  15
ATOM     15  C   UNL d   1     -41.722-122.380 -51.082  0.00  0.00     0.120 C 
BRANCH  15  16
ATOM     16  C   UNL d   1     -42.127-122.497 -50.373  0.00  0.00     0.101 A 
ATOM     17  N   UNL d   1     -42.889-122.197 -50.279  0.00  0.00    -0.242 NA
ATOM     18  C   UNL d   1     -43.304-122.309 -49.570  0.00  0.00     0.099 A 
ATOM     19  C   UNL d   1     -42.945-122.728 -48.950  0.00  0.00     0.021 A 
ATOM     20  C   UNL d   1     -42.182-123.028 -49.045  0.00  0.00     0.003 A 
ATOM     21  C   UNL d   1     -41.774-122.911 -49.757  0.00  0.00     0.021 A 
ENDBRANCH  15  16
ENDBRANCH  14  15
ENDBRANCH   5  14
TORSDOF 3
ENDMDL
