MODEL 1
REMARK VINA RESULT:      -7.9      0.000      0.000
REMARK  4 active torsions:
REMARK  status: ('A' for Active; 'I' for Inactive)
REMARK    1  A    between atoms: C_4  and  N_1 
REMARK    2  A    between atoms: S_8  and  C_5 
REMARK    3  A    between atoms: C_10  and  C_7 
REMARK    4  A    between atoms: C_9  and  S_8 
ROOT
ATOM      1  N   UNL d   1     -47.119  13.247  22.291  0.00  0.00    -0.241 N 
ATOM      2  C   UNL d   1     -47.674  13.043  21.722  0.00  0.00     0.268 A 
ATOM      3  C   UNL d   1     -47.461  13.799  22.804  0.00  0.00     0.273 A 
ATOM      4  C   UNL d   1     -48.230  13.935  22.547  0.00  0.00     0.091 A 
ATOM      5  C   UNL d   1     -48.365  13.469  21.878  0.00  0.00     0.072 A 
ATOM      6  O   UNL d   1     -47.564  12.508  21.102  0.00  0.00    -0.267 OA
ATOM      7  O   UNL d   1     -47.096  14.149  23.454  0.00  0.00    -0.266 OA
ENDROOT
BRANCH   1   8
ATOM      8  C   UNL d   1     -46.354  12.951  22.342  0.00  0.00     0.070 A 
ATOM      9  C   UNL d   1     -46.195  12.273  22.792  0.00  0.00     0.016 A 
ATOM     10  C   UNL d   1     -45.423  11.979  22.840  0.00  0.00     0.001 A 
ATOM     11  C   UNL d   1     -46.809  11.899  23.188  0.00  0.00     0.001 A 
ATOM     12  C   UNL d   1     -45.267  11.311  23.284  0.00  0.00     0.000 A 
ATOM     13  C   UNL d   1     -44.814  12.356  22.443  0.00  0.00     0.000 A 
ATOM     14  C   UNL d   1     -45.879  10.926  23.687  0.00  0.00     0.000 A 
ATOM     15  C   UNL d   1     -46.651  11.224  23.636  0.00  0.00     0.000 A 
ATOM     16  C   UNL d   1     -44.966  13.035  21.991  0.00  0.00     0.002 A 
ATOM     17  C   UNL d   1     -45.735  13.329  21.942  0.00  0.00     0.018 A 
ENDBRANCH   1   8
BRANCH   4  18
ATOM     18  S   UNL d   1     -48.778  14.450  22.896  0.00  0.00    -0.082 SA
BRANCH  18  19
ATOM     19  C   UNL d   1     -49.534  14.138  22.966  0.00  0.00     0.035 A 
ATOM     20  C   UNL d   1     -50.183  14.644  22.987  0.00  0.00     0.070 A 
ATOM     21  C   UNL d   1     -50.941  14.327  23.057  0.00  0.00     0.007 A 
ATOM     22  C   UNL d   1     -51.048  13.514  23.107  0.00  0.00     0.000 A 
ATOM     23  C   UNL d   1     -50.397  13.014  23.086  0.00  0.00     0.001 A 
ATOM     24  C   UNL d   1     -49.646  13.316  23.017  0.00  0.00     0.007 A 
BRANCH  20  25
ATOM     25  C   UNL d   1     -50.073  15.458  22.937  0.00  0.00     0.211 C 
ATOM     26  O   UNL d   1     -50.165  15.841  22.211  0.00  0.00    -0.644 OA
ATOM     27  O   UNL d   1     -49.873  15.888  23.613  0.00  0.00    -0.644 OA
ENDBRANCH  20  25
ENDBRANCH  18  19
ENDBRANCH   4  18
TORSDOF 4
ENDMDL
MODEL 2
REMARK VINA RESULT:      -7.4      1.344      4.584
REMARK  4 active torsions:
REMARK  status: ('A' for Active; 'I' for Inactive)
REMARK    1  A    between atoms: C_4  and  N_1 
REMARK    2  A    between atoms: S_8  and  C_5 
REMARK    3  A    between atoms: C_10  and  C_7 
REMARK    4  A    between atoms: C_9  and  S_8 
ROOT
ATOM      1  N   UNL d   1     -48.885  13.159  22.568  0.00  0.00    -0.241 N 
ATOM      2  C   UNL d   1     -48.781  12.551  23.109  0.00  0.00     0.268 A 
ATOM      3  C   UNL d   1     -48.139  13.438  22.342  0.00  0.00     0.273 A 
ATOM      4  C   UNL d   1     -47.576  12.998  22.747  0.00  0.00     0.091 A 
ATOM      5  C   UNL d   1     -47.969  12.449  23.223  0.00  0.00     0.072 A 
ATOM      6  O   UNL d   1     -49.380  12.117  23.477  0.00  0.00    -0.267 OA
ATOM      7  O   UNL d   1     -47.990  14.047  21.807  0.00  0.00    -0.266 OA
ENDROOT
BRANCH   1   8
ATOM      8  C   UNL d   1     -49.607  13.441  22.297  0.00  0.00     0.070 A 
ATOM      9  C   UNL d   1     -49.975  14.083  22.672  0.00  0.00     0.016 A 
ATOM     10  C   UNL d   1     -50.703  14.363  22.396  0.00  0.00     0.001 A 
ATOM     11  C   UNL d   1     -49.611  14.435  23.317  0.00  0.00     0.001 A 
ATOM     12  C   UNL d   1     -51.064  14.996  22.767  0.00  0.00     0.000 A 
ATOM     13  C   UNL d   1     -51.063  14.008  21.752  0.00  0.00     0.000 A 
ATOM     14  C   UNL d   1     -50.705  15.358  23.418  0.00  0.00     0.000 A 
ATOM     15  C   UNL d   1     -49.975  15.074  23.692  0.00  0.00     0.000 A 
ATOM     16  C   UNL d   1     -50.701  13.366  21.372  0.00  0.00     0.002 A 
ATOM     17  C   UNL d   1     -49.975  13.085  21.646  0.00  0.00     0.018 A 
ENDBRANCH   1   8
BRANCH   4  18
ATOM     18  S   UNL d   1     -46.753  13.088  22.691  0.00  0.00    -0.082 SA
BRANCH  18  19
ATOM     19  C   UNL d   1     -46.326  12.438  22.952  0.00  0.00     0.035 A 
ATOM     20  C   UNL d   1     -45.539  12.350  22.726  0.00  0.00     0.070 A 
ATOM     21  C   UNL d   1     -45.114  11.695  22.990  0.00  0.00     0.007 A 
ATOM     22  C   UNL d   1     -45.470  11.136  23.475  0.00  0.00     0.000 A 
ATOM     23  C   UNL d   1     -46.255  11.229  23.698  0.00  0.00     0.001 A 
ATOM     24  C   UNL d   1     -46.683  11.870  23.443  0.00  0.00     0.007 A 
BRANCH  20  25
ATOM     25  C   UNL d   1     -45.184  12.911  22.240  0.00  0.00     0.211 C 
ATOM     26  O   UNL d   1     -45.000  13.657  22.541  0.00  0.00    -0.644 OA
ATOM     27  O   UNL d   1     -45.014  12.725  21.454  0.00  0.00    -0.644 OA
ENDBRANCH  20  25
ENDBRANCH  18  19
ENDBRANCH   4  18
TORSDOF 4
ENDMDL
MODEL 3
REMARK VINA RESULT:      -7.1      8.285      9.448
REMARK  4 active torsions:
REMARK  status: ('A' for Active; 'I' for Inactive)
REMARK    1  A    between atoms: C_4  and  N_1 
REMARK    2  A    between atoms: S_8  and  C_5 
REMARK    3  A    between atoms: C_10  and  C_7 
REMARK    4  A    between atoms: C_9  and  S_8 
ROOT
ATOM      1  N   UNL d   1     -39.636  14.837  20.667  0.00  0.00    -0.241 N 
ATOM      2  C   UNL d   1     -40.350  14.509  20.429  0.00  0.00     0.268 A 
ATOM      3  C   UNL d   1     -39.173  14.967  19.994  0.00  0.00     0.273 A 
ATOM      4  C   UNL d   1     -39.604  14.718  19.341  0.00  0.00     0.091 A 
ATOM      5  C   UNL d   1     -40.333  14.434  19.606  0.00  0.00     0.072 A 
ATOM      6  O   UNL d   1     -40.976  14.291  20.922  0.00  0.00    -0.267 OA
ATOM      7  O   UNL d   1     -38.414  15.289  19.982  0.00  0.00    -0.266 OA
ENDROOT
BRANCH   1   8
ATOM      8  C   UNL d   1     -39.421  15.006  21.441  0.00  0.00     0.070 A 
ATOM      9  C   UNL d   1     -39.034  14.436  21.903  0.00  0.00     0.016 A 
ATOM     10  C   UNL d   1     -38.820  14.612  22.683  0.00  0.00     0.001 A 
ATOM     11  C   UNL d   1     -38.868  13.701  21.580  0.00  0.00     0.001 A 
ATOM     12  C   UNL d   1     -38.439  14.050  23.138  0.00  0.00     0.000 A 
ATOM     13  C   UNL d   1     -38.989  15.348  23.001  0.00  0.00     0.000 A 
ATOM     14  C   UNL d   1     -38.266  13.305  22.822  0.00  0.00     0.000 A 
ATOM     15  C   UNL d   1     -38.483  13.133  22.040  0.00  0.00     0.000 A 
ATOM     16  C   UNL d   1     -39.375  15.922  22.544  0.00  0.00     0.002 A 
ATOM     17  C   UNL d   1     -39.590  15.749  21.766  0.00  0.00     0.018 A 
ENDBRANCH   1   8
BRANCH   4  18
ATOM     18  S   UNL d   1     -39.355  14.745  18.550  0.00  0.00    -0.082 SA
BRANCH  18  19
ATOM     19  C   UNL d   1     -39.907  15.065  18.035  0.00  0.00     0.035 A 
ATOM     20  C   UNL d   1     -39.856  14.902  17.230  0.00  0.00     0.070 A 
ATOM     21  C   UNL d   1     -40.413  15.225  16.715  0.00  0.00     0.007 A 
ATOM     22  C   UNL d   1     -41.014  15.706  17.002  0.00  0.00     0.000 A 
ATOM     23  C   UNL d   1     -41.060  15.866  17.806  0.00  0.00     0.001 A 
ATOM     24  C   UNL d   1     -40.517  15.553  18.322  0.00  0.00     0.007 A 
BRANCH  20  25
ATOM     25  C   UNL d   1     -39.253  14.419  16.944  0.00  0.00     0.211 C 
ATOM     26  O   UNL d   1     -39.364  13.602  16.907  0.00  0.00    -0.644 OA
ATOM     27  O   UNL d   1     -38.541  14.755  16.697  0.00  0.00    -0.644 OA
ENDBRANCH  20  25
ENDBRANCH  18  19
ENDBRANCH   4  18
TORSDOF 4
ENDMDL
MODEL 4
REMARK VINA RESULT:      -7.0      8.104      9.814
REMARK  4 active torsions:
REMARK  status: ('A' for Active; 'I' for Inactive)
REMARK    1  A    between atoms: C_4  and  N_1 
REMARK    2  A    between atoms: S_8  and  C_5 
REMARK    3  A    between atoms: C_10  and  C_7 
REMARK    4  A    between atoms: C_9  and  S_8 
ROOT
ATOM      1  N   UNL d   1     -39.483  14.557  18.036  0.00  0.00    -0.241 N 
ATOM      2  C   UNL d   1     -40.237  14.299  18.232  0.00  0.00     0.268 A 
ATOM      3  C   UNL d   1     -39.074  14.720  18.737  0.00  0.00     0.273 A 
ATOM      4  C   UNL d   1     -39.579  14.561  19.364  0.00  0.00     0.091 A 
ATOM      5  C   UNL d   1     -40.300  14.300  19.056  0.00  0.00     0.072 A 
ATOM      6  O   UNL d   1     -40.830  14.077  17.701  0.00  0.00    -0.267 OA
ATOM      7  O   UNL d   1     -38.298  14.993  18.793  0.00  0.00    -0.266 OA
ENDROOT
BRANCH   1   8
ATOM      8  C   UNL d   1     -39.188  14.639  17.275  0.00  0.00     0.070 A 
ATOM      9  C   UNL d   1     -38.775  14.016  16.914  0.00  0.00     0.016 A 
ATOM     10  C   UNL d   1     -38.480  14.105  16.147  0.00  0.00     0.001 A 
ATOM     11  C   UNL d   1     -38.665  13.316  17.326  0.00  0.00     0.001 A 
ATOM     12  C   UNL d   1     -38.073  13.489  15.793  0.00  0.00     0.000 A 
ATOM     13  C   UNL d   1     -38.592  14.806  15.740  0.00  0.00     0.000 A 
ATOM     14  C   UNL d   1     -37.956  12.779  16.199  0.00  0.00     0.000 A 
ATOM     15  C   UNL d   1     -38.255  12.695  16.969  0.00  0.00     0.000 A 
ATOM     16  C   UNL d   1     -39.004  15.433  16.094  0.00  0.00     0.002 A 
ATOM     17  C   UNL d   1     -39.300  15.348  16.859  0.00  0.00     0.018 A 
ENDBRANCH   1   8
BRANCH   4  18
ATOM     18  S   UNL d   1     -39.401  14.646  20.170  0.00  0.00    -0.082 SA
BRANCH  18  19
ATOM     19  C   UNL d   1     -39.960  15.071  20.594  0.00  0.00     0.035 A 
ATOM     20  C   UNL d   1     -39.913  15.098  21.416  0.00  0.00     0.070 A 
ATOM     21  C   UNL d   1     -40.476  15.526  21.839  0.00  0.00     0.007 A 
ATOM     22  C   UNL d   1     -41.079  15.922  21.446  0.00  0.00     0.000 A 
ATOM     23  C   UNL d   1     -41.121  15.891  20.626  0.00  0.00     0.001 A 
ATOM     24  C   UNL d   1     -40.571  15.472  20.200  0.00  0.00     0.007 A 
BRANCH  20  25
ATOM     25  C   UNL d   1     -39.308  14.702  21.808  0.00  0.00     0.211 C 
ATOM     26  O   UNL d   1     -38.598  15.091  21.968  0.00  0.00    -0.644 OA
ATOM     27  O   UNL d   1     -39.414  13.916  22.039  0.00  0.00    -0.644 OA
ENDBRANCH  20  25
ENDBRANCH  18  19
ENDBRANCH   4  18
TORSDOF 4
ENDMDL
MODEL 5
REMARK VINA RESULT:      -6.8      8.210      9.544
REMARK  4 active torsions:
REMARK  status: ('A' for Active; 'I' for Inactive)
REMARK    1  A    between atoms: C_4  and  N_1 
REMARK    2  A    between atoms: S_8  and  C_5 
REMARK    3  A    between atoms: C_10  and  C_7 
REMARK    4  A    between atoms: C_9  and  S_8 
ROOT
ATOM      1  N   UNL d   1     -40.082  15.005  19.638  0.00  0.00    -0.241 N 
ATOM      2  C   UNL d   1     -40.534  14.524  20.127  0.00  0.00     0.268 A 
ATOM      3  C   UNL d   1     -39.468  15.330  20.088  0.00  0.00     0.273 A 
ATOM      4  C   UNL d   1     -39.545  15.047  20.856  0.00  0.00     0.091 A 
ATOM      5  C   UNL d   1     -40.203  14.549  20.884  0.00  0.00     0.072 A 
ATOM      6  O   UNL d   1     -41.202  14.092  19.905  0.00  0.00    -0.267 OA
ATOM      7  O   UNL d   1     -38.886  15.844  19.814  0.00  0.00    -0.266 OA
ENDROOT
BRANCH   1   8
ATOM      8  C   UNL d   1     -40.218  15.138  18.840  0.00  0.00     0.070 A 
ATOM      9  C   UNL d   1     -39.873  14.647  18.267  0.00  0.00     0.016 A 
ATOM     10  C   UNL d   1     -40.013  14.786  17.464  0.00  0.00     0.001 A 
ATOM     11  C   UNL d   1     -39.394  14.026  18.505  0.00  0.00     0.001 A 
ATOM     12  C   UNL d   1     -39.673  14.302  16.900  0.00  0.00     0.000 A 
ATOM     13  C   UNL d   1     -40.493  15.408  17.231  0.00  0.00     0.000 A 
ATOM     14  C   UNL d   1     -39.188  13.672  17.130  0.00  0.00     0.000 A 
ATOM     15  C   UNL d   1     -39.050  13.537  17.936  0.00  0.00     0.000 A 
ATOM     16  C   UNL d   1     -40.841  15.903  17.798  0.00  0.00     0.002 A 
ATOM     17  C   UNL d   1     -40.702  15.766  18.600  0.00  0.00     0.018 A 
ENDBRANCH   1   8
BRANCH   4  18
ATOM     18  S   UNL d   1     -39.049  15.229  21.495  0.00  0.00    -0.082 SA
BRANCH  18  19
ATOM     19  C   UNL d   1     -38.845  14.582  21.956  0.00  0.00     0.035 A 
ATOM     20  C   UNL d   1     -38.626  14.694  22.742  0.00  0.00     0.070 A 
ATOM     21  C   UNL d   1     -38.422  14.041  23.202  0.00  0.00     0.007 A 
ATOM     22  C   UNL d   1     -38.436  13.285  22.881  0.00  0.00     0.000 A 
ATOM     23  C   UNL d   1     -38.655  13.179  22.096  0.00  0.00     0.001 A 
ATOM     24  C   UNL d   1     -38.858  13.815  21.634  0.00  0.00     0.007 A 
BRANCH  20  25
ATOM     25  C   UNL d   1     -38.612  15.452  23.062  0.00  0.00     0.211 C 
ATOM     26  O   UNL d   1     -37.940  15.922  22.977  0.00  0.00    -0.644 OA
ATOM     27  O   UNL d   1     -39.272  15.738  23.468  0.00  0.00    -0.644 OA
ENDBRANCH  20  25
ENDBRANCH  18  19
ENDBRANCH   4  18
TORSDOF 4
ENDMDL
MODEL 6
REMARK VINA RESULT:      -6.6      8.319     10.165
REMARK  4 active torsions:
REMARK  status: ('A' for Active; 'I' for Inactive)
REMARK    1  A    between atoms: C_4  and  N_1 
REMARK    2  A    between atoms: S_8  and  C_5 
REMARK    3  A    between atoms: C_10  and  C_7 
REMARK    4  A    between atoms: C_9  and  S_8 
ROOT
ATOM      1  N   UNL d   1     -39.902  14.976  19.423  0.00  0.00    -0.241 N 
ATOM      2  C   UNL d   1     -40.331  14.432  18.983  0.00  0.00     0.268 A 
ATOM      3  C   UNL d   1     -39.346  15.333  18.924  0.00  0.00     0.273 A 
ATOM      4  C   UNL d   1     -39.435  15.006  18.176  0.00  0.00     0.091 A 
ATOM      5  C   UNL d   1     -40.044  14.448  18.209  0.00  0.00     0.072 A 
ATOM      6  O   UNL d   1     -40.942  13.952  19.263  0.00  0.00    -0.267 OA
ATOM      7  O   UNL d   1     -38.801  15.912  19.141  0.00  0.00    -0.266 OA
ENDROOT
BRANCH   1   8
ATOM      8  C   UNL d   1     -40.007  15.137  20.221  0.00  0.00     0.070 A 
ATOM      9  C   UNL d   1     -39.572  14.725  20.794  0.00  0.00     0.016 A 
ATOM     10  C   UNL d   1     -39.683  14.891  21.597  0.00  0.00     0.001 A 
ATOM     11  C   UNL d   1     -39.034  14.154  20.557  0.00  0.00     0.001 A 
ATOM     12  C   UNL d   1     -39.253  14.484  22.161  0.00  0.00     0.000 A 
ATOM     13  C   UNL d   1     -40.222  15.463  21.829  0.00  0.00     0.000 A 
ATOM     14  C   UNL d   1     -38.707  13.906  21.933  0.00  0.00     0.000 A 
ATOM     15  C   UNL d   1     -38.600  13.743  21.126  0.00  0.00     0.000 A 
ATOM     16  C   UNL d   1     -40.660  15.879  21.261  0.00  0.00     0.002 A 
ATOM     17  C   UNL d   1     -40.551  15.714  20.460  0.00  0.00     0.018 A 
ENDBRANCH   1   8
BRANCH   4  18
ATOM     18  S   UNL d   1     -38.993  15.200  17.502  0.00  0.00    -0.082 SA
BRANCH  18  19
ATOM     19  C   UNL d   1     -38.759  14.552  17.057  0.00  0.00     0.035 A 
ATOM     20  C   UNL d   1     -38.550  14.654  16.267  0.00  0.00     0.070 A 
ATOM     21  C   UNL d   1     -38.315  14.001  15.822  0.00  0.00     0.007 A 
ATOM     22  C   UNL d   1     -38.289  13.254  16.163  0.00  0.00     0.000 A 
ATOM     23  C   UNL d   1     -38.499  13.157  16.952  0.00  0.00     0.001 A 
ATOM     24  C   UNL d   1     -38.731  13.794  17.398  0.00  0.00     0.007 A 
BRANCH  20  25
ATOM     25  C   UNL d   1     -38.576  15.403  15.927  0.00  0.00     0.211 C 
ATOM     26  O   UNL d   1     -37.940  15.920  16.023  0.00  0.00    -0.644 OA
ATOM     27  O   UNL d   1     -39.238  15.634  15.491  0.00  0.00    -0.644 OA
ENDBRANCH  20  25
ENDBRANCH  18  19
ENDBRANCH   4  18
TORSDOF 4
ENDMDL
MODEL 7
REMARK VINA RESULT:      -6.2      7.593      9.902
REMARK  4 active torsions:
REMARK  status: ('A' for Active; 'I' for Inactive)
REMARK    1  A    between atoms: C_4  and  N_1 
REMARK    2  A    between atoms: S_8  and  C_5 
REMARK    3  A    between atoms: C_10  and  C_7 
REMARK    4  A    between atoms: C_9  and  S_8 
ROOT
ATOM      1  N   UNL d   1     -39.156  15.091  17.939  0.00  0.00    -0.241 N 
ATOM      2  C   UNL d   1     -38.676  15.427  18.514  0.00  0.00     0.268 A 
ATOM      3  C   UNL d   1     -39.840  14.804  18.306  0.00  0.00     0.273 A 
ATOM      4  C   UNL d   1     -39.779  14.965  19.109  0.00  0.00     0.091 A 
ATOM      5  C   UNL d   1     -39.060  15.350  19.242  0.00  0.00     0.072 A 
ATOM      6  O   UNL d   1     -37.940  15.780  18.390  0.00  0.00    -0.267 OA
ATOM      7  O   UNL d   1     -40.469  14.425  17.932  0.00  0.00    -0.266 OA
ENDROOT
BRANCH   1   8
ATOM      8  C   UNL d   1     -38.985  15.048  17.138  0.00  0.00     0.070 A 
ATOM      9  C   UNL d   1     -38.635  14.367  16.818  0.00  0.00     0.016 A 
ATOM     10  C   UNL d   1     -38.464  14.330  16.010  0.00  0.00     0.001 A 
ATOM     11  C   UNL d   1     -38.461  13.735  17.311  0.00  0.00     0.001 A 
ATOM     12  C   UNL d   1     -38.119  13.658  15.696  0.00  0.00     0.000 A 
ATOM     13  C   UNL d   1     -38.639  14.963  15.522  0.00  0.00     0.000 A 
ATOM     14  C   UNL d   1     -37.940  13.015  16.185  0.00  0.00     0.000 A 
ATOM     15  C   UNL d   1     -38.113  13.057  16.995  0.00  0.00     0.000 A 
ATOM     16  C   UNL d   1     -38.989  15.647  15.834  0.00  0.00     0.002 A 
ATOM     17  C   UNL d   1     -39.160  15.687  16.640  0.00  0.00     0.018 A 
ENDBRANCH   1   8
BRANCH   4  18
ATOM     18  S   UNL d   1     -40.340  14.775  19.690  0.00  0.00    -0.082 SA
BRANCH  18  19
ATOM     19  C   UNL d   1     -40.016  14.487  20.387  0.00  0.00     0.035 A 
ATOM     20  C   UNL d   1     -40.487  14.429  21.061  0.00  0.00     0.070 A 
ATOM     21  C   UNL d   1     -40.159  14.139  21.759  0.00  0.00     0.007 A 
ATOM     22  C   UNL d   1     -39.370  13.910  21.784  0.00  0.00     0.000 A 
ATOM     23  C   UNL d   1     -38.905  13.970  21.109  0.00  0.00     0.001 A 
ATOM     24  C   UNL d   1     -39.219  14.255  20.416  0.00  0.00     0.007 A 
BRANCH  20  25
ATOM     25  C   UNL d   1     -41.276  14.659  21.034  0.00  0.00     0.211 C 
ATOM     26  O   UNL d   1     -41.474  15.457  21.102  0.00  0.00    -0.644 OA
ATOM     27  O   UNL d   1     -41.867  14.090  20.938  0.00  0.00    -0.644 OA
ENDBRANCH  20  25
ENDBRANCH  18  19
ENDBRANCH   4  18
TORSDOF 4
ENDMDL
MODEL 8
REMARK VINA RESULT:      -5.7      9.117     10.063
REMARK  4 active torsions:
REMARK  status: ('A' for Active; 'I' for Inactive)
REMARK    1  A    between atoms: C_4  and  N_1 
REMARK    2  A    between atoms: S_8  and  C_5 
REMARK    3  A    between atoms: C_10  and  C_7 
REMARK    4  A    between atoms: C_9  and  S_8 
ROOT
ATOM      1  N   UNL d   1     -38.756  14.682  18.757  0.00  0.00    -0.241 N 
ATOM      2  C   UNL d   1     -38.284  15.278  19.065  0.00  0.00     0.268 A 
ATOM      3  C   UNL d   1     -38.966  14.170  19.373  0.00  0.00     0.273 A 
ATOM      4  C   UNL d   1     -38.621  14.455  20.062  0.00  0.00     0.091 A 
ATOM      5  C   UNL d   1     -38.198  15.140  19.876  0.00  0.00     0.072 A 
ATOM      6  O   UNL d   1     -37.952  15.906  18.644  0.00  0.00    -0.267 OA
ATOM      7  O   UNL d   1     -39.437  13.497  19.305  0.00  0.00    -0.266 OA
ENDROOT
BRANCH   1   8
ATOM      8  C   UNL d   1     -38.980  14.607  17.970  0.00  0.00     0.070 A 
ATOM      9  C   UNL d   1     -39.653  15.000  17.686  0.00  0.00     0.016 A 
ATOM     10  C   UNL d   1     -39.875  14.921  16.893  0.00  0.00     0.001 A 
ATOM     11  C   UNL d   1     -40.095  15.464  18.199  0.00  0.00     0.001 A 
ATOM     12  C   UNL d   1     -40.539  15.308  16.615  0.00  0.00     0.000 A 
ATOM     13  C   UNL d   1     -39.431  14.456  16.386  0.00  0.00     0.000 A 
ATOM     14  C   UNL d   1     -40.991  15.779  17.123  0.00  0.00     0.000 A 
ATOM     15  C   UNL d   1     -40.765  15.855  17.918  0.00  0.00     0.000 A 
ATOM     16  C   UNL d   1     -38.756  14.061  16.663  0.00  0.00     0.002 A 
ATOM     17  C   UNL d   1     -38.534  14.138  17.454  0.00  0.00     0.018 A 
ENDBRANCH   1   8
BRANCH   4  18
ATOM     18  S   UNL d   1     -38.684  14.116  20.816  0.00  0.00    -0.082 SA
BRANCH  18  19
ATOM     19  C   UNL d   1     -38.928  14.638  21.400  0.00  0.00     0.035 A 
ATOM     20  C   UNL d   1     -38.937  14.395  22.186  0.00  0.00     0.070 A 
ATOM     21  C   UNL d   1     -39.183  14.922  22.770  0.00  0.00     0.007 A 
ATOM     22  C   UNL d   1     -39.416  15.684  22.570  0.00  0.00     0.000 A 
ATOM     23  C   UNL d   1     -39.404  15.922  21.784  0.00  0.00     0.001 A 
ATOM     24  C   UNL d   1     -39.164  15.410  21.201  0.00  0.00     0.007 A 
BRANCH  20  25
ATOM     25  C   UNL d   1     -38.704  13.631  22.385  0.00  0.00     0.211 C 
ATOM     26  O   UNL d   1     -37.940  13.496  22.666  0.00  0.00    -0.644 OA
ATOM     27  O   UNL d   1     -39.234  13.004  22.302  0.00  0.00    -0.644 OA
ENDBRANCH  20  25
ENDBRANCH  18  19
ENDBRANCH   4  18
TORSDOF 4
ENDMDL
