MODEL 1
REMARK VINA RESULT:      -6.9      0.000      0.000
REMARK  6 active torsions:
REMARK  status: ('A' for Active; 'I' for Inactive)
REMARK    1  A    between atoms: C_17  and  N_1 
REMARK    2  A    between atoms: N_9  and  C_8 
REMARK    3  A    between atoms: C_11  and  O_21 
REMARK    4  A    between atoms: C_15  and  C_11 
REMARK    5  A    between atoms: C_30  and  C_17 
REMARK    6  A    between atoms: O_21  and  C_30 
ROOT
ATOM      1  N   UNL d   1     -45.694  13.095  22.784  0.00  0.00    -0.238 N 
ATOM      2  C   UNL d   1     -46.254  13.649  22.547  0.00  0.00     0.267 A 
ATOM      3  C   UNL d   1     -45.919  12.368  23.098  0.00  0.00     0.267 A 
ATOM      4  C   UNL d   1     -47.074  13.469  22.626  0.00  0.00     0.057 A 
ATOM      5  C   UNL d   1     -47.305  12.742  22.941  0.00  0.00     0.011 A 
ATOM      6  C   UNL d   1     -46.720  12.193  23.176  0.00  0.00     0.057 A 
ATOM      7  C   UNL d   1     -48.095  12.569  23.017  0.00  0.00     0.016 A 
ATOM      8  C   UNL d   1     -48.664  13.121  22.781  0.00  0.00     0.064 A 
ATOM      9  C   UNL d   1     -47.637  14.013  22.394  0.00  0.00     0.006 A 
ATOM     10  C   UNL d   1     -48.426  13.840  22.470  0.00  0.00     0.018 A 
ATOM     11  O   UNL d   1     -45.349  11.772  23.354  0.00  0.00    -0.267 OA
ATOM     12  O   UNL d   1     -46.000  14.371  22.235  0.00  0.00    -0.267 OA
ATOM     13  C   UNL d   1     -46.941  11.453  23.495  0.00  0.00     0.005 A 
ATOM     14  C   UNL d   1     -48.330  11.840  23.332  0.00  0.00     0.002 A 
ATOM     15  C   UNL d   1     -47.757  11.274  23.574  0.00  0.00     0.000 A 
ENDROOT
BRANCH   1  16
ATOM     16  C   UNL d   1     -44.873  13.274  22.705  0.00  0.00     0.113 C 
BRANCH  16  17
ATOM     17  C   UNL d   1     -44.491  13.132  21.987  0.00  0.00     0.145 C 
BRANCH  17  18
ATOM     18  O   UNL d   1     -43.778  13.489  21.833  0.00  0.00    -0.269 OA
BRANCH  18  19
ATOM     19  C   UNL d   1     -43.278  13.168  21.279  0.00  0.00     0.300 C 
ATOM     20  O   UNL d   1     -43.515  12.534  20.813  0.00  0.00    -0.259 OA
BRANCH  19  21
ATOM     21  C   UNL d   1     -42.523  13.480  21.181  0.00  0.00     0.064 A 
ATOM     22  C   UNL d   1     -41.875  13.068  21.473  0.00  0.00     0.006 A 
ATOM     23  C   UNL d   1     -41.100  13.389  21.372  0.00  0.00     0.012 A 
ATOM     24  C   UNL d   1     -41.003  14.109  20.983  0.00  0.00     0.058 A 
ATOM     25  C   UNL d   1     -41.652  14.512  20.697  0.00  0.00     0.012 A 
ATOM     26 CL   UNL d   1     -40.258  14.417  20.887  0.00  0.00    -0.082 Cl
ATOM     27  C   UNL d   1     -42.402  14.201  20.794  0.00  0.00     0.006 A 
ENDBRANCH  19  21
ENDBRANCH  18  19
ENDBRANCH  17  18
ENDBRANCH  16  17
ENDBRANCH   1  16
BRANCH   8  28
ATOM     28  N   UNL d   1     -49.474  12.943  22.859  0.00  0.00    -0.300 N 
ATOM     29  C   UNL d   1     -49.863  13.107  23.558  0.00  0.00     0.107 A 
ATOM     30  C   UNL d   1     -50.658  12.933  23.635  0.00  0.00     0.142 A 
ATOM     31  O   UNL d   1     -51.064  12.595  23.013  0.00  0.00    -0.300 OA
ATOM     32  C   UNL d   1     -50.676  12.427  22.305  0.00  0.00     0.142 A 
ATOM     33  C   UNL d   1     -49.881  12.601  22.228  0.00  0.00     0.107 A 
ENDBRANCH   8  28
TORSDOF 6
ENDMDL
MODEL 2
REMARK VINA RESULT:      -4.5      1.308      1.708
REMARK  6 active torsions:
REMARK  status: ('A' for Active; 'I' for Inactive)
REMARK    1  A    between atoms: C_17  and  N_1 
REMARK    2  A    between atoms: N_9  and  C_8 
REMARK    3  A    between atoms: C_11  and  O_21 
REMARK    4  A    between atoms: C_15  and  C_11 
REMARK    5  A    between atoms: C_30  and  C_17 
REMARK    6  A    between atoms: O_21  and  C_30 
ROOT
ATOM      1  N   UNL d   1     -46.552  12.425  23.421  0.00  0.00    -0.238 N 
ATOM      2  C   UNL d   1     -46.615  13.232  23.278  0.00  0.00     0.267 A 
ATOM      3  C   UNL d   1     -47.214  11.937  23.414  0.00  0.00     0.267 A 
ATOM      4  C   UNL d   1     -47.374  13.567  23.122  0.00  0.00     0.057 A 
ATOM      5  C   UNL d   1     -48.042  13.081  23.114  0.00  0.00     0.011 A 
ATOM      6  C   UNL d   1     -47.955  12.263  23.262  0.00  0.00     0.057 A 
ATOM      7  C   UNL d   1     -48.772  13.403  22.964  0.00  0.00     0.016 A 
ATOM      8  C   UNL d   1     -48.845  14.215  22.819  0.00  0.00     0.064 A 
ATOM      9  C   UNL d   1     -47.447  14.367  22.979  0.00  0.00     0.006 A 
ATOM     10  C   UNL d   1     -48.177  14.689  22.829  0.00  0.00     0.018 A 
ATOM     11  O   UNL d   1     -47.170  11.086  23.562  0.00  0.00    -0.267 OA
ATOM     12  O   UNL d   1     -45.934  13.700  23.290  0.00  0.00    -0.267 OA
ATOM     13  C   UNL d   1     -48.623  11.762  23.258  0.00  0.00     0.005 A 
ATOM     14  C   UNL d   1     -49.444  12.920  22.956  0.00  0.00     0.002 A 
ATOM     15  C   UNL d   1     -49.377  12.094  23.103  0.00  0.00     0.000 A 
ENDROOT
BRANCH   1  16
ATOM     16  C   UNL d   1     -45.793  12.090  23.577  0.00  0.00     0.113 C 
BRANCH  16  17
ATOM     17  C   UNL d   1     -45.282  11.924  22.950  0.00  0.00     0.145 C 
BRANCH  17  18
ATOM     18  O   UNL d   1     -44.488  12.077  23.025  0.00  0.00    -0.269 OA
BRANCH  18  19
ATOM     19  C   UNL d   1     -43.959  11.719  22.523  0.00  0.00     0.300 C 
ATOM     20  O   UNL d   1     -43.921  10.900  22.463  0.00  0.00    -0.259 OA
BRANCH  19  21
ATOM     21  C   UNL d   1     -43.454  12.181  22.066  0.00  0.00     0.064 A 
ATOM     22  C   UNL d   1     -42.653  12.206  22.250  0.00  0.00     0.006 A 
ATOM     23  C   UNL d   1     -42.135  12.680  21.781  0.00  0.00     0.012 A 
ATOM     24  C   UNL d   1     -42.437  13.111  21.147  0.00  0.00     0.058 A 
ATOM     25  C   UNL d   1     -43.233  13.081  20.972  0.00  0.00     0.012 A 
ATOM     26 CL   UNL d   1     -41.939  13.567  20.697  0.00  0.00    -0.082 Cl
ATOM     27  C   UNL d   1     -43.735  12.621  21.425  0.00  0.00     0.006 A 
ENDBRANCH  19  21
ENDBRANCH  18  19
ENDBRANCH  17  18
ENDBRANCH  16  17
ENDBRANCH   1  16
BRANCH   8  28
ATOM     28  N   UNL d   1     -49.594  14.545  22.666  0.00  0.00    -0.300 N 
ATOM     29  C   UNL d   1     -49.986  14.960  23.249  0.00  0.00     0.107 A 
ATOM     30  C   UNL d   1     -50.720  15.284  23.098  0.00  0.00     0.142 A 
ATOM     31  O   UNL d   1     -51.064  15.193  22.363  0.00  0.00    -0.300 OA
ATOM     32  C   UNL d   1     -50.672  14.775  21.770  0.00  0.00     0.142 A 
ATOM     33  C   UNL d   1     -49.937  14.451  21.921  0.00  0.00     0.107 A 
ENDBRANCH   8  28
TORSDOF 6
ENDMDL
