MODEL 1
REMARK VINA RESULT:      68.1      0.000      0.000
REMARK  6 active torsions:
REMARK  status: ('A' for Active; 'I' for Inactive)
REMARK    1  A    between atoms: C_6  and  C_1 
REMARK    2  A    between atoms: C_9  and  N_3 
REMARK       I    between atoms: N_7  and  C_6 
REMARK    3  A    between atoms: C_8  and  N_7 
REMARK    4  A    between atoms: C_10  and  C_9 
REMARK    5  A    between atoms: O_25  and  C_15 
REMARK    6  A    between atoms: O_26  and  C_20 
ROOT
ATOM      1  C   UNL d   1     -55.021-101.791 -40.800  0.00  0.00     0.199 A 
ATOM      2  C   UNL d   1     -54.968-101.075 -41.197  0.00  0.00     0.211 A 
ATOM      3  N   UNL d   1     -54.810-101.235 -41.989  0.00  0.00    -0.190 N 
ATOM      4  N   UNL d   1     -54.896-102.400 -41.343  0.00  0.00    -0.122 NA
ATOM      5  N   UNL d   1     -54.764-102.054 -42.089  0.00  0.00    -0.058 NA
ATOM      6  N   UNL d   1     -55.056-100.328 -40.864  0.00  0.00    -0.125 N 
ENDROOT
BRANCH   1   7
ATOM      7  C   UNL d   1     -55.172-101.892 -39.998  0.00  0.00     0.302 C 
ATOM      8  N   UNL d   1     -55.645-102.517 -39.742  0.00  0.00    -0.204 NA
ATOM      9  O   UNL d   1     -54.848-101.364 -39.447  0.00  0.00    -0.263 OA
BRANCH   8  10
ATOM     10  C   UNL d   1     -55.794-102.614 -38.933  0.00  0.00     0.109 A 
ATOM     11  C   UNL d   1     -55.181-102.545 -38.386  0.00  0.00     0.045 A 
ATOM     12  C   UNL d   1     -55.329-102.641 -37.587  0.00  0.00     0.096 A 
ATOM     13  C   UNL d   1     -56.092-102.808 -37.321  0.00  0.00     0.026 A 
ATOM     14  C   UNL d   1     -56.712-102.878 -37.870  0.00  0.00     0.028 A 
ATOM     15  C   UNL d   1     -56.557-102.780 -38.677  0.00  0.00     0.112 A 
BRANCH  12  16
ATOM     16  O   UNL d   1     -54.715-102.572 -37.039  0.00  0.00    -0.328 OA
ATOM     17  C   UNL d   1     -54.876-102.398 -36.258  0.00  0.00     0.181 C 
ENDBRANCH  12  16
BRANCH  15  18
ATOM     18  O   UNL d   1     -57.162-102.848 -39.223  0.00  0.00    -0.327 OA
ATOM     19  C   UNL d   1     -57.887-102.474 -39.094  0.00  0.00     0.181 C 
ENDBRANCH  15  18
ENDBRANCH   8  10
ENDBRANCH   1   7
BRANCH   3  20
ATOM     20  C   UNL d   1     -54.714-100.680 -42.585  0.00  0.00     0.106 C 
BRANCH  20  21
ATOM     21  C   UNL d   1     -55.021-100.815 -43.341  0.00  0.00     0.047 A 
ATOM     22  C   UNL d   1     -55.541-100.279 -43.675  0.00  0.00     0.142 A 
ATOM     23  C   UNL d   1     -55.846-100.418 -44.431  0.00  0.00     0.036 A 
ATOM     24  F   UNL d   1     -55.764 -99.603 -43.265  0.00  0.00    -0.204 F 
ATOM     25  C   UNL d   1     -55.628-101.095 -44.852  0.00  0.00     0.037 A 
ATOM     26  C   UNL d   1     -55.097-101.637 -44.506  0.00  0.00     0.007 A 
ATOM     27 BR   UNL d   1     -55.928-101.239 -45.607  0.00  0.00    -0.049 Br
ATOM     28  C   UNL d   1     -54.798-101.491 -43.751  0.00  0.00     0.004 A 
ENDBRANCH  20  21
ENDBRANCH   3  20
TORSDOF 6
ENDMDL
