MODEL 1
REMARK VINA RESULT:      50.5      0.000      0.000
REMARK  3 active torsions:
REMARK  status: ('A' for Active; 'I' for Inactive)
REMARK    1  A    between atoms: N_4  and  C_1 
REMARK    2  A    between atoms: C_3  and  N_4 
REMARK    3  A    between atoms: C_8  and  C_5 
ROOT
ATOM      1  C   UNL d   1     -51.306  25.718  33.430  0.00  0.00     0.750 A 
ATOM      2  N   UNL d   1     -52.074  25.417  33.420  0.00  0.00    -0.059 NA
ATOM      3  C   UNL d   1     -52.197  24.605  33.364  0.00  0.00     0.103 A 
ATOM      4  N   UNL d   1     -50.666  25.220  33.383  0.00  0.00    -0.058 NA
ATOM      5  C   UNL d   1     -51.549  24.096  33.316  0.00  0.00     0.041 A 
ATOM      6  C   UNL d   1     -50.774  24.404  33.326  0.00  0.00     0.120 A 
ENDROOT
BRANCH   1   7
ATOM      7  N   UNL d   1     -51.191  26.532  33.486  0.00  0.00    -0.059 NA
BRANCH   7   8
ATOM      8  C   UNL d   1     -50.487  26.831  33.799  0.00  0.00     0.101 A 
ATOM      9  C   UNL d   1     -49.760  26.543  33.538  0.00  0.00     0.041 A 
ATOM     10  C   UNL d   1     -49.056  26.848  33.857  0.00  0.00     0.104 A 
ATOM     11  N   UNL d   1     -48.329  26.560  33.596  0.00  0.00    -0.148 N 
ATOM     12  C   UNL d   1     -49.085  27.438  34.432  0.00  0.00     0.021 A 
ATOM     13  C   UNL d   1     -49.813  27.726  34.692  0.00  0.00     0.003 A 
ATOM     14  C   UNL d   1     -50.512  27.425  34.378  0.00  0.00     0.018 A 
ATOM     15  C   UNL d   1     -51.240  27.713  34.639  0.00  0.00     0.002 C 
ENDBRANCH   7   8
ENDBRANCH   1   7
BRANCH   3  16
ATOM     16  C   UNL d   1     -52.961  24.305  33.354  0.00  0.00     0.037 A 
ATOM     17  C   UNL d   1     -53.598  24.821  33.358  0.00  0.00     0.100 A 
ATOM     18  N   UNL d   1     -54.370  24.531  33.349  0.00  0.00    -0.242 NA
ATOM     19  C   UNL d   1     -54.500  23.711  33.336  0.00  0.00     0.099 A 
ATOM     20  C   UNL d   1     -53.853  23.190  33.333  0.00  0.00     0.021 A 
ATOM     21  C   UNL d   1     -53.089  23.490  33.342  0.00  0.00     0.005 A 
ENDBRANCH   3  16
TORSDOF 3
ENDMDL
