MODEL 1
REMARK VINA RESULT:      -1.5      0.000      0.000
REMARK  4 active torsions:
REMARK  status: ('A' for Active; 'I' for Inactive)
REMARK    1  A    between atoms: C_15  and  C_2 
REMARK    2  A    between atoms: C_3  and  N_6 
REMARK    3  A    between atoms: C_5  and  C_16 
REMARK       I    between atoms: N_6  and  C_5 
REMARK    4  A    between atoms: C_16  and  C_15 
ROOT
ATOM      1  C   UNL d   1      30.713  16.031 -24.823  0.00  0.00     0.279 C 
ATOM      2  N   UNL d   1      29.902  15.899 -24.822  0.00  0.00    -0.208 NA
ATOM      3  O   UNL d   1      31.225  15.453 -25.097  0.00  0.00    -0.265 OA
ENDROOT
BRANCH   1   4
ATOM      4  C   UNL d   1      31.020  16.746 -24.548  0.00  0.00     0.065 C 
BRANCH   4   5
ATOM      5  C   UNL d   1      31.813  16.924 -24.659  0.00  0.00     0.030 C 
BRANCH   5   6
ATOM      6  C   UNL d   1      32.148  17.576 -24.282  0.00  0.00     0.100 A 
ATOM      7  O   UNL d   1      32.186  17.715 -23.468  0.00  0.00    -0.307 OA
ATOM      8  C   UNL d   1      32.565  18.426 -23.339  0.00  0.00     0.100 A 
ATOM      9  C   UNL d   1      32.769  18.739 -24.077  0.00  0.00     0.027 A 
ATOM     10  C   UNL d   1      32.718  18.769 -22.613  0.00  0.00     0.027 C 
ATOM     11  C   UNL d   1      32.512  18.215 -24.659  0.00  0.00     0.027 A 
ENDBRANCH   5   6
ENDBRANCH   4   5
ENDBRANCH   1   4
BRANCH   2  12
ATOM     12  C   UNL d   1      29.389  16.488 -24.543  0.00  0.00     0.085 A 
ATOM     13  C   UNL d   1      28.957  16.361 -23.851  0.00  0.00     0.019 A 
ATOM     14  C   UNL d   1      28.450  16.940 -23.574  0.00  0.00     0.002 A 
ATOM     15  C   UNL d   1      28.021  16.814 -22.886  0.00  0.00     0.000 C 
ATOM     16  C   UNL d   1      28.369  17.658 -23.990  0.00  0.00     0.000 A 
ATOM     17  C   UNL d   1      28.808  17.774 -24.684  0.00  0.00     0.002 A 
ATOM     18  C   UNL d   1      29.312  17.194 -24.957  0.00  0.00     0.019 A 
ATOM     19  C   UNL d   1      28.727  18.487 -25.097  0.00  0.00     0.000 C 
ENDBRANCH   2  12
TORSDOF 4
ENDMDL
MODEL 2
REMARK VINA RESULT:      -1.0      1.492      3.945
REMARK  4 active torsions:
REMARK  status: ('A' for Active; 'I' for Inactive)
REMARK    1  A    between atoms: C_15  and  C_2 
REMARK    2  A    between atoms: C_3  and  N_6 
REMARK    3  A    between atoms: C_5  and  C_16 
REMARK       I    between atoms: N_6  and  C_5 
REMARK    4  A    between atoms: C_16  and  C_15 
ROOT
ATOM      1  C   UNL d   1      30.785  18.313 -24.804  0.00  0.00     0.279 C 
ATOM      2  N   UNL d   1      31.572  18.521 -24.696  0.00  0.00    -0.208 NA
ATOM      3  O   UNL d   1      30.250  18.861 -25.097  0.00  0.00    -0.265 OA
ENDROOT
BRANCH   1   4
ATOM      4  C   UNL d   1      30.526  17.552 -24.621  0.00  0.00     0.065 C 
BRANCH   4   5
ATOM      5  C   UNL d   1      29.736  17.352 -24.714  0.00  0.00     0.030 C 
BRANCH   5   6
ATOM      6  C   UNL d   1      29.433  16.677 -24.349  0.00  0.00     0.100 A 
ATOM      7  O   UNL d   1      29.300  16.566 -23.542  0.00  0.00    -0.307 OA
ATOM      8  C   UNL d   1      28.995  15.817 -23.425  0.00  0.00     0.100 A 
ATOM      9  C   UNL d   1      28.936  15.453 -24.166  0.00  0.00     0.027 A 
ATOM     10  C   UNL d   1      28.786  15.485 -22.709  0.00  0.00     0.027 C 
ATOM     11  C   UNL d   1      29.206  15.983 -24.736  0.00  0.00     0.027 A 
ENDBRANCH   5   6
ENDBRANCH   4   5
ENDBRANCH   1   4
BRANCH   2  12
ATOM     12  C   UNL d   1      32.110  17.963 -24.400  0.00  0.00     0.085 A 
ATOM     13  C   UNL d   1      32.395  17.367 -24.895  0.00  0.00     0.019 A 
ATOM     14  C   UNL d   1      32.925  16.816 -24.605  0.00  0.00     0.002 A 
ATOM     15  C   UNL d   1      33.209  16.223 -25.097  0.00  0.00     0.000 C 
ATOM     16  C   UNL d   1      33.177  16.855 -23.811  0.00  0.00     0.000 A 
ATOM     17  C   UNL d   1      32.883  17.457 -23.324  0.00  0.00     0.002 A 
ATOM     18  C   UNL d   1      32.355  18.006 -23.616  0.00  0.00     0.019 A 
ATOM     19  C   UNL d   1      33.134  17.495 -22.536  0.00  0.00     0.000 C 
ENDBRANCH   2  12
TORSDOF 4
ENDMDL
MODEL 3
REMARK VINA RESULT:       0.4      2.523      4.212
REMARK  4 active torsions:
REMARK  status: ('A' for Active; 'I' for Inactive)
REMARK    1  A    between atoms: C_15  and  C_2 
REMARK    2  A    between atoms: C_3  and  N_6 
REMARK    3  A    between atoms: C_5  and  C_16 
REMARK       I    between atoms: N_6  and  C_5 
REMARK    4  A    between atoms: C_16  and  C_15 
ROOT
ATOM      1  C   UNL d   1      32.965  18.732 -22.115  0.00  0.00     0.279 C 
ATOM      2  N   UNL d   1      32.913  18.219 -22.754  0.00  0.00    -0.208 NA
ATOM      3  O   UNL d   1      33.240  18.463 -21.390  0.00  0.00    -0.265 OA
ENDROOT
BRANCH   1   4
ATOM      4  C   UNL d   1      32.743  19.522 -22.194  0.00  0.00     0.065 C 
BRANCH   4   5
ATOM      5  C   UNL d   1      32.758  20.023 -21.545  0.00  0.00     0.030 C 
BRANCH   5   6
ATOM      6  C   UNL d   1      32.682  20.838 -21.648  0.00  0.00     0.100 A 
ATOM      7  O   UNL d   1      33.187  21.335 -22.072  0.00  0.00    -0.307 OA
ATOM      8  C   UNL d   1      32.902  22.099 -22.028  0.00  0.00     0.100 A 
ATOM      9  C   UNL d   1      32.212  22.084 -21.572  0.00  0.00     0.027 A 
ATOM     10  C   UNL d   1      33.237  22.762 -22.371  0.00  0.00     0.027 C 
ATOM     11  C   UNL d   1      32.076  21.306 -21.338  0.00  0.00     0.027 A 
ENDBRANCH   5   6
ENDBRANCH   4   5
ENDBRANCH   1   4
BRANCH   2  12
ATOM     12  C   UNL d   1      32.634  18.496 -23.484  0.00  0.00     0.085 A 
ATOM     13  C   UNL d   1      31.920  18.212 -23.785  0.00  0.00     0.019 A 
ATOM     14  C   UNL d   1      31.643  18.484 -24.505  0.00  0.00     0.002 A 
ATOM     15  C   UNL d   1      30.933  18.201 -24.804  0.00  0.00     0.000 C 
ATOM     16  C   UNL d   1      32.081  19.048 -24.935  0.00  0.00     0.000 A 
ATOM     17  C   UNL d   1      32.797  19.327 -24.623  0.00  0.00     0.002 A 
ATOM     18  C   UNL d   1      33.070  19.053 -23.904  0.00  0.00     0.019 A 
ATOM     19  C   UNL d   1      33.231  19.887 -25.050  0.00  0.00     0.000 C 
ENDBRANCH   2  12
TORSDOF 4
ENDMDL
MODEL 4
REMARK VINA RESULT:       0.6      1.326      2.048
REMARK  4 active torsions:
REMARK  status: ('A' for Active; 'I' for Inactive)
REMARK    1  A    between atoms: C_15  and  C_2 
REMARK    2  A    between atoms: C_3  and  N_6 
REMARK    3  A    between atoms: C_5  and  C_16 
REMARK       I    between atoms: N_6  and  C_5 
REMARK    4  A    between atoms: C_16  and  C_15 
ROOT
ATOM      1  C   UNL d   1      29.989  18.069 -24.395  0.00  0.00     0.279 C 
ATOM      2  N   UNL d   1      29.257  17.851 -24.092  0.00  0.00    -0.208 NA
ATOM      3  O   UNL d   1      30.178  18.862 -24.488  0.00  0.00    -0.265 OA
ENDROOT
BRANCH   1   4
ATOM      4  C   UNL d   1      30.541  17.495 -24.609  0.00  0.00     0.065 C 
BRANCH   4   5
ATOM      5  C   UNL d   1      31.208  17.702 -25.038  0.00  0.00     0.030 C 
BRANCH   5   6
ATOM      6  C   UNL d   1      31.920  17.305 -24.916  0.00  0.00     0.100 A 
ATOM      7  O   UNL d   1      32.041  16.488 -24.916  0.00  0.00    -0.307 OA
ATOM      8  C   UNL d   1      32.830  16.338 -24.772  0.00  0.00     0.100 A 
ATOM      9  C   UNL d   1      33.212  17.067 -24.681  0.00  0.00     0.027 A 
ATOM     10  C   UNL d   1      33.183  15.602 -24.726  0.00  0.00     0.027 C 
ATOM     11  C   UNL d   1      32.650  17.663 -24.770  0.00  0.00     0.027 A 
ENDBRANCH   5   6
ENDBRANCH   4   5
ENDBRANCH   1   4
BRANCH   2  12
ATOM     12  C   UNL d   1      29.072  17.048 -24.001  0.00  0.00     0.085 A 
ATOM     13  C   UNL d   1      29.317  16.645 -23.323  0.00  0.00     0.019 A 
ATOM     14  C   UNL d   1      29.135  15.854 -23.230  0.00  0.00     0.002 A 
ATOM     15  C   UNL d   1      29.379  15.453 -22.557  0.00  0.00     0.000 C 
ATOM     16  C   UNL d   1      28.702  15.453 -23.820  0.00  0.00     0.000 A 
ATOM     17  C   UNL d   1      28.461  15.867 -24.496  0.00  0.00     0.002 A 
ATOM     18  C   UNL d   1      28.645  16.657 -24.585  0.00  0.00     0.019 A 
ATOM     19  C   UNL d   1      28.032  15.469 -25.080  0.00  0.00     0.000 C 
ENDBRANCH   2  12
TORSDOF 4
ENDMDL
