MODEL 1
REMARK VINA RESULT:     146.0      0.000      0.000
REMARK  6 active torsions:
REMARK  status: ('A' for Active; 'I' for Inactive)
REMARK    1  A    between atoms: C_5  and  N_1 
REMARK    2  A    between atoms: C_2  and  C_4 
REMARK       I    between atoms: N_3  and  C_2 
REMARK    3  A    between atoms: C_7  and  N_3 
REMARK       I    between atoms: C_4  and  N_8 
REMARK    4  A    between atoms: C_10  and  C_5 
REMARK    5  A    between atoms: C_14  and  C_5 
REMARK    6  A    between atoms: N_8  and  C_10 
ROOT
ATOM      1  C   UNL d   1     -57.212-101.018 -43.321  0.00  0.00     0.085 C 
ENDROOT
BRANCH   1   2
ATOM      2  N   UNL d   1     -56.580-100.750 -43.807  0.00  0.00    -0.302 N 
ATOM      3  C   UNL d   1     -56.630-100.022 -44.192  0.00  0.00     0.080 A 
ATOM      4  C   UNL d   1     -56.008 -99.764 -44.667  0.00  0.00     0.018 A 
ATOM      5  C   UNL d   1     -56.058 -99.032 -45.054  0.00  0.00     0.002 A 
ATOM      6  C   UNL d   1     -55.338-100.233 -44.756  0.00  0.00     0.003 A 
ATOM      7  C   UNL d   1     -55.437 -98.767 -45.532  0.00  0.00     0.000 A 
ATOM      8  C   UNL d   1     -54.762 -99.244 -45.620  0.00  0.00     0.000 A 
ATOM      9  C   UNL d   1     -54.713 -99.976 -45.232  0.00  0.00     0.000 A 
ATOM     10  C   UNL d   1     -55.288-100.961 -44.370  0.00  0.00     0.019 A 
ATOM     11  C   UNL d   1     -55.909-101.220 -43.896  0.00  0.00     0.080 A 
ENDBRANCH   1   2
BRANCH   1  12
ATOM     12  C   UNL d   1     -57.159-101.746 -42.937  0.00  0.00     0.120 C 
BRANCH  12  13
ATOM     13  N   UNL d   1     -56.653-101.841 -42.293  0.00  0.00    -0.201 NA
ATOM     14  C   UNL d   1     -56.949-102.124 -41.568  0.00  0.00     0.337 C 
ATOM     15  O   UNL d   1     -57.752-102.310 -41.495  0.00  0.00    -0.260 OA
BRANCH  14  16
ATOM     16  C   UNL d   1     -56.444-102.219 -40.926  0.00  0.00     0.337 C 
ATOM     17  N   UNL d   1     -56.744-102.474 -40.195  0.00  0.00    -0.202 NA
ATOM     18  O   UNL d   1     -55.633-102.061 -41.006  0.00  0.00    -0.260 OA
BRANCH  17  19
ATOM     19  C   UNL d   1     -56.231-102.569 -39.549  0.00  0.00     0.112 A 
ATOM     20  C   UNL d   1     -56.536-102.768 -38.809  0.00  0.00     0.160 A 
ATOM     21  C   UNL d   1     -56.039-102.863 -38.169  0.00  0.00     0.061 A 
ATOM     22  F   UNL d   1     -57.364-102.875 -38.706  0.00  0.00    -0.203 F 
ATOM     23  C   UNL d   1     -55.220-102.758 -38.263  0.00  0.00     0.142 A 
ATOM     24  C   UNL d   1     -54.915-102.559 -39.003  0.00  0.00     0.031 A 
ATOM     25  F   UNL d   1     -54.715-102.856 -37.607  0.00  0.00    -0.204 F 
ATOM     26  C   UNL d   1     -55.428-102.464 -39.649  0.00  0.00     0.024 A 
ENDBRANCH  17  19
ENDBRANCH  14  16
ENDBRANCH  12  13
ENDBRANCH   1  12
BRANCH   1  27
ATOM     27  C   UNL d   1     -57.882-100.549 -43.232  0.00  0.00     0.037 A 
ATOM     28  C   UNL d   1     -57.803 -99.743 -43.084  0.00  0.00     0.100 A 
ATOM     29  N   UNL d   1     -58.473 -99.274 -42.995  0.00  0.00    -0.242 NA
ATOM     30  C   UNL d   1     -59.227 -99.613 -43.055  0.00  0.00     0.099 A 
ATOM     31  C   UNL d   1     -59.308-100.419 -43.203  0.00  0.00     0.021 A 
ATOM     32  C   UNL d   1     -58.636-100.888 -43.292  0.00  0.00     0.005 A 
ENDBRANCH   1  27
TORSDOF 6
ENDMDL
