MODEL 1
REMARK VINA RESULT:      -6.5      0.000      0.000
REMARK  4 active torsions:
REMARK  status: ('A' for Active; 'I' for Inactive)
REMARK       I    between atoms: N_2  and  C_1 
REMARK    1  A    between atoms: C_4  and  C_1 
REMARK    2  A    between atoms: C_5  and  N_3 
REMARK    3  A    between atoms: O_21  and  C_8 
REMARK    4  A    between atoms: O_22  and  C_15 
ROOT
ATOM      1  C   UNL d   1     -49.256  12.311  22.971  0.00  0.00     0.265 C 
ATOM      2  N   UNL d   1     -48.439  12.279  23.047  0.00  0.00    -0.269 N 
ATOM      3  N   UNL d   1     -46.811  12.211  23.200  0.00  0.00    -0.301 N 
ATOM      4  C   UNL d   1     -48.062  11.551  23.047  0.00  0.00     0.102 A 
ATOM      5  C   UNL d   1     -48.010  12.972  23.122  0.00  0.00     0.102 A 
ATOM      6  C   UNL d   1     -47.194  12.938  23.199  0.00  0.00     0.100 A 
ATOM      7  C   UNL d   1     -47.240  11.521  23.124  0.00  0.00     0.100 A 
ATOM      8  O   UNL d   1     -49.693  11.617  22.895  0.00  0.00    -0.267 OA
ENDROOT
BRANCH   1   9
ATOM      9  C   UNL d   1     -49.638  13.042  22.970  0.00  0.00     0.059 A 
ATOM     10  C   UNL d   1     -49.874  13.384  22.254  0.00  0.00     0.031 A 
ATOM     11  C   UNL d   1     -50.262  14.127  22.250  0.00  0.00     0.116 A 
ATOM     12  C   UNL d   1     -50.410  14.517  22.958  0.00  0.00     0.116 A 
ATOM     13  C   UNL d   1     -50.172  14.173  23.685  0.00  0.00     0.026 A 
ATOM     14  C   UNL d   1     -49.786  13.436  23.697  0.00  0.00     0.007 A 
BRANCH  11  15
ATOM     15  O   UNL d   1     -50.493  14.460  21.540  0.00  0.00    -0.326 OA
ATOM     16  C   UNL d   1     -50.991  14.049  21.025  0.00  0.00     0.181 C 
ENDBRANCH  11  15
BRANCH  12  17
ATOM     17  O   UNL d   1     -50.792  15.247  22.957  0.00  0.00    -0.326 OA
ATOM     18  C   UNL d   1     -50.556  15.837  23.483  0.00  0.00     0.181 C 
ENDBRANCH  12  17
ENDBRANCH   1   9
BRANCH   3  19
ATOM     19  C   UNL d   1     -46.116  11.765  23.244  0.00  0.00     0.064 A 
ATOM     20  C   UNL d   1     -45.437  12.032  22.885  0.00  0.00     0.018 A 
ATOM     21  C   UNL d   1     -44.744  11.592  22.926  0.00  0.00     0.001 A 
ATOM     22  C   UNL d   1     -44.060  11.869  22.559  0.00  0.00     0.000 C 
ATOM     23  C   UNL d   1     -44.738  10.875  23.335  0.00  0.00     0.000 A 
ATOM     24  C   UNL d   1     -45.427  10.608  23.698  0.00  0.00     0.002 A 
ATOM     25  C   UNL d   1     -44.045  10.427  23.381  0.00  0.00     0.000 C 
ATOM     26  C   UNL d   1     -46.124  11.048  23.657  0.00  0.00     0.018 A 
ENDBRANCH   3  19
TORSDOF 4
ENDMDL
MODEL 2
REMARK VINA RESULT:      -6.5      1.244      1.576
REMARK  4 active torsions:
REMARK  status: ('A' for Active; 'I' for Inactive)
REMARK       I    between atoms: N_2  and  C_1 
REMARK    1  A    between atoms: C_4  and  C_1 
REMARK    2  A    between atoms: C_5  and  N_3 
REMARK    3  A    between atoms: O_21  and  C_8 
REMARK    4  A    between atoms: O_22  and  C_15 
ROOT
ATOM      1  C   UNL d   1     -48.853  13.329  21.780  0.00  0.00     0.265 C 
ATOM      2  N   UNL d   1     -48.081  13.264  22.053  0.00  0.00    -0.269 N 
ATOM      3  N   UNL d   1     -46.543  13.133  22.594  0.00  0.00    -0.301 N 
ATOM      4  C   UNL d   1     -47.542  12.811  21.634  0.00  0.00     0.102 A 
ATOM      5  C   UNL d   1     -47.859  13.651  22.738  0.00  0.00     0.102 A 
ATOM      6  C   UNL d   1     -47.087  13.585  23.010  0.00  0.00     0.100 A 
ATOM      7  C   UNL d   1     -46.766  12.747  21.911  0.00  0.00     0.100 A 
ATOM      8  O   UNL d   1     -49.083  12.941  21.090  0.00  0.00    -0.267 OA
ENDROOT
BRANCH   1   9
ATOM      9  C   UNL d   1     -49.398  13.784  22.199  0.00  0.00     0.059 A 
ATOM     10  C   UNL d   1     -49.949  13.415  22.696  0.00  0.00     0.031 A 
ATOM     11  C   UNL d   1     -50.504  13.874  23.123  0.00  0.00     0.116 A 
ATOM     12  C   UNL d   1     -50.503  14.693  23.050  0.00  0.00     0.116 A 
ATOM     13  C   UNL d   1     -49.947  15.069  22.548  0.00  0.00     0.026 A 
ATOM     14  C   UNL d   1     -49.392  14.620  22.120  0.00  0.00     0.007 A 
BRANCH  11  15
ATOM     15  O   UNL d   1     -51.045  13.504  23.612  0.00  0.00    -0.326 OA
ATOM     16  C   UNL d   1     -51.052  12.682  23.684  0.00  0.00     0.181 C 
ENDBRANCH  11  15
BRANCH  12  17
ATOM     17  O   UNL d   1     -51.048  15.147  23.469  0.00  0.00    -0.326 OA
ATOM     18  C   UNL d   1     -50.863  15.922  23.683  0.00  0.00     0.181 C 
ENDBRANCH  12  17
ENDBRANCH   1   9
BRANCH   3  19
ATOM     19  C   UNL d   1     -45.779  12.829  22.507  0.00  0.00     0.064 A 
ATOM     20  C   UNL d   1     -45.243  13.206  22.025  0.00  0.00     0.018 A 
ATOM     21  C   UNL d   1     -44.482  12.908  21.935  0.00  0.00     0.001 A 
ATOM     22  C   UNL d   1     -43.945  13.296  21.444  0.00  0.00     0.000 C 
ATOM     23  C   UNL d   1     -44.262  12.222  22.336  0.00  0.00     0.000 A 
ATOM     24  C   UNL d   1     -44.806  11.842  22.823  0.00  0.00     0.002 A 
ATOM     25  C   UNL d   1     -43.498  11.916  22.250  0.00  0.00     0.000 C 
ATOM     26  C   UNL d   1     -45.570  12.140  22.915  0.00  0.00     0.018 A 
ENDBRANCH   3  19
TORSDOF 4
ENDMDL
MODEL 3
REMARK VINA RESULT:      -5.8      8.973     10.546
REMARK  4 active torsions:
REMARK  status: ('A' for Active; 'I' for Inactive)
REMARK       I    between atoms: N_2  and  C_1 
REMARK    1  A    between atoms: C_4  and  C_1 
REMARK    2  A    between atoms: C_5  and  N_3 
REMARK    3  A    between atoms: O_21  and  C_8 
REMARK    4  A    between atoms: O_22  and  C_15 
ROOT
ATOM      1  C   UNL d   1     -40.004  14.631  20.326  0.00  0.00     0.265 C 
ATOM      2  N   UNL d   1     -39.524  14.602  19.660  0.00  0.00    -0.269 N 
ATOM      3  N   UNL d   1     -38.569  14.544  18.333  0.00  0.00    -0.301 N 
ATOM      4  C   UNL d   1     -39.861  14.479  18.924  0.00  0.00     0.102 A 
ATOM      5  C   UNL d   1     -38.715  14.697  19.739  0.00  0.00     0.102 A 
ATOM      6  C   UNL d   1     -38.236  14.668  19.073  0.00  0.00     0.100 A 
ATOM      7  C   UNL d   1     -39.376  14.450  18.256  0.00  0.00     0.100 A 
ATOM      8  O   UNL d   1     -40.819  14.537  20.253  0.00  0.00    -0.267 OA
ENDROOT
BRANCH   1   9
ATOM      9  C   UNL d   1     -39.667  14.756  21.068  0.00  0.00     0.059 A 
ATOM     10  C   UNL d   1     -39.486  14.109  21.553  0.00  0.00     0.031 A 
ATOM     11  C   UNL d   1     -39.144  14.232  22.308  0.00  0.00     0.116 A 
ATOM     12  C   UNL d   1     -38.987  14.996  22.568  0.00  0.00     0.116 A 
ATOM     13  C   UNL d   1     -39.170  15.652  22.080  0.00  0.00     0.026 A 
ATOM     14  C   UNL d   1     -39.509  15.538  21.329  0.00  0.00     0.007 A 
BRANCH  11  15
ATOM     15  O   UNL d   1     -38.967  13.590  22.782  0.00  0.00    -0.326 OA
ATOM     16  C   UNL d   1     -38.544  12.948  22.480  0.00  0.00     0.181 C 
ENDBRANCH  11  15
BRANCH  12  17
ATOM     17  O   UNL d   1     -38.651  15.119  23.310  0.00  0.00    -0.326 OA
ATOM     18  C   UNL d   1     -38.441  15.881  23.547  0.00  0.00     0.181 C 
ENDBRANCH  12  17
ENDBRANCH   1   9
BRANCH   3  19
ATOM     19  C   UNL d   1     -38.489  14.454  17.515  0.00  0.00     0.064 A 
ATOM     20  C   UNL d   1     -38.257  13.740  17.204  0.00  0.00     0.018 A 
ATOM     21  C   UNL d   1     -38.175  13.646  16.391  0.00  0.00     0.001 A 
ATOM     22  C   UNL d   1     -37.940  12.919  16.084  0.00  0.00     0.000 C 
ATOM     23  C   UNL d   1     -38.331  14.282  15.888  0.00  0.00     0.000 A 
ATOM     24  C   UNL d   1     -38.566  15.004  16.206  0.00  0.00     0.002 A 
ATOM     25  C   UNL d   1     -38.252  14.196  15.070  0.00  0.00     0.000 C 
ATOM     26  C   UNL d   1     -38.648  15.100  17.022  0.00  0.00     0.018 A 
ENDBRANCH   3  19
TORSDOF 4
ENDMDL
MODEL 4
REMARK VINA RESULT:      -4.6      8.429     10.852
REMARK  4 active torsions:
REMARK  status: ('A' for Active; 'I' for Inactive)
REMARK       I    between atoms: N_2  and  C_1 
REMARK    1  A    between atoms: C_4  and  C_1 
REMARK    2  A    between atoms: C_5  and  N_3 
REMARK    3  A    between atoms: O_21  and  C_8 
REMARK    4  A    between atoms: O_22  and  C_15 
ROOT
ATOM      1  C   UNL d   1     -40.056  14.154  18.823  0.00  0.00     0.265 C 
ATOM      2  N   UNL d   1     -39.561  14.309  18.186  0.00  0.00    -0.269 N 
ATOM      3  N   UNL d   1     -38.577  14.615  16.916  0.00  0.00    -0.301 N 
ATOM      4  C   UNL d   1     -39.777  14.058  17.437  0.00  0.00     0.102 A 
ATOM      5  C   UNL d   1     -38.859  14.710  18.306  0.00  0.00     0.102 A 
ATOM      6  C   UNL d   1     -38.365  14.864  17.669  0.00  0.00     0.100 A 
ATOM      7  C   UNL d   1     -39.278  14.214  16.798  0.00  0.00     0.100 A 
ATOM      8  O   UNL d   1     -40.765  13.750  18.709  0.00  0.00    -0.267 OA
ENDROOT
BRANCH   1   9
ATOM      9  C   UNL d   1     -39.841  14.405  19.579  0.00  0.00     0.059 A 
ATOM     10  C   UNL d   1     -40.347  14.899  20.009  0.00  0.00     0.031 A 
ATOM     11  C   UNL d   1     -40.133  15.157  20.777  0.00  0.00     0.116 A 
ATOM     12  C   UNL d   1     -39.417  14.918  21.104  0.00  0.00     0.116 A 
ATOM     13  C   UNL d   1     -38.903  14.418  20.671  0.00  0.00     0.026 A 
ATOM     14  C   UNL d   1     -39.109  14.159  19.908  0.00  0.00     0.007 A 
BRANCH  11  15
ATOM     15  O   UNL d   1     -40.636  15.644  21.197  0.00  0.00    -0.326 OA
ATOM     16  C   UNL d   1     -41.448  15.638  21.048  0.00  0.00     0.181 C 
ENDBRANCH  11  15
BRANCH  12  17
ATOM     17  O   UNL d   1     -39.203  15.169  21.859  0.00  0.00    -0.326 OA
ATOM     18  C   UNL d   1     -38.703  14.705  22.323  0.00  0.00     0.181 C 
ENDBRANCH  12  17
ENDBRANCH   1   9
BRANCH   3  19
ATOM     19  C   UNL d   1     -38.416  14.557  16.106  0.00  0.00     0.064 A 
ATOM     20  C   UNL d   1     -38.258  15.227  15.673  0.00  0.00     0.018 A 
ATOM     21  C   UNL d   1     -38.099  15.174  14.869  0.00  0.00     0.001 A 
ATOM     22  C   UNL d   1     -37.940  15.858  14.437  0.00  0.00     0.000 C 
ATOM     23  C   UNL d   1     -38.099  14.436  14.499  0.00  0.00     0.000 A 
ATOM     24  C   UNL d   1     -38.260  13.760  14.940  0.00  0.00     0.002 A 
ATOM     25  C   UNL d   1     -37.940  14.376  13.690  0.00  0.00     0.000 C 
ATOM     26  C   UNL d   1     -38.420  13.811  15.748  0.00  0.00     0.018 A 
ENDBRANCH   3  19
TORSDOF 4
ENDMDL
