MODEL 1
REMARK VINA RESULT:      -3.2      0.000      0.000
REMARK  3 active torsions:
REMARK  status: ('A' for Active; 'I' for Inactive)
REMARK    1  A    between atoms: N_2  and  S_1 
REMARK    2  A    between atoms: C_3  and  S_1 
REMARK    3  A    between atoms: C_5  and  N_4 
ROOT
ATOM      1  N   UNL d   1      32.836  20.249 -21.983  0.00  0.00    -0.226 N 
ATOM      2  N   UNL d   1      32.844  18.880 -22.888  0.00  0.00    -0.301 N 
ATOM      3  C   UNL d   1      33.237  19.582 -21.717  0.00  0.00     0.111 A 
ATOM      4  C   UNL d   1      32.439  20.229 -22.703  0.00  0.00     0.111 A 
ATOM      5  C   UNL d   1      33.241  18.894 -22.172  0.00  0.00     0.100 A 
ATOM      6  C   UNL d   1      32.443  19.541 -23.158  0.00  0.00     0.100 A 
ENDROOT
BRANCH   1   7
ATOM      7  S   UNL d   1      32.832  20.937 -21.528  0.00  0.00     0.271 S 
ATOM      8  O   UNL d   1      32.502  20.519 -20.898  0.00  0.00    -0.200 OA
ATOM      9  O   UNL d   1      33.163  21.355 -22.157  0.00  0.00    -0.200 OA
BRANCH   7  10
ATOM     10  C   UNL d   1      32.828  21.625 -21.073  0.00  0.00     0.104 A 
ATOM     11  C   UNL d   1      32.443  22.299 -21.346  0.00  0.00     0.015 A 
ATOM     12  C   UNL d   1      32.439  22.987 -20.891  0.00  0.00     0.028 A 
ATOM     13  C   UNL d   1      32.051  23.663 -21.169  0.00  0.00     0.002 C 
ATOM     14  C   UNL d   1      32.821  23.002 -20.162  0.00  0.00     0.140 A 
ATOM     15  C   UNL d   1      33.206  22.329 -19.888  0.00  0.00     0.030 A 
ATOM     16  F   UNL d   1      32.817  23.690 -19.707  0.00  0.00    -0.204 F 
ATOM     17  C   UNL d   1      33.210  21.640 -20.343  0.00  0.00     0.015 A 
ENDBRANCH   7  10
ENDBRANCH   1   7
BRANCH   2  18
ATOM     18  C   UNL d   1      32.848  18.192 -23.343  0.00  0.00     0.064 A 
ATOM     19  C   UNL d   1      33.046  18.226 -24.141  0.00  0.00     0.016 A 
ATOM     20  C   UNL d   1      33.049  17.538 -24.596  0.00  0.00     0.001 A 
ATOM     21  C   UNL d   1      33.241  18.951 -24.488  0.00  0.00     0.002 C 
ATOM     22  C   UNL d   1      32.855  16.815 -24.253  0.00  0.00     0.000 A 
ATOM     23  C   UNL d   1      32.657  16.781 -23.455  0.00  0.00     0.002 A 
ATOM     24  C   UNL d   1      32.859  16.128 -24.708  0.00  0.00     0.000 C 
ATOM     25  C   UNL d   1      32.654  17.469 -23.000  0.00  0.00     0.018 A 
ENDBRANCH   2  18
TORSDOF 3
ENDMDL
MODEL 2
REMARK VINA RESULT:      -1.1      2.010      5.519
REMARK  3 active torsions:
REMARK  status: ('A' for Active; 'I' for Inactive)
REMARK    1  A    between atoms: N_2  and  S_1 
REMARK    2  A    between atoms: C_3  and  S_1 
REMARK    3  A    between atoms: C_5  and  N_4 
ROOT
ATOM      1  N   UNL d   1      32.864  21.508 -21.291  0.00  0.00    -0.226 N 
ATOM      2  N   UNL d   1      32.741  22.236 -19.826  0.00  0.00    -0.301 N 
ATOM      3  C   UNL d   1      33.241  22.227 -21.155  0.00  0.00     0.111 A 
ATOM      4  C   UNL d   1      32.426  21.155 -20.692  0.00  0.00     0.111 A 
ATOM      5  C   UNL d   1      33.179  22.593 -20.419  0.00  0.00     0.100 A 
ATOM      6  C   UNL d   1      32.363  21.521 -19.955  0.00  0.00     0.100 A 
ENDROOT
BRANCH   1   7
ATOM      7  S   UNL d   1      32.926  21.142 -22.028  0.00  0.00     0.271 S 
ATOM      8  O   UNL d   1      33.144  20.437 -21.659  0.00  0.00    -0.200 OA
ATOM      9  O   UNL d   1      32.709  21.847 -22.397  0.00  0.00    -0.200 OA
BRANCH   7  10
ATOM     10  C   UNL d   1      32.989  20.776 -22.765  0.00  0.00     0.104 A 
ATOM     11  C   UNL d   1      32.933  19.957 -22.825  0.00  0.00     0.015 A 
ATOM     12  C   UNL d   1      32.996  19.591 -23.562  0.00  0.00     0.028 A 
ATOM     13  C   UNL d   1      32.940  18.768 -23.619  0.00  0.00     0.002 C 
ATOM     14  C   UNL d   1      33.113  20.044 -24.238  0.00  0.00     0.140 A 
ATOM     15  C   UNL d   1      33.168  20.862 -24.179  0.00  0.00     0.030 A 
ATOM     16  F   UNL d   1      33.175  19.677 -24.975  0.00  0.00    -0.204 F 
ATOM     17  C   UNL d   1      33.106  21.228 -23.442  0.00  0.00     0.015 A 
ENDBRANCH   7  10
ENDBRANCH   1   7
BRANCH   2  18
ATOM     18  C   UNL d   1      32.678  22.602 -19.089  0.00  0.00     0.064 A 
ATOM     19  C   UNL d   1      32.177  23.247 -18.990  0.00  0.00     0.016 A 
ATOM     20  C   UNL d   1      32.114  23.613 -18.253  0.00  0.00     0.001 A 
ATOM     21  C   UNL d   1      31.734  23.529 -19.630  0.00  0.00     0.002 C 
ATOM     22  C   UNL d   1      32.554  23.335 -17.615  0.00  0.00     0.000 A 
ATOM     23  C   UNL d   1      33.056  22.690 -17.715  0.00  0.00     0.002 A 
ATOM     24  C   UNL d   1      32.492  23.701 -16.879  0.00  0.00     0.000 C 
ATOM     25  C   UNL d   1      33.118  22.324 -18.452  0.00  0.00     0.018 A 
ENDBRANCH   2  18
TORSDOF 3
ENDMDL
MODEL 3
REMARK VINA RESULT:      -0.3      2.441      5.426
REMARK  3 active torsions:
REMARK  status: ('A' for Active; 'I' for Inactive)
REMARK    1  A    between atoms: N_2  and  S_1 
REMARK    2  A    between atoms: C_3  and  S_1 
REMARK    3  A    between atoms: C_5  and  N_4 
ROOT
ATOM      1  N   UNL d   1      32.320  19.095 -23.046  0.00  0.00    -0.226 N 
ATOM      2  N   UNL d   1      32.620  20.489 -22.234  0.00  0.00    -0.301 N 
ATOM      3  C   UNL d   1      31.700  19.513 -22.703  0.00  0.00     0.111 A 
ATOM      4  C   UNL d   1      33.090  19.376 -22.981  0.00  0.00     0.111 A 
ATOM      5  C   UNL d   1      31.851  20.214 -22.295  0.00  0.00     0.100 A 
ATOM      6  C   UNL d   1      33.241  20.077 -22.573  0.00  0.00     0.100 A 
ENDROOT
BRANCH   1   7
ATOM      7  S   UNL d   1      32.169  18.394 -23.454  0.00  0.00     0.271 S 
ATOM      8  O   UNL d   1      31.623  18.788 -23.930  0.00  0.00    -0.200 OA
ATOM      9  O   UNL d   1      32.715  17.999 -22.977  0.00  0.00    -0.200 OA
BRANCH   7  10
ATOM     10  C   UNL d   1      32.018  17.693 -23.862  0.00  0.00     0.104 A 
ATOM     11  C   UNL d   1      31.557  17.105 -23.516  0.00  0.00     0.015 A 
ATOM     12  C   UNL d   1      31.406  16.404 -23.925  0.00  0.00     0.028 A 
ATOM     13  C   UNL d   1      30.942  15.815 -23.575  0.00  0.00     0.002 C 
ATOM     14  C   UNL d   1      31.716  16.291 -24.678  0.00  0.00     0.140 A 
ATOM     15  C   UNL d   1      32.177  16.878 -25.024  0.00  0.00     0.030 A 
ATOM     16  F   UNL d   1      31.565  15.590 -25.086  0.00  0.00    -0.204 F 
ATOM     17  C   UNL d   1      32.328  17.579 -24.616  0.00  0.00     0.015 A 
ENDBRANCH   7  10
ENDBRANCH   1   7
BRANCH   2  18
ATOM     18  C   UNL d   1      32.771  21.190 -21.826  0.00  0.00     0.064 A 
ATOM     19  C   UNL d   1      32.959  21.169 -21.025  0.00  0.00     0.016 A 
ATOM     20  C   UNL d   1      33.110  21.870 -20.617  0.00  0.00     0.001 A 
ATOM     21  C   UNL d   1      32.998  20.444 -20.628  0.00  0.00     0.002 C 
ATOM     22  C   UNL d   1      33.073  22.592 -21.009  0.00  0.00     0.000 A 
ATOM     23  C   UNL d   1      32.884  22.613 -21.810  0.00  0.00     0.002 A 
ATOM     24  C   UNL d   1      33.223  23.293 -20.601  0.00  0.00     0.000 C 
ATOM     25  C   UNL d   1      32.733  21.912 -22.218  0.00  0.00     0.018 A 
ENDBRANCH   2  18
TORSDOF 3
ENDMDL
