MODEL 1
REMARK VINA RESULT:      -3.5      0.000      0.000
REMARK  3 active torsions:
REMARK  status: ('A' for Active; 'I' for Inactive)
REMARK    1  A    between atoms: C_10  and  N_1 
REMARK       I    between atoms: N_3  and  C_4 
REMARK    2  A    between atoms: C_4  and  C_10 
REMARK    3  A    between atoms: O_17  and  C_13 
ROOT
ATOM      1  N   UNL d   1      33.069  19.335 -23.312  0.00  0.00    -0.268 N 
ATOM      2  C   UNL d   1      32.892  19.065 -24.078  0.00  0.00     0.265 A 
ATOM      3  C   UNL d   1      32.723  18.268 -24.204  0.00  0.00     0.059 A 
ATOM      4  C   UNL d   1      32.730  17.736 -23.574  0.00  0.00     0.028 A 
ATOM      5  C   UNL d   1      32.905  17.994 -22.808  0.00  0.00     0.021 A 
ATOM      6  C   UNL d   1      33.076  18.801 -22.679  0.00  0.00     0.083 A 
ATOM      7  O   UNL d   1      32.885  19.597 -24.708  0.00  0.00    -0.267 OA
ATOM      8  C   UNL d   1      32.561  16.941 -23.703  0.00  0.00     0.094 A 
ATOM      9  C   UNL d   1      32.548  18.008 -24.967  0.00  0.00     0.005 A 
ATOM     10  C   UNL d   1      32.379  17.212 -25.096  0.00  0.00     0.002 A 
ATOM     11  C   UNL d   1      32.386  16.681 -24.466  0.00  0.00     0.024 A 
ENDROOT
BRANCH   1  12
ATOM     12  C   UNL d   1      33.238  20.130 -23.183  0.00  0.00     0.144 C 
BRANCH  12  13
ATOM     13  C   UNL d   1      33.033  20.483 -22.465  0.00  0.00     0.283 C 
ATOM     14  N   UNL d   1      33.032  21.304 -22.386  0.00  0.00    -0.272 N 
ATOM     15  C   UNL d   1      32.829  21.645 -21.672  0.00  0.00     0.067 A 
ATOM     16  C   UNL d   1      33.239  21.778 -23.039  0.00  0.00     0.083 A 
ATOM     17  C   UNL d   1      32.829  22.470 -21.598  0.00  0.00     0.016 A 
ATOM     18  C   UNL d   1      32.626  21.177 -21.035  0.00  0.00     0.018 A 
ATOM     19  C   UNL d   1      32.625  22.819 -20.884  0.00  0.00     0.001 A 
ATOM     20  C   UNL d   1      33.034  22.950 -22.241  0.00  0.00     0.003 A 
ATOM     21  C   UNL d   1      32.420  22.351 -20.239  0.00  0.00     0.000 A 
ATOM     22  C   UNL d   1      32.420  21.521 -20.314  0.00  0.00     0.002 A 
ATOM     23  C   UNL d   1      33.237  22.606 -22.956  0.00  0.00     0.019 A 
ATOM     24  O   UNL d   1      32.828  20.006 -21.820  0.00  0.00    -0.265 OA
ENDBRANCH  12  13
ENDBRANCH   1  12
BRANCH   8  25
ATOM     25  O   UNL d   1      32.567  16.407 -23.076  0.00  0.00    -0.328 OA
ATOM     26  C   UNL d   1      32.234  15.662 -23.166  0.00  0.00     0.181 C 
ENDBRANCH   8  25
TORSDOF 3
ENDMDL
MODEL 2
REMARK VINA RESULT:      -3.4      1.092      4.894
REMARK  3 active torsions:
REMARK  status: ('A' for Active; 'I' for Inactive)
REMARK    1  A    between atoms: C_10  and  N_1 
REMARK       I    between atoms: N_3  and  C_4 
REMARK    2  A    between atoms: C_4  and  C_10 
REMARK    3  A    between atoms: O_17  and  C_13 
ROOT
ATOM      1  N   UNL d   1      33.105  21.270 -22.109  0.00  0.00    -0.268 N 
ATOM      2  C   UNL d   1      32.835  22.055 -22.154  0.00  0.00     0.265 A 
ATOM      3  C   UNL d   1      32.700  22.482 -21.461  0.00  0.00     0.059 A 
ATOM      4  C   UNL d   1      32.831  22.136 -20.726  0.00  0.00     0.028 A 
ATOM      5  C   UNL d   1      33.100  21.355 -20.670  0.00  0.00     0.021 A 
ATOM      6  C   UNL d   1      33.237  20.922 -21.370  0.00  0.00     0.083 A 
ATOM      7  O   UNL d   1      32.704  22.401 -22.890  0.00  0.00    -0.267 OA
ATOM      8  C   UNL d   1      32.695  22.565 -20.037  0.00  0.00     0.094 A 
ATOM      9  C   UNL d   1      32.432  23.261 -21.514  0.00  0.00     0.005 A 
ATOM     10  C   UNL d   1      32.296  23.690 -20.825  0.00  0.00     0.002 A 
ATOM     11  C   UNL d   1      32.427  23.344 -20.089  0.00  0.00     0.024 A 
ENDROOT
BRANCH   1  12
ATOM     12  C   UNL d   1      33.241  20.841 -22.798  0.00  0.00     0.144 C 
BRANCH  12  13
ATOM     13  C   UNL d   1      33.086  20.029 -22.815  0.00  0.00     0.283 C 
ATOM     14  N   UNL d   1      33.085  19.617 -23.529  0.00  0.00    -0.272 N 
ATOM     15  C   UNL d   1      32.931  18.815 -23.536  0.00  0.00     0.067 A 
ATOM     16  C   UNL d   1      33.241  20.026 -24.238  0.00  0.00     0.083 A 
ATOM     17  C   UNL d   1      32.931  18.405 -24.257  0.00  0.00     0.016 A 
ATOM     18  C   UNL d   1      32.779  18.418 -22.840  0.00  0.00     0.018 A 
ATOM     19  C   UNL d   1      32.777  17.599 -24.271  0.00  0.00     0.001 A 
ATOM     20  C   UNL d   1      33.085  18.802 -24.967  0.00  0.00     0.003 A 
ATOM     21  C   UNL d   1      32.623  17.195 -23.571  0.00  0.00     0.000 A 
ATOM     22  C   UNL d   1      32.624  17.607 -22.847  0.00  0.00     0.002 A 
ATOM     23  C   UNL d   1      33.239  19.606 -24.956  0.00  0.00     0.019 A 
ATOM     24  O   UNL d   1      32.932  19.629 -22.107  0.00  0.00    -0.265 OA
ENDBRANCH  12  13
ENDBRANCH   1  12
BRANCH   8  25
ATOM     25  O   UNL d   1      32.826  22.222 -19.299  0.00  0.00    -0.328 OA
ATOM     26  C   UNL d   1      32.945  22.696 -18.640  0.00  0.00     0.181 C 
ENDBRANCH   8  25
TORSDOF 3
ENDMDL
MODEL 3
REMARK VINA RESULT:      -3.1      1.150      4.953
REMARK  3 active torsions:
REMARK  status: ('A' for Active; 'I' for Inactive)
REMARK    1  A    between atoms: C_10  and  N_1 
REMARK       I    between atoms: N_3  and  C_4 
REMARK    2  A    between atoms: C_4  and  C_10 
REMARK    3  A    between atoms: O_17  and  C_13 
ROOT
ATOM      1  N   UNL d   1      33.056  19.081 -23.211  0.00  0.00    -0.268 N 
ATOM      2  C   UNL d   1      33.149  19.838 -23.540  0.00  0.00     0.265 A 
ATOM      3  C   UNL d   1      33.148  20.501 -23.050  0.00  0.00     0.059 A 
ATOM      4  C   UNL d   1      33.056  20.418 -22.236  0.00  0.00     0.028 A 
ATOM      5  C   UNL d   1      32.963  19.668 -21.897  0.00  0.00     0.021 A 
ATOM      6  C   UNL d   1      32.963  18.996 -22.393  0.00  0.00     0.083 A 
ATOM      7  O   UNL d   1      33.241  19.922 -24.355  0.00  0.00    -0.267 OA
ATOM      8  C   UNL d   1      33.056  21.082 -21.749  0.00  0.00     0.094 A 
ATOM      9  C   UNL d   1      33.241  21.250 -23.384  0.00  0.00     0.005 A 
ATOM     10  C   UNL d   1      33.240  21.914 -22.898  0.00  0.00     0.002 A 
ATOM     11  C   UNL d   1      33.148  21.830 -22.084  0.00  0.00     0.024 A 
ENDROOT
BRANCH   1  12
ATOM     12  C   UNL d   1      33.056  18.416 -23.697  0.00  0.00     0.144 C 
BRANCH  12  13
ATOM     13  C   UNL d   1      32.371  17.960 -23.773  0.00  0.00     0.283 C 
ATOM     14  N   UNL d   1      32.419  17.156 -23.943  0.00  0.00    -0.272 N 
ATOM     15  C   UNL d   1      31.737  16.713 -24.016  0.00  0.00     0.067 A 
ATOM     16  C   UNL d   1      33.167  16.802 -24.039  0.00  0.00     0.083 A 
ATOM     17  C   UNL d   1      31.790  15.903 -24.187  0.00  0.00     0.016 A 
ATOM     18  C   UNL d   1      31.006  17.063 -23.920  0.00  0.00     0.018 A 
ATOM     19  C   UNL d   1      31.108  15.453 -24.261  0.00  0.00     0.001 A 
ATOM     20  C   UNL d   1      32.529  15.542 -24.285  0.00  0.00     0.003 A 
ATOM     21  C   UNL d   1      30.370  15.802 -24.166  0.00  0.00     0.000 A 
ATOM     22  C   UNL d   1      30.316  16.616 -23.994  0.00  0.00     0.002 A 
ATOM     23  C   UNL d   1      33.211  15.989 -24.211  0.00  0.00     0.019 A 
ATOM     24  O   UNL d   1      31.631  18.319 -23.675  0.00  0.00    -0.265 OA
ENDBRANCH  12  13
ENDBRANCH   1  12
BRANCH   8  25
ATOM     25  O   UNL d   1      32.964  21.002 -20.934  0.00  0.00    -0.328 OA
ATOM     26  C   UNL d   1      33.061  21.652 -20.443  0.00  0.00     0.181 C 
ENDBRANCH   8  25
TORSDOF 3
ENDMDL
MODEL 4
REMARK VINA RESULT:      -2.7      1.197      2.225
REMARK  3 active torsions:
REMARK  status: ('A' for Active; 'I' for Inactive)
REMARK    1  A    between atoms: C_10  and  N_1 
REMARK       I    between atoms: N_3  and  C_4 
REMARK    2  A    between atoms: C_4  and  C_10 
REMARK    3  A    between atoms: O_17  and  C_13 
ROOT
ATOM      1  N   UNL d   1      32.579  18.103 -23.406  0.00  0.00    -0.268 N 
ATOM      2  C   UNL d   1      32.642  17.276 -23.358  0.00  0.00     0.265 A 
ATOM      3  C   UNL d   1      32.106  16.799 -23.765  0.00  0.00     0.059 A 
ATOM      4  C   UNL d   1      31.508  17.138 -24.219  0.00  0.00     0.028 A 
ATOM      5  C   UNL d   1      31.436  17.960 -24.273  0.00  0.00     0.021 A 
ATOM      6  C   UNL d   1      31.978  18.444 -23.862  0.00  0.00     0.083 A 
ATOM      7  O   UNL d   1      33.241  16.937 -22.905  0.00  0.00    -0.267 OA
ATOM      8  C   UNL d   1      30.974  16.660 -24.623  0.00  0.00     0.094 A 
ATOM      9  C   UNL d   1      32.175  15.978 -23.712  0.00  0.00     0.005 A 
ATOM     10  C   UNL d   1      31.641  15.500 -24.117  0.00  0.00     0.002 A 
ATOM     11  C   UNL d   1      31.043  15.839 -24.570  0.00  0.00     0.024 A 
ENDROOT
BRANCH   1  12
ATOM     12  C   UNL d   1      33.113  18.582 -23.002  0.00  0.00     0.144 C 
BRANCH  12  13
ATOM     13  C   UNL d   1      33.145  19.392 -23.164  0.00  0.00     0.283 C 
ATOM     14  N   UNL d   1      33.144  19.943 -22.551  0.00  0.00    -0.272 N 
ATOM     15  C   UNL d   1      33.175  20.741 -22.720  0.00  0.00     0.067 A 
ATOM     16  C   UNL d   1      33.110  19.677 -21.763  0.00  0.00     0.083 A 
ATOM     17  C   UNL d   1      33.174  21.291 -22.100  0.00  0.00     0.016 A 
ATOM     18  C   UNL d   1      33.209  20.997 -23.494  0.00  0.00     0.018 A 
ATOM     19  C   UNL d   1      33.206  22.095 -22.264  0.00  0.00     0.001 A 
ATOM     20  C   UNL d   1      33.140  21.037 -21.312  0.00  0.00     0.003 A 
ATOM     21  C   UNL d   1      33.239  22.357 -23.043  0.00  0.00     0.000 A 
ATOM     22  C   UNL d   1      33.241  21.804 -23.666  0.00  0.00     0.002 A 
ATOM     23  C   UNL d   1      33.108  20.236 -21.146  0.00  0.00     0.019 A 
ATOM     24  O   UNL d   1      33.179  19.649 -23.951  0.00  0.00    -0.265 OA
ENDBRANCH  12  13
ENDBRANCH   1  12
BRANCH   8  25
ATOM     25  O   UNL d   1      30.374  16.995 -25.078  0.00  0.00    -0.328 OA
ATOM     26  C   UNL d   1      29.625  16.662 -25.081  0.00  0.00     0.181 C 
ENDBRANCH   8  25
TORSDOF 3
ENDMDL
MODEL 5
REMARK VINA RESULT:      -1.7      0.992      1.462
REMARK  3 active torsions:
REMARK  status: ('A' for Active; 'I' for Inactive)
REMARK    1  A    between atoms: C_10  and  N_1 
REMARK       I    between atoms: N_3  and  C_4 
REMARK    2  A    between atoms: C_4  and  C_10 
REMARK    3  A    between atoms: O_17  and  C_13 
ROOT
ATOM      1  N   UNL d   1      33.027  20.350 -22.422  0.00  0.00    -0.268 N 
ATOM      2  C   UNL d   1      32.866  20.172 -23.217  0.00  0.00     0.265 A 
ATOM      3  C   UNL d   1      32.806  19.385 -23.458  0.00  0.00     0.059 A 
ATOM      4  C   UNL d   1      32.905  18.774 -22.913  0.00  0.00     0.028 A 
ATOM      5  C   UNL d   1      33.065  18.941 -22.119  0.00  0.00     0.021 A 
ATOM      6  C   UNL d   1      33.126  19.737 -21.875  0.00  0.00     0.083 A 
ATOM      7  O   UNL d   1      32.768  20.782 -23.762  0.00  0.00    -0.267 OA
ATOM      8  C   UNL d   1      32.844  17.990 -23.156  0.00  0.00     0.094 A 
ATOM      9  C   UNL d   1      32.646  19.216 -24.249  0.00  0.00     0.005 A 
ATOM     10  C   UNL d   1      32.585  18.432 -24.492  0.00  0.00     0.002 A 
ATOM     11  C   UNL d   1      32.684  17.821 -23.948  0.00  0.00     0.024 A 
ENDROOT
BRANCH   1  12
ATOM     12  C   UNL d   1      33.088  21.134 -22.179  0.00  0.00     0.144 C 
BRANCH  12  13
ATOM     13  C   UNL d   1      33.115  21.315 -21.372  0.00  0.00     0.283 C 
ATOM     14  N   UNL d   1      33.147  22.098 -21.119  0.00  0.00    -0.272 N 
ATOM     15  C   UNL d   1      33.173  22.268 -20.320  0.00  0.00     0.067 A 
ATOM     16  C   UNL d   1      33.152  22.711 -21.683  0.00  0.00     0.083 A 
ATOM     17  C   UNL d   1      33.205  23.057 -20.070  0.00  0.00     0.016 A 
ATOM     18  C   UNL d   1      33.167  21.665 -19.771  0.00  0.00     0.018 A 
ATOM     19  C   UNL d   1      33.231  23.234 -19.269  0.00  0.00     0.001 A 
ATOM     20  C   UNL d   1      33.211  23.674 -20.624  0.00  0.00     0.003 A 
ATOM     21  C   UNL d   1      33.226  22.629 -18.712  0.00  0.00     0.000 A 
ATOM     22  C   UNL d   1      33.194  21.836 -18.964  0.00  0.00     0.002 A 
ATOM     23  C   UNL d   1      33.184  23.501 -21.423  0.00  0.00     0.019 A 
ATOM     24  O   UNL d   1      33.109  20.701 -20.817  0.00  0.00    -0.265 OA
ENDBRANCH  12  13
ENDBRANCH   1  12
BRANCH   8  25
ATOM     25  O   UNL d   1      32.942  17.377 -22.614  0.00  0.00    -0.328 OA
ATOM     26  C   UNL d   1      33.229  16.650 -22.864  0.00  0.00     0.181 C 
ENDBRANCH   8  25
TORSDOF 3
ENDMDL
MODEL 6
REMARK VINA RESULT:      -1.5      1.708      2.316
REMARK  3 active torsions:
REMARK  status: ('A' for Active; 'I' for Inactive)
REMARK    1  A    between atoms: C_10  and  N_1 
REMARK       I    between atoms: N_3  and  C_4 
REMARK    2  A    between atoms: C_4  and  C_10 
REMARK    3  A    between atoms: O_17  and  C_13 
ROOT
ATOM      1  N   UNL d   1      31.872  18.039 -24.315  0.00  0.00    -0.268 N 
ATOM      2  C   UNL d   1      31.994  17.283 -24.638  0.00  0.00     0.265 A 
ATOM      3  C   UNL d   1      31.360  16.759 -24.706  0.00  0.00     0.059 A 
ATOM      4  C   UNL d   1      30.607  16.982 -24.457  0.00  0.00     0.028 A 
ATOM      5  C   UNL d   1      30.475  17.732 -24.135  0.00  0.00     0.021 A 
ATOM      6  C   UNL d   1      31.115  18.263 -24.065  0.00  0.00     0.083 A 
ATOM      7  O   UNL d   1      32.747  17.061 -24.887  0.00  0.00    -0.267 OA
ATOM      8  C   UNL d   1      29.977  16.457 -24.526  0.00  0.00     0.094 A 
ATOM      9  C   UNL d   1      31.488  16.010 -25.027  0.00  0.00     0.005 A 
ATOM     10  C   UNL d   1      30.858  15.485 -25.097  0.00  0.00     0.002 A 
ATOM     11  C   UNL d   1      30.105  15.708 -24.847  0.00  0.00     0.024 A 
ENDROOT
BRANCH   1  12
ATOM     12  C   UNL d   1      32.502  18.564 -24.246  0.00  0.00     0.144 C 
BRANCH  12  13
ATOM     13  C   UNL d   1      32.597  19.005 -23.553  0.00  0.00     0.283 C 
ATOM     14  N   UNL d   1      32.811  19.800 -23.587  0.00  0.00    -0.272 N 
ATOM     15  C   UNL d   1      32.903  20.227 -22.897  0.00  0.00     0.067 A 
ATOM     16  C   UNL d   1      32.932  20.159 -24.328  0.00  0.00     0.083 A 
ATOM     17  C   UNL d   1      33.118  21.027 -22.936  0.00  0.00     0.016 A 
ATOM     18  C   UNL d   1      32.783  19.871 -22.173  0.00  0.00     0.018 A 
ATOM     19  C   UNL d   1      33.212  21.462 -22.247  0.00  0.00     0.001 A 
ATOM     20  C   UNL d   1      33.241  21.394 -23.669  0.00  0.00     0.003 A 
ATOM     21  C   UNL d   1      33.092  21.106 -21.515  0.00  0.00     0.000 A 
ATOM     22  C   UNL d   1      32.876  20.303 -21.475  0.00  0.00     0.002 A 
ATOM     23  C   UNL d   1      33.148  20.962 -24.358  0.00  0.00     0.019 A 
ATOM     24  O   UNL d   1      32.475  18.640 -22.819  0.00  0.00    -0.265 OA
ENDBRANCH  12  13
ENDBRANCH   1  12
BRANCH   8  25
ATOM     25  O   UNL d   1      29.222  16.676 -24.278  0.00  0.00    -0.328 OA
ATOM     26  C   UNL d   1      28.628  16.113 -24.220  0.00  0.00     0.181 C 
ENDBRANCH   8  25
TORSDOF 3
ENDMDL
