MODEL 1
REMARK VINA RESULT:      -2.8      0.000      0.000
REMARK  2 active torsions:
REMARK  status: ('A' for Active; 'I' for Inactive)
REMARK       I    between atoms: C_7  and  N_1 
REMARK    1  A    between atoms: C_6  and  C_3 
REMARK    2  A    between atoms: C_8  and  C_4 
ROOT
ATOM      1  N   UNL d   1     -41.672-121.782 -51.607  0.00  0.00    -0.195 N 
ATOM      2  N   UNL d   1     -41.850-121.875 -50.820  0.00  0.00    -0.163 NA
ATOM      3  C   UNL d   1     -41.896-122.466 -52.008  0.00  0.00     0.091 A 
ATOM      4  C   UNL d   1     -42.187-122.624 -50.731  0.00  0.00     0.104 A 
ATOM      5  C   UNL d   1     -42.212-122.981 -51.464  0.00  0.00     0.040 A 
ATOM      6  C   UNL d   1     -41.314-121.096 -51.966  0.00  0.00     0.281 C 
ATOM      7  O   UNL d   1     -41.168-121.077 -52.755  0.00  0.00    -0.265 OA
ATOM      8  C   UNL d   1     -41.123-120.456 -51.484  0.00  0.00     0.068 C 
ENDROOT
BRANCH   3   9
ATOM      9  C   UNL d   1     -41.810-122.598 -52.822  0.00  0.00     0.057 A 
ATOM     10  C   UNL d   1     -41.426-123.257 -53.084  0.00  0.00     0.197 A 
ATOM     11  O   UNL d   1     -41.123-123.794 -52.558  0.00  0.00    -0.286 OA
ATOM     12  C   UNL d   1     -41.337-123.395 -53.898  0.00  0.00     0.042 A 
ATOM     13  C   UNL d   1     -41.639-122.860 -54.450  0.00  0.00     0.003 A 
ATOM     14  C   UNL d   1     -42.026-122.196 -54.164  0.00  0.00     0.000 A 
ATOM     15  C   UNL d   1     -42.110-122.066 -53.375  0.00  0.00     0.005 A 
ENDBRANCH   3   9
BRANCH   4  16
ATOM     16  C   UNL d   1     -42.453-122.953 -50.023  0.00  0.00     0.039 A 
ATOM     17  C   UNL d   1     -43.243-123.175 -49.941  0.00  0.00     0.101 A 
ATOM     18  N   UNL d   1     -43.509-123.504 -49.233  0.00  0.00    -0.242 NA
ATOM     19  C   UNL d   1     -42.983-123.612 -48.606  0.00  0.00     0.099 A 
ATOM     20  C   UNL d   1     -42.192-123.391 -48.687  0.00  0.00     0.021 A 
ATOM     21  C   UNL d   1     -41.927-123.061 -49.396  0.00  0.00     0.005 A 
ENDBRANCH   4  16
TORSDOF 2
ENDMDL
MODEL 2
REMARK VINA RESULT:      -2.3      1.282      2.093
REMARK  2 active torsions:
REMARK  status: ('A' for Active; 'I' for Inactive)
REMARK       I    between atoms: C_7  and  N_1 
REMARK    1  A    between atoms: C_6  and  C_3 
REMARK    2  A    between atoms: C_8  and  C_4 
ROOT
ATOM      1  N   UNL d   1     -42.880-122.470 -50.149  0.00  0.00    -0.195 N 
ATOM      2  N   UNL d   1     -42.971-122.695 -49.373  0.00  0.00    -0.163 NA
ATOM      3  C   UNL d   1     -42.096-122.598 -50.367  0.00  0.00     0.091 A 
ATOM      4  C   UNL d   1     -42.237-122.965 -49.107  0.00  0.00     0.104 A 
ATOM      5  C   UNL d   1     -41.705-122.903 -49.722  0.00  0.00     0.040 A 
ATOM      6  C   UNL d   1     -43.487-122.153 -50.657  0.00  0.00     0.281 C 
ATOM      7  O   UNL d   1     -43.320-121.953 -51.416  0.00  0.00    -0.265 OA
ATOM      8  C   UNL d   1     -44.246-122.059 -50.351  0.00  0.00     0.068 C 
ENDROOT
BRANCH   3   9
ATOM      9  C   UNL d   1     -41.771-122.441 -51.114  0.00  0.00     0.057 A 
ATOM     10  C   UNL d   1     -41.604-123.051 -51.614  0.00  0.00     0.197 A 
ATOM     11  O   UNL d   1     -41.749-123.817 -51.395  0.00  0.00    -0.286 OA
ATOM     12  C   UNL d   1     -41.278-122.900 -52.364  0.00  0.00     0.042 A 
ATOM     13  C   UNL d   1     -41.123-122.126 -52.606  0.00  0.00     0.003 A 
ATOM     14  C   UNL d   1     -41.300-121.520 -52.083  0.00  0.00     0.000 A 
ATOM     15  C   UNL d   1     -41.615-121.670 -51.358  0.00  0.00     0.005 A 
ENDBRANCH   3   9
BRANCH   4  16
ATOM     16  C   UNL d   1     -42.072-123.249 -48.351  0.00  0.00     0.039 A 
ATOM     17  C   UNL d   1     -42.688-123.482 -47.853  0.00  0.00     0.101 A 
ATOM     18  N   UNL d   1     -42.522-123.766 -47.097  0.00  0.00    -0.242 NA
ATOM     19  C   UNL d   1     -41.740-123.817 -46.838  0.00  0.00     0.099 A 
ATOM     20  C   UNL d   1     -41.124-123.585 -47.335  0.00  0.00     0.021 A 
ATOM     21  C   UNL d   1     -41.290-123.301 -48.093  0.00  0.00     0.005 A 
ENDBRANCH   4  16
TORSDOF 2
ENDMDL
MODEL 3
REMARK VINA RESULT:      -1.2      1.424      3.797
REMARK  2 active torsions:
REMARK  status: ('A' for Active; 'I' for Inactive)
REMARK       I    between atoms: C_7  and  N_1 
REMARK    1  A    between atoms: C_6  and  C_3 
REMARK    2  A    between atoms: C_8  and  C_4 
ROOT
ATOM      1  N   UNL d   1     -41.649-121.259 -52.143  0.00  0.00    -0.195 N 
ATOM      2  N   UNL d   1     -41.763-121.125 -52.937  0.00  0.00    -0.163 NA
ATOM      3  C   UNL d   1     -41.887-122.030 -51.972  0.00  0.00     0.091 A 
ATOM      4  C   UNL d   1     -42.074-121.818 -53.261  0.00  0.00     0.104 A 
ATOM      5  C   UNL d   1     -42.147-122.369 -52.664  0.00  0.00     0.040 A 
ATOM      6  C   UNL d   1     -41.337-120.704 -51.577  0.00  0.00     0.281 C 
ATOM      7  O   UNL d   1     -41.254-120.910 -50.806  0.00  0.00    -0.265 OA
ATOM      8  C   UNL d   1     -41.125-119.953 -51.840  0.00  0.00     0.068 C 
ENDROOT
BRANCH   3   9
ATOM      9  C   UNL d   1     -41.862-122.387 -51.225  0.00  0.00     0.057 A 
ATOM     10  C   UNL d   1     -42.543-122.492 -50.807  0.00  0.00     0.197 A 
ATOM     11  O   UNL d   1     -43.255-122.250 -51.110  0.00  0.00    -0.286 OA
ATOM     12  C   UNL d   1     -42.525-122.850 -50.057  0.00  0.00     0.042 A 
ATOM     13  C   UNL d   1     -41.810-123.103 -49.730  0.00  0.00     0.003 A 
ATOM     14  C   UNL d   1     -41.128-122.988 -50.171  0.00  0.00     0.000 A 
ATOM     15  C   UNL d   1     -41.150-122.641 -50.896  0.00  0.00     0.005 A 
ENDBRANCH   3   9
BRANCH   4  16
ATOM     16  C   UNL d   1     -42.275-121.933 -54.053  0.00  0.00     0.039 A 
ATOM     17  C   UNL d   1     -42.953-121.579 -54.363  0.00  0.00     0.101 A 
ATOM     18  N   UNL d   1     -43.154-121.694 -55.154  0.00  0.00    -0.242 NA
ATOM     19  C   UNL d   1     -42.677-122.164 -55.637  0.00  0.00     0.099 A 
ATOM     20  C   UNL d   1     -41.999-122.518 -55.327  0.00  0.00     0.021 A 
ATOM     21  C   UNL d   1     -41.798-122.403 -54.535  0.00  0.00     0.005 A 
ENDBRANCH   4  16
TORSDOF 2
ENDMDL
