MODEL 1
REMARK VINA RESULT:       6.7      0.000      0.000
REMARK  7 active torsions:
REMARK  status: ('A' for Active; 'I' for Inactive)
REMARK    1  A    between atoms: C_11  and  N_3 
REMARK    2  A    between atoms: C_10  and  C_4 
REMARK    3  A    between atoms: C_16  and  C_11 
REMARK    4  A    between atoms: N_13  and  C_17 
REMARK    5  A    between atoms: C_18  and  N_14 
REMARK    6  A    between atoms: C_17  and  C_16 
REMARK    7  A    between atoms: C_27  and  C_18 
ROOT
ATOM      1  C   UNL d   1     -43.120-123.078 -49.120  0.00  0.00     0.137 A 
ATOM      2  N   UNL d   1     -43.261-123.272 -48.321  0.00  0.00    -0.259 N 
ATOM      3  N   UNL d   1     -42.367-122.745 -49.159  0.00  0.00    -0.287 N 
ATOM      4  C   UNL d   1     -43.693-123.231 -49.687  0.00  0.00     0.054 A 
ATOM      5  C   UNL d   1     -43.981-123.620 -48.104  0.00  0.00     0.266 A 
ATOM      6  C   UNL d   1     -42.598-123.059 -47.879  0.00  0.00     0.084 A 
ATOM      7  C   UNL d   1     -42.038-122.729 -48.404  0.00  0.00     0.082 A 
ATOM      8  C   UNL d   1     -44.410-123.577 -49.473  0.00  0.00     0.009 A 
ATOM      9  C   UNL d   1     -44.561-123.775 -48.681  0.00  0.00     0.061 A 
ATOM     10  O   UNL d   1     -44.127-123.816 -47.312  0.00  0.00    -0.267 OA
ATOM     11  C   UNL d   1     -42.419-123.116 -47.079  0.00  0.00     0.019 A 
ATOM     12  C   UNL d   1     -44.987-123.731 -50.046  0.00  0.00     0.000 C 
ATOM     13  C   UNL d   1     -41.321-122.468 -48.107  0.00  0.00     0.019 A 
ATOM     14  C   UNL d   1     -41.698-122.851 -46.799  0.00  0.00     0.002 A 
ATOM     15  C   UNL d   1     -41.143-122.523 -47.319  0.00  0.00     0.002 A 
ENDROOT
BRANCH   3  16
ATOM     16  C   UNL d   1     -41.810-122.418 -49.669  0.00  0.00     0.125 C 
BRANCH  16  17
ATOM     17  C   UNL d   1     -41.519-122.864 -50.298  0.00  0.00     0.231 C 
ATOM     18  O   UNL d   1     -41.589-123.685 -50.296  0.00  0.00    -0.283 OA
BRANCH  17  19
ATOM     19  C   UNL d   1     -41.155-122.488 -50.934  0.00  0.00     0.124 C 
BRANCH  19  20
ATOM     20  N   UNL d   1     -41.166-122.845 -51.678  0.00  0.00    -0.297 N 
ATOM     21  C   UNL d   1     -41.125-122.194 -52.188  0.00  0.00     0.100 A 
ATOM     22  C   UNL d   1     -41.123-122.318 -53.008  0.00  0.00     0.100 A 
ATOM     23  N   UNL d   1     -41.161-123.085 -53.328  0.00  0.00    -0.300 N 
ATOM     24  C   UNL d   1     -41.202-123.740 -52.806  0.00  0.00     0.100 A 
ATOM     25  C   UNL d   1     -41.205-123.616 -51.987  0.00  0.00     0.100 A 
BRANCH  23  26
ATOM     26  C   UNL d   1     -41.157-123.196 -54.146  0.00  0.00     0.080 C 
BRANCH  26  27
ATOM     27  C   UNL d   1     -41.717-122.807 -54.618  0.00  0.00     0.018 A 
ATOM     28  C   UNL d   1     -42.247-123.254 -55.065  0.00  0.00     0.002 A 
ATOM     29  C   UNL d   1     -42.814-122.864 -55.543  0.00  0.00     0.000 A 
ATOM     30  C   UNL d   1     -42.839-122.042 -55.562  0.00  0.00     0.000 A 
ATOM     31  C   UNL d   1     -42.300-121.598 -55.107  0.00  0.00     0.000 A 
ATOM     32  C   UNL d   1     -41.740-121.987 -54.636  0.00  0.00     0.002 A 
ENDBRANCH  26  27
ENDBRANCH  23  26
ENDBRANCH  19  20
ENDBRANCH  17  19
ENDBRANCH  16  17
ENDBRANCH   3  16
BRANCH   4  33
ATOM     33  C   UNL d   1     -43.555-123.039 -50.472  0.00  0.00     0.125 C 
ATOM     34  N   UNL d   1     -44.146-122.716 -50.943  0.00  0.00    -0.146 N 
ENDBRANCH   4  33
TORSDOF 7
ENDMDL
