MODEL 1
REMARK VINA RESULT:      86.4      0.000      0.000
REMARK  3 active torsions:
REMARK  status: ('A' for Active; 'I' for Inactive)
REMARK    1  A    between atoms: C_11  and  C_8 
REMARK       I    between atoms: N_14  and  C_11 
REMARK    2  A    between atoms: C_20  and  N_14 
REMARK    3  A    between atoms: C_21  and  C_20 
ROOT
ATOM      1  C   UNL d   1      61.485  47.618  50.028  0.00  0.00     0.154 A 
ATOM      2  C   UNL d   1      60.940  47.103  50.371  0.00  0.00     0.093 A 
ATOM      3  N   UNL d   1      62.132  47.312  49.607  0.00  0.00    -0.210 NA
ATOM      4  N   UNL d   1      61.684  45.984  49.875  0.00  0.00    -0.258 N 
ATOM      5  C   UNL d   1      61.041  46.283  50.294  0.00  0.00     0.269 A 
ATOM      6  N   UNL d   1      61.251  48.388  50.190  0.00  0.00    -0.285 N 
ATOM      7  C   UNL d   1      62.229  46.498  49.531  0.00  0.00     0.152 A 
ATOM      8  C   UNL d   1      60.560  48.356  50.635  0.00  0.00     0.124 A 
ATOM      9  C   UNL d   1      60.370  47.557  50.746  0.00  0.00     0.030 A 
ATOM     10  C   UNL d   1      61.781  45.170  49.801  0.00  0.00     0.084 A 
ATOM     11  C   UNL d   1      62.871  46.199  49.113  0.00  0.00     0.038 A 
ATOM     12  C   UNL d   1      62.424  44.870  49.382  0.00  0.00     0.018 A 
ATOM     13  C   UNL d   1      62.969  45.385  49.038  0.00  0.00     0.005 A 
ATOM     14  O   UNL d   1      60.495  45.768  50.638  0.00  0.00    -0.266 OA
ATOM     15  C   UNL d   1      61.638  49.082  49.951  0.00  0.00     0.101 C 
ATOM     16  C   UNL d   1      62.527  44.046  49.303  0.00  0.00     0.002 C 
ENDROOT
BRANCH   8  17
ATOM     17  C   UNL d   1      60.135  49.003  50.919  0.00  0.00     0.295 C 
ATOM     18  N   UNL d   1      59.318  49.042  50.795  0.00  0.00    -0.203 NA
ATOM     19  O   UNL d   1      60.518  49.608  51.324  0.00  0.00    -0.264 OA
BRANCH  18  20
ATOM     20  C   UNL d   1      58.889  49.688  51.077  0.00  0.00     0.127 C 
BRANCH  20  21
ATOM     21  C   UNL d   1      58.067  49.693  51.021  0.00  0.00     0.119 A 
ATOM     22  O   UNL d   1      57.469  49.692  51.598  0.00  0.00    -0.304 OA
ATOM     23  C   UNL d   1      56.741  49.699  51.209  0.00  0.00     0.123 A 
ATOM     24  C   UNL d   1      56.877  49.704  50.401  0.00  0.00     0.029 A 
ATOM     25  C   UNL d   1      57.700  49.700  50.277  0.00  0.00     0.028 A 
ENDBRANCH  20  21
ENDBRANCH  18  20
ENDBRANCH   8  17
TORSDOF 3
ENDMDL
