MODEL 1
REMARK VINA RESULT:       0.7      0.000      0.000
REMARK  1 active torsions:
REMARK  status: ('A' for Active; 'I' for Inactive)
REMARK    1  A    between atoms: C_2  and  CA_3 
ROOT
ATOM      1  N   UNL d   1      24.709  13.211  -2.075  0.00  0.00    -0.237 NA
ATOM      2  CA  UNL d   1      24.715  12.503  -2.478  0.00  0.00     0.145 A 
ATOM      3  C   UNL d   1      24.688  11.784  -2.059  0.00  0.00     0.026 A 
ATOM      4  C   UNL d   1      24.677  13.218  -1.256  0.00  0.00     0.106 A 
ATOM      5  C   UNL d   1      24.650  12.499  -0.836  0.00  0.00     0.054 A 
ATOM      6  C   UNL d   1      24.656  11.793  -1.247  0.00  0.00     0.010 A 
ATOM      7 BR   UNL d   1      24.617  12.513  -0.015  0.00  0.00    -0.048 Br
ENDROOT
BRANCH   2   8
ATOM      8  C   UNL d   1      24.748  12.493  -3.303  0.00  0.00     0.229 C 
ATOM      9  O   UNL d   1      24.762  13.197  -3.732  0.00  0.00    -0.643 OA
ATOM     10  OXT UNL d   1      24.767  11.779  -3.710  0.00  0.00    -0.643 OA
ENDBRANCH   2   8
TORSDOF 1
ENDMDL
