MODEL 1
REMARK VINA RESULT:      -4.3      0.000      0.000
REMARK  5 active torsions:
REMARK  status: ('A' for Active; 'I' for Inactive)
REMARK    1  A    between atoms: N_8  and  C_2 
REMARK    2  A    between atoms: S_5  and  C_13 
REMARK    3  A    between atoms: C_17  and  S_5 
REMARK       I    between atoms: C_9  and  N_8 
REMARK    4  A    between atoms: C_12  and  C_9 
REMARK    5  A    between atoms: C_13  and  C_12 
ROOT
ATOM      1  N   UNL d   1      57.743   0.415  30.979  0.00  0.00    -0.183 NA
ATOM      2  C   UNL d   1      57.304  -0.101  31.457  0.00  0.00     0.282 C 
ATOM      3  O   UNL d   1      57.470  -0.919  31.433  0.00  0.00    -0.265 OA
ENDROOT
BRANCH   1   4
ATOM      4  C   UNL d   1      58.330   0.135  30.492  0.00  0.00     0.197 A 
ATOM      5  S   UNL d   1      58.230  -0.408  29.889  0.00  0.00    -0.044 SA
ATOM      6  C   UNL d   1      58.976  -0.529  29.543  0.00  0.00     0.088 A 
ATOM      7  C   UNL d   1      59.529  -0.064  29.929  0.00  0.00     0.089 A 
ATOM      8  C   UNL d   1      59.215  -1.021  28.907  0.00  0.00     0.199 A 
ATOM      9  N   UNL d   1      59.123   0.342  30.512  0.00  0.00    -0.221 NA
ATOM     10  C   UNL d   1      60.320  -0.072  29.701  0.00  0.00    -0.003 A 
ATOM     11  C   UNL d   1      60.560  -0.550  29.080  0.00  0.00     0.042 A 
ATOM     12  C   UNL d   1      60.010  -1.021  28.686  0.00  0.00     0.020 A 
ATOM     13  C   UNL d   1      61.117  -0.084  29.467  0.00  0.00     0.009 C 
ATOM     14  C   UNL d   1      60.806  -1.030  28.455  0.00  0.00     0.009 C 
ATOM     15  O   UNL d   1      58.664  -1.490  28.515  0.00  0.00    -0.286 OA
ENDBRANCH   1   4
BRANCH   2  16
ATOM     16  C   UNL d   1      56.717   0.179  31.944  0.00  0.00     0.075 C 
BRANCH  16  17
ATOM     17  C   UNL d   1      56.522  -0.206  32.549  0.00  0.00     0.104 C 
BRANCH  17  18
ATOM     18  S   UNL d   1      56.015   0.018  33.175  0.00  0.00     0.211 S 
ATOM     19  O   UNL d   1      56.670   0.128  33.677  0.00  0.00    -0.217 OA
ATOM     20  O   UNL d   1      55.352  -0.093  32.664  0.00  0.00    -0.217 OA
BRANCH  18  21
ATOM     21  C   UNL d   1      55.508   0.240  33.790  0.00  0.00     0.088 A 
ATOM     22  C   UNL d   1      55.814   0.422  34.534  0.00  0.00     0.011 A 
ATOM     23  C   UNL d   1      55.307   0.644  35.152  0.00  0.00     0.001 A 
ATOM     24  C   UNL d   1      54.495   0.682  35.018  0.00  0.00     0.000 A 
ATOM     25  C   UNL d   1      54.178   0.501  34.278  0.00  0.00     0.001 A 
ATOM     26  C   UNL d   1      54.688   0.279  33.660  0.00  0.00     0.011 A 
ENDBRANCH  18  21
ENDBRANCH  17  18
ENDBRANCH  16  17
ENDBRANCH   2  16
TORSDOF 5
ENDMDL
MODEL 2
REMARK VINA RESULT:      -3.1      1.263      1.702
REMARK  5 active torsions:
REMARK  status: ('A' for Active; 'I' for Inactive)
REMARK    1  A    between atoms: N_8  and  C_2 
REMARK    2  A    between atoms: S_5  and  C_13 
REMARK    3  A    between atoms: C_17  and  S_5 
REMARK       I    between atoms: C_9  and  N_8 
REMARK    4  A    between atoms: C_12  and  C_9 
REMARK    5  A    between atoms: C_13  and  C_12 
ROOT
ATOM      1  N   UNL d   1      57.540  -0.850  30.448  0.00  0.00    -0.183 NA
ATOM      2  C   UNL d   1      57.646  -0.137  30.856  0.00  0.00     0.282 C 
ATOM      3  O   UNL d   1      58.402   0.216  30.870  0.00  0.00    -0.265 OA
ENDROOT
BRANCH   1   4
ATOM      4  C   UNL d   1      58.161  -1.207  30.064  0.00  0.00     0.197 A 
ATOM      5  S   UNL d   1      58.745  -0.822  29.641  0.00  0.00    -0.044 SA
ATOM      6  C   UNL d   1      59.259  -1.405  29.347  0.00  0.00     0.088 A 
ATOM      7  C   UNL d   1      58.994  -2.142  29.587  0.00  0.00     0.089 A 
ATOM      8  C   UNL d   1      59.952  -1.343  28.879  0.00  0.00     0.199 A 
ATOM      9  N   UNL d   1      58.317  -2.011  30.028  0.00  0.00    -0.221 NA
ATOM     10  C   UNL d   1      59.399  -2.826  29.375  0.00  0.00    -0.003 A 
ATOM     11  C   UNL d   1      60.077  -2.773  28.918  0.00  0.00     0.042 A 
ATOM     12  C   UNL d   1      60.352  -2.035  28.671  0.00  0.00     0.020 A 
ATOM     13  C   UNL d   1      59.812  -3.514  29.157  0.00  0.00     0.009 C 
ATOM     14  C   UNL d   1      60.761  -2.723  28.457  0.00  0.00     0.009 C 
ATOM     15  O   UNL d   1      60.224  -0.605  28.635  0.00  0.00    -0.286 OA
ENDBRANCH   1   4
BRANCH   2  16
ATOM     16  C   UNL d   1      57.025   0.220  31.240  0.00  0.00     0.075 C 
BRANCH  16  17
ATOM     17  C   UNL d   1      57.095   0.418  31.953  0.00  0.00     0.104 C 
BRANCH  17  18
ATOM     18  S   UNL d   1      56.530   0.376  32.569  0.00  0.00     0.211 S 
ATOM     19  O   UNL d   1      55.943   0.675  32.061  0.00  0.00    -0.217 OA
ATOM     20  O   UNL d   1      57.128   0.074  33.082  0.00  0.00    -0.217 OA
BRANCH  18  21
ATOM     21  C   UNL d   1      55.977   0.332  33.182  0.00  0.00     0.088 A 
ATOM     22  C   UNL d   1      55.257  -0.052  33.064  0.00  0.00     0.011 A 
ATOM     23  C   UNL d   1      54.701  -0.097  33.678  0.00  0.00     0.001 A 
ATOM     24  C   UNL d   1      54.872   0.245  34.407  0.00  0.00     0.000 A 
ATOM     25  C   UNL d   1      55.589   0.632  34.537  0.00  0.00     0.001 A 
ATOM     26  C   UNL d   1      56.145   0.676  33.920  0.00  0.00     0.011 A 
ENDBRANCH  18  21
ENDBRANCH  17  18
ENDBRANCH  16  17
ENDBRANCH   2  16
TORSDOF 5
ENDMDL
MODEL 3
REMARK VINA RESULT:      -2.1      9.357      9.886
REMARK  5 active torsions:
REMARK  status: ('A' for Active; 'I' for Inactive)
REMARK    1  A    between atoms: N_8  and  C_2 
REMARK    2  A    between atoms: S_5  and  C_13 
REMARK    3  A    between atoms: C_17  and  S_5 
REMARK       I    between atoms: C_9  and  N_8 
REMARK    4  A    between atoms: C_12  and  C_9 
REMARK    5  A    between atoms: C_13  and  C_12 
ROOT
ATOM      1  N   UNL d   1      59.371  -9.781  31.919  0.00  0.00    -0.183 NA
ATOM      2  C   UNL d   1      59.028  -9.794  32.674  0.00  0.00     0.282 C 
ATOM      3  O   UNL d   1      58.196  -9.812  32.744  0.00  0.00    -0.265 OA
ENDROOT
BRANCH   1   4
ATOM      4  C   UNL d   1      58.908  -9.785  31.251  0.00  0.00     0.197 A 
ATOM      5  S   UNL d   1      59.182  -9.794  30.481  0.00  0.00    -0.044 SA
ATOM      6  C   UNL d   1      58.516  -9.795  29.985  0.00  0.00     0.088 A 
ATOM      7  C   UNL d   1      57.838  -9.788  30.444  0.00  0.00     0.089 A 
ATOM      8  C   UNL d   1      58.453  -9.803  29.148  0.00  0.00     0.199 A 
ATOM      9  N   UNL d   1      58.089  -9.782  31.224  0.00  0.00    -0.221 NA
ATOM     10  C   UNL d   1      57.092  -9.788  30.097  0.00  0.00    -0.003 A 
ATOM     11  C   UNL d   1      57.023  -9.795  29.281  0.00  0.00     0.042 A 
ATOM     12  C   UNL d   1      57.700  -9.803  28.809  0.00  0.00     0.020 A 
ATOM     13  C   UNL d   1      56.341  -9.788  29.741  0.00  0.00     0.009 C 
ATOM     14  C   UNL d   1      56.949  -9.802  28.458  0.00  0.00     0.009 C 
ATOM     15  O   UNL d   1      59.130  -9.810  28.680  0.00  0.00    -0.286 OA
ENDBRANCH   1   4
BRANCH   2  16
ATOM     16  C   UNL d   1      59.491  -9.790  33.342  0.00  0.00     0.075 C 
BRANCH  16  17
ATOM     17  C   UNL d   1      59.232  -9.490  33.970  0.00  0.00     0.104 C 
BRANCH  17  18
ATOM     18  S   UNL d   1      59.642  -9.045  34.549  0.00  0.00     0.211 S 
ATOM     19  O   UNL d   1      60.353  -9.431  34.353  0.00  0.00    -0.217 OA
ATOM     20  O   UNL d   1      58.919  -8.655  34.746  0.00  0.00    -0.217 OA
BRANCH  18  21
ATOM     21  C   UNL d   1      60.040  -8.602  35.123  0.00  0.00     0.088 A 
ATOM     22  C   UNL d   1      60.632  -8.951  35.579  0.00  0.00     0.011 A 
ATOM     23  C   UNL d   1      61.033  -8.509  36.154  0.00  0.00     0.001 A 
ATOM     24  C   UNL d   1      60.837  -7.717  36.268  0.00  0.00     0.000 A 
ATOM     25  C   UNL d   1      60.246  -7.357  35.818  0.00  0.00     0.001 A 
ATOM     26  C   UNL d   1      59.846  -7.803  35.241  0.00  0.00     0.011 A 
ENDBRANCH  18  21
ENDBRANCH  17  18
ENDBRANCH  16  17
ENDBRANCH   2  16
TORSDOF 5
ENDMDL
