MODEL 1
REMARK VINA RESULT:      -1.5      0.000      0.000
REMARK  4 active torsions:
REMARK  status: ('A' for Active; 'I' for Inactive)
REMARK    1  A    between atoms: C_3  and  C_1 
REMARK    2  A    between atoms: C_8  and  C_3 
REMARK    3  A    between atoms: C_9  and  C_3 
REMARK    4  A    between atoms: N_5  and  C_9 
ROOT
ATOM      1  C   UNL d   1      30.067  15.904 -23.711  0.00  0.00     0.023 A 
ATOM      2  C   UNL d   1      30.016  15.647 -22.894  0.00  0.00     0.082 A 
ATOM      3  N   UNL d   1      30.769  15.489 -22.634  0.00  0.00    -0.246 NA
ATOM      4  C   UNL d   1      30.854  15.892 -23.916  0.00  0.00     0.019 A 
ATOM      5  C   UNL d   1      31.295  15.638 -23.258  0.00  0.00     0.081 A 
ATOM      6  C   UNL d   1      29.702  15.455 -22.202  0.00  0.00     0.021 C 
ATOM      7  C   UNL d   1      31.236  16.082 -24.623  0.00  0.00     0.002 A 
ATOM      8  C   UNL d   1      32.121  15.575 -23.317  0.00  0.00     0.019 A 
ATOM      9  C   UNL d   1      32.055  16.014 -24.663  0.00  0.00     0.000 A 
ATOM     10  C   UNL d   1      32.500  15.764 -24.021  0.00  0.00     0.002 A 
ENDROOT
BRANCH   1  11
ATOM     11  C   UNL d   1      29.423  16.118 -24.181  0.00  0.00     0.048 C 
BRANCH  11  12
ATOM     12  C   UNL d   1      29.208  16.892 -24.294  0.00  0.00     0.102 A 
ATOM     13  O   UNL d   1      29.031  17.442 -23.685  0.00  0.00    -0.305 OA
ATOM     14  C   UNL d   1      28.840  18.161 -24.032  0.00  0.00     0.123 A 
ATOM     15  C   UNL d   1      28.900  18.058 -24.881  0.00  0.00     0.029 A 
ATOM     16  C   UNL d   1      29.124  17.282 -25.017  0.00  0.00     0.027 A 
ENDBRANCH  11  12
BRANCH  11  17
ATOM     17  C   UNL d   1      28.983  15.509 -24.548  0.00  0.00     0.150 C 
BRANCH  17  18
ATOM     18  N   UNL d   1      28.164  15.474 -24.424  0.00  0.00    -0.112 N 
ATOM     19  O   UNL d   1      27.855  15.455 -23.676  0.00  0.00    -0.532 OA
ATOM     20  O   UNL d   1      27.644  15.458 -25.097  0.00  0.00    -0.532 OA
ENDBRANCH  17  18
ENDBRANCH  11  17
ENDBRANCH   1  11
TORSDOF 4
ENDMDL
MODEL 2
REMARK VINA RESULT:      -1.1      3.150      4.094
REMARK  4 active torsions:
REMARK  status: ('A' for Active; 'I' for Inactive)
REMARK    1  A    between atoms: C_3  and  C_1 
REMARK    2  A    between atoms: C_8  and  C_3 
REMARK    3  A    between atoms: C_9  and  C_3 
REMARK    4  A    between atoms: N_5  and  C_9 
ROOT
ATOM      1  C   UNL d   1      32.703  18.144 -23.633  0.00  0.00     0.023 A 
ATOM      2  C   UNL d   1      32.672  18.626 -24.342  0.00  0.00     0.082 A 
ATOM      3  N   UNL d   1      32.829  19.394 -24.129  0.00  0.00    -0.246 NA
ATOM      4  C   UNL d   1      32.879  18.641 -23.014  0.00  0.00     0.019 A 
ATOM      5  C   UNL d   1      32.958  19.414 -23.310  0.00  0.00     0.081 A 
ATOM      6  C   UNL d   1      32.586  18.819 -25.097  0.00  0.00     0.021 C 
ATOM      7  C   UNL d   1      32.979  18.492 -22.208  0.00  0.00     0.002 A 
ATOM      8  C   UNL d   1      33.139  20.036 -22.789  0.00  0.00     0.019 A 
ATOM      9  C   UNL d   1      33.158  19.121 -21.708  0.00  0.00     0.000 A 
ATOM     10  C   UNL d   1      33.239  19.887 -21.988  0.00  0.00     0.002 A 
ENDROOT
BRANCH   1  11
ATOM     11  C   UNL d   1      32.574  17.329 -23.610  0.00  0.00     0.048 C 
BRANCH  11  12
ATOM     12  C   UNL d   1      31.831  17.007 -23.638  0.00  0.00     0.102 A 
ATOM     13  O   UNL d   1      31.405  16.709 -22.980  0.00  0.00    -0.305 OA
ATOM     14  C   UNL d   1      30.677  16.434 -23.243  0.00  0.00     0.123 A 
ATOM     15  C   UNL d   1      30.648  16.564 -24.090  0.00  0.00     0.029 A 
ATOM     16  C   UNL d   1      31.357  16.912 -24.308  0.00  0.00     0.027 A 
ENDBRANCH  11  12
BRANCH  11  17
ATOM     17  C   UNL d   1      33.241  16.826 -23.556  0.00  0.00     0.150 C 
BRANCH  17  18
ATOM     18  N   UNL d   1      33.145  16.015 -23.698  0.00  0.00    -0.112 N 
ATOM     19  O   UNL d   1      33.020  15.496 -23.090  0.00  0.00    -0.532 OA
ATOM     20  O   UNL d   1      33.180  15.728 -24.498  0.00  0.00    -0.532 OA
ENDBRANCH  17  18
ENDBRANCH  11  17
ENDBRANCH   1  11
TORSDOF 4
ENDMDL
MODEL 3
REMARK VINA RESULT:      -0.5      2.217      3.722
REMARK  4 active torsions:
REMARK  status: ('A' for Active; 'I' for Inactive)
REMARK    1  A    between atoms: C_3  and  C_1 
REMARK    2  A    between atoms: C_8  and  C_3 
REMARK    3  A    between atoms: C_9  and  C_3 
REMARK    4  A    between atoms: N_5  and  C_9 
ROOT
ATOM      1  C   UNL d   1      31.143  16.979 -24.548  0.00  0.00     0.023 A 
ATOM      2  C   UNL d   1      31.264  16.166 -24.796  0.00  0.00     0.082 A 
ATOM      3  N   UNL d   1      30.539  15.801 -24.817  0.00  0.00    -0.246 NA
ATOM      4  C   UNL d   1      30.345  17.075 -24.427  0.00  0.00     0.019 A 
ATOM      5  C   UNL d   1      29.964  16.354 -24.591  0.00  0.00     0.081 A 
ATOM      6  C   UNL d   1      31.635  15.516 -25.027  0.00  0.00     0.021 C 
ATOM      7  C   UNL d   1      29.905  17.731 -24.187  0.00  0.00     0.002 A 
ATOM      8  C   UNL d   1      29.139  16.299 -24.510  0.00  0.00     0.019 A 
ATOM      9  C   UNL d   1      29.089  17.658 -24.113  0.00  0.00     0.000 A 
ATOM     10  C   UNL d   1      28.703  16.952 -24.271  0.00  0.00     0.002 A 
ENDROOT
BRANCH   1  11
ATOM     11  C   UNL d   1      31.742  17.539 -24.456  0.00  0.00     0.048 C 
BRANCH  11  12
ATOM     12  C   UNL d   1      32.181  17.596 -23.776  0.00  0.00     0.102 A 
ATOM     13  O   UNL d   1      32.021  18.114 -23.136  0.00  0.00    -0.305 OA
ATOM     14  C   UNL d   1      32.595  18.000 -22.559  0.00  0.00     0.123 A 
ATOM     15  C   UNL d   1      33.127  17.393 -22.848  0.00  0.00     0.029 A 
ATOM     16  C   UNL d   1      32.858  17.163 -23.586  0.00  0.00     0.027 A 
ENDBRANCH  11  12
BRANCH  11  17
ATOM     17  C   UNL d   1      31.894  18.062 -25.091  0.00  0.00     0.150 C 
BRANCH  17  18
ATOM     18  N   UNL d   1      32.450  18.668 -24.989  0.00  0.00    -0.112 N 
ATOM     19  O   UNL d   1      33.241  18.532 -25.097  0.00  0.00    -0.532 OA
ATOM     20  O   UNL d   1      32.181  19.444 -24.769  0.00  0.00    -0.532 OA
ENDBRANCH  17  18
ENDBRANCH  11  17
ENDBRANCH   1  11
TORSDOF 4
ENDMDL
MODEL 4
REMARK VINA RESULT:      -0.2      3.147      4.171
REMARK  4 active torsions:
REMARK  status: ('A' for Active; 'I' for Inactive)
REMARK    1  A    between atoms: C_3  and  C_1 
REMARK    2  A    between atoms: C_8  and  C_3 
REMARK    3  A    between atoms: C_9  and  C_3 
REMARK    4  A    between atoms: N_5  and  C_9 
ROOT
ATOM      1  C   UNL d   1      32.387  18.596 -23.712  0.00  0.00     0.023 A 
ATOM      2  C   UNL d   1      32.536  19.139 -24.361  0.00  0.00     0.082 A 
ATOM      3  N   UNL d   1      32.845  19.822 -24.049  0.00  0.00    -0.246 NA
ATOM      4  C   UNL d   1      32.614  18.974 -23.028  0.00  0.00     0.019 A 
ATOM      5  C   UNL d   1      32.897  19.731 -23.226  0.00  0.00     0.081 A 
ATOM      6  C   UNL d   1      32.569  19.418 -25.092  0.00  0.00     0.021 C 
ATOM      7  C   UNL d   1      32.600  18.729 -22.240  0.00  0.00     0.002 A 
ATOM      8  C   UNL d   1      33.166  20.237 -22.625  0.00  0.00     0.019 A 
ATOM      9  C   UNL d   1      32.871  19.244 -21.659  0.00  0.00     0.000 A 
ATOM     10  C   UNL d   1      33.152  19.992 -21.841  0.00  0.00     0.002 A 
ENDROOT
BRANCH   1  11
ATOM     11  C   UNL d   1      32.073  17.837 -23.793  0.00  0.00     0.048 C 
BRANCH  11  12
ATOM     12  C   UNL d   1      32.523  17.205 -24.028  0.00  0.00     0.102 A 
ATOM     13  O   UNL d   1      32.806  16.596 -23.526  0.00  0.00    -0.305 OA
ATOM     14  C   UNL d   1      33.238  16.064 -23.978  0.00  0.00     0.123 A 
ATOM     15  C   UNL d   1      33.223  16.349 -24.787  0.00  0.00     0.029 A 
ATOM     16  C   UNL d   1      32.785  17.041 -24.794  0.00  0.00     0.027 A 
ENDBRANCH  11  12
BRANCH  11  17
ATOM     17  C   UNL d   1      31.261  17.727 -23.625  0.00  0.00     0.150 C 
BRANCH  17  18
ATOM     18  N   UNL d   1      30.733  17.604 -24.253  0.00  0.00    -0.112 N 
ATOM     19  O   UNL d   1      30.963  17.207 -24.920  0.00  0.00    -0.532 OA
ATOM     20  O   UNL d   1      29.938  17.900 -24.190  0.00  0.00    -0.532 OA
ENDBRANCH  17  18
ENDBRANCH  11  17
ENDBRANCH   1  11
TORSDOF 4
ENDMDL
MODEL 5
REMARK VINA RESULT:       1.0      2.790      4.025
REMARK  4 active torsions:
REMARK  status: ('A' for Active; 'I' for Inactive)
REMARK    1  A    between atoms: C_3  and  C_1 
REMARK    2  A    between atoms: C_8  and  C_3 
REMARK    3  A    between atoms: C_9  and  C_3 
REMARK    4  A    between atoms: N_5  and  C_9 
ROOT
ATOM      1  C   UNL d   1      32.215  17.504 -24.062  0.00  0.00     0.023 A 
ATOM      2  C   UNL d   1      32.645  16.765 -23.979  0.00  0.00     0.082 A 
ATOM      3  N   UNL d   1      32.129  16.158 -24.134  0.00  0.00    -0.246 NA
ATOM      4  C   UNL d   1      31.451  17.314 -24.265  0.00  0.00     0.019 A 
ATOM      5  C   UNL d   1      31.388  16.485 -24.312  0.00  0.00     0.081 A 
ATOM      6  C   UNL d   1      33.238  16.271 -23.846  0.00  0.00     0.021 C 
ATOM      7  C   UNL d   1      30.794  17.789 -24.416  0.00  0.00     0.002 A 
ATOM      8  C   UNL d   1      30.659  16.141 -24.512  0.00  0.00     0.019 A 
ATOM      9  C   UNL d   1      30.080  17.430 -24.612  0.00  0.00     0.000 A 
ATOM     10  C   UNL d   1      30.006  16.615 -24.662  0.00  0.00     0.002 A 
ENDROOT
BRANCH   1  11
ATOM     11  C   UNL d   1      32.540  18.254 -23.950  0.00  0.00     0.048 C 
BRANCH  11  12
ATOM     12  C   UNL d   1      32.604  18.593 -23.216  0.00  0.00     0.102 A 
ATOM     13  O   UNL d   1      32.157  19.247 -22.942  0.00  0.00    -0.305 OA
ATOM     14  C   UNL d   1      32.390  19.418 -22.173  0.00  0.00     0.123 A 
ATOM     15  C   UNL d   1      33.000  18.854 -21.962  0.00  0.00     0.029 A 
ATOM     16  C   UNL d   1      33.114  18.364 -22.608  0.00  0.00     0.027 A 
ENDBRANCH  11  12
BRANCH  11  17
ATOM     17  C   UNL d   1      32.809  18.671 -24.624  0.00  0.00     0.150 C 
BRANCH  17  18
ATOM     18  N   UNL d   1      32.685  19.490 -24.666  0.00  0.00    -0.112 N 
ATOM     19  O   UNL d   1      32.054  19.797 -25.069  0.00  0.00    -0.532 OA
ATOM     20  O   UNL d   1      33.233  20.012 -24.277  0.00  0.00    -0.532 OA
ENDBRANCH  17  18
ENDBRANCH  11  17
ENDBRANCH   1  11
TORSDOF 4
ENDMDL
