MODEL 1
REMARK VINA RESULT:      -8.9      0.000      0.000
REMARK  5 active torsions:
REMARK  status: ('A' for Active; 'I' for Inactive)
REMARK    1  A    between atoms: C_4  and  C_1 
REMARK    2  A    between atoms: C_8  and  C_4 
REMARK    3  A    between atoms: C_9  and  C_4 
REMARK    4  A    between atoms: N_5  and  C_9 
REMARK    5  A    between atoms: O_18  and  C_11 
ROOT
ATOM      1  C   UNL d   1     -48.639  13.251  22.340  0.00  0.00     0.025 C 
ENDROOT
BRANCH   1   2
ATOM      2  C   UNL d   1     -49.248  13.543  22.822  0.00  0.00     0.021 A 
ATOM      3  C   UNL d   1     -49.797  13.083  23.277  0.00  0.00     0.082 A 
ATOM      4  N   UNL d   1     -50.296  13.594  23.663  0.00  0.00    -0.246 NA
ATOM      5  C   UNL d   1     -49.810  12.259  23.311  0.00  0.00     0.021 C 
ATOM      6  C   UNL d   1     -50.089  14.371  23.474  0.00  0.00     0.081 A 
ATOM      7  C   UNL d   1     -49.441  14.339  22.954  0.00  0.00     0.019 A 
ATOM      8  C   UNL d   1     -50.393  15.096  23.698  0.00  0.00     0.019 A 
ATOM      9  C   UNL d   1     -49.105  15.033  22.663  0.00  0.00     0.002 A 
ATOM     10  C   UNL d   1     -49.409  15.765  22.886  0.00  0.00     0.000 A 
ATOM     11  C   UNL d   1     -50.067  15.797  23.415  0.00  0.00     0.002 A 
ENDBRANCH   1   2
BRANCH   1  12
ATOM     12  C   UNL d   1     -47.939  12.993  22.674  0.00  0.00     0.004 A 
ATOM     13  C   UNL d   1     -47.243  13.437  22.626  0.00  0.00     0.028 A 
ATOM     14  C   UNL d   1     -46.546  13.176  22.962  0.00  0.00     0.133 A 
ATOM     15  C   UNL d   1     -46.524  12.459  23.357  0.00  0.00     0.218 A 
ATOM     16  C   UNL d   1     -47.211  11.995  23.419  0.00  0.00     0.044 A 
ATOM     17  O   UNL d   1     -45.830  12.187  23.698  0.00  0.00    -0.284 OA
ATOM     18  C   UNL d   1     -47.908  12.257  23.083  0.00  0.00     0.004 A 
BRANCH  14  19
ATOM     19  O   UNL d   1     -45.863  13.641  22.899  0.00  0.00    -0.325 OA
ATOM     20  C   UNL d   1     -45.450  13.641  22.190  0.00  0.00     0.181 C 
ENDBRANCH  14  19
ENDBRANCH   1  12
BRANCH   1  21
ATOM     21  C   UNL d   1     -48.751  13.225  21.514  0.00  0.00     0.148 C 
BRANCH  21  22
ATOM     22  N   UNL d   1     -48.715  12.497  21.128  0.00  0.00    -0.112 N 
ATOM     23  O   UNL d   1     -49.257  11.911  21.300  0.00  0.00    -0.532 OA
ATOM     24  O   UNL d   1     -48.118  12.368  20.560  0.00  0.00    -0.532 OA
ENDBRANCH  21  22
ENDBRANCH   1  21
TORSDOF 5
ENDMDL
MODEL 2
REMARK VINA RESULT:      -7.5      1.269      1.628
REMARK  5 active torsions:
REMARK  status: ('A' for Active; 'I' for Inactive)
REMARK    1  A    between atoms: C_4  and  C_1 
REMARK    2  A    between atoms: C_8  and  C_4 
REMARK    3  A    between atoms: C_9  and  C_4 
REMARK    4  A    between atoms: N_5  and  C_9 
REMARK    5  A    between atoms: O_18  and  C_11 
ROOT
ATOM      1  C   UNL d   1     -48.707  12.858  22.952  0.00  0.00     0.025 C 
ENDROOT
BRANCH   1   2
ATOM      2  C   UNL d   1     -49.316  13.235  22.534  0.00  0.00     0.021 A 
ATOM      3  C   UNL d   1     -49.635  13.001  21.784  0.00  0.00     0.082 A 
ATOM      4  N   UNL d   1     -50.221  13.526  21.582  0.00  0.00    -0.246 NA
ATOM      5  C   UNL d   1     -49.384  12.349  21.346  0.00  0.00     0.021 C 
ATOM      6  C   UNL d   1     -50.292  14.094  22.177  0.00  0.00     0.081 A 
ATOM      7  C   UNL d   1     -49.733  13.915  22.766  0.00  0.00     0.019 A 
ATOM      8  C   UNL d   1     -50.781  14.744  22.269  0.00  0.00     0.019 A 
ATOM      9  C   UNL d   1     -49.669  14.386  23.439  0.00  0.00     0.002 A 
ATOM     10  C   UNL d   1     -50.159  15.041  23.534  0.00  0.00     0.000 A 
ATOM     11  C   UNL d   1     -50.727  15.223  22.936  0.00  0.00     0.002 A 
ENDBRANCH   1   2
BRANCH   1  12
ATOM     12  C   UNL d   1     -47.930  12.944  22.712  0.00  0.00     0.004 A 
ATOM     13  C   UNL d   1     -47.408  13.456  23.099  0.00  0.00     0.028 A 
ATOM     14  C   UNL d   1     -46.633  13.539  22.856  0.00  0.00     0.133 A 
ATOM     15  C   UNL d   1     -46.355  13.111  22.215  0.00  0.00     0.218 A 
ATOM     16  C   UNL d   1     -46.861  12.590  21.810  0.00  0.00     0.044 A 
ATOM     17  O   UNL d   1     -45.579  13.186  21.962  0.00  0.00    -0.284 OA
ATOM     18  C   UNL d   1     -47.636  12.507  22.053  0.00  0.00     0.004 A 
BRANCH  14  19
ATOM     19  O   UNL d   1     -46.131  14.059  23.262  0.00  0.00    -0.325 OA
ATOM     20  C   UNL d   1     -46.125  14.849  23.046  0.00  0.00     0.181 C 
ENDBRANCH  14  19
ENDBRANCH   1  12
BRANCH   1  21
ATOM     21  C   UNL d   1     -48.897  12.392  23.616  0.00  0.00     0.148 C 
BRANCH  21  22
ATOM     22  N   UNL d   1     -48.897  11.570  23.543  0.00  0.00    -0.112 N 
ATOM     23  O   UNL d   1     -48.217  11.143  23.688  0.00  0.00    -0.532 OA
ATOM     24  O   UNL d   1     -49.601  11.184  23.318  0.00  0.00    -0.532 OA
ENDBRANCH  21  22
ENDBRANCH   1  21
TORSDOF 5
ENDMDL
