MODEL 1
REMARK VINA RESULT:      25.2      0.000      0.000
REMARK  5 active torsions:
REMARK  status: ('A' for Active; 'I' for Inactive)
REMARK    1  A    between atoms: C_4  and  C_1 
REMARK       I    between atoms: N_8  and  C_4 
REMARK    2  A    between atoms: C_17  and  N_8 
REMARK    3  A    between atoms: C_18  and  N_8 
REMARK    4  A    between atoms: C_15  and  C_11 
REMARK    5  A    between atoms: C_12  and  C_15 
ROOT
ATOM      1  C   UNL d   1      46.059 -15.840  44.166  0.00  0.00     0.120 A 
ATOM      2  C   UNL d   1      46.167 -15.987  43.345  0.00  0.00     0.305 A 
ATOM      3  O   UNL d   1      46.255 -16.764  43.083  0.00  0.00    -0.273 OA
ATOM      4  C   UNL d   1      46.042 -16.475  44.698  0.00  0.00     0.012 A 
ATOM      5  C   UNL d   1      46.237 -17.394  43.620  0.00  0.00     0.103 A 
ATOM      6  C   UNL d   1      46.130 -17.250  44.428  0.00  0.00     0.023 A 
ATOM      7  O   UNL d   1      46.189 -15.361  42.781  0.00  0.00    -0.259 OA
ATOM      8  C   UNL d   1      46.325 -18.151  43.340  0.00  0.00     0.023 A 
ATOM      9  C   UNL d   1      46.112 -17.863  44.955  0.00  0.00     0.002 A 
ATOM     10  C   UNL d   1      46.200 -18.638  44.685  0.00  0.00     0.000 A 
ATOM     11  C   UNL d   1      46.309 -18.784  43.863  0.00  0.00     0.002 A 
ENDROOT
BRANCH   1  12
ATOM     12  C   UNL d   1      45.966 -15.059  44.470  0.00  0.00     0.270 C 
ATOM     13  N   UNL d   1      45.213 -14.795  44.651  0.00  0.00    -0.272 N 
ATOM     14  O   UNL d   1      46.645 -14.560  44.583  0.00  0.00    -0.266 OA
BRANCH  13  15
ATOM     15  C   UNL d   1      44.562 -15.285  44.537  0.00  0.00     0.083 C 
ATOM     16  C   UNL d   1      43.873 -15.159  44.952  0.00  0.00     0.021 C 
ENDBRANCH  13  15
BRANCH  13  17
ATOM     17  C   UNL d   1      45.099 -14.035  44.948  0.00  0.00     0.083 C 
ATOM     18  C   UNL d   1      45.069 -13.398  44.435  0.00  0.00     0.021 C 
ENDBRANCH  13  17
ENDBRANCH   1  12
BRANCH   8  19
ATOM     19  C   UNL d   1      46.431 -18.287  42.534  0.00  0.00     0.002 C 
BRANCH  19  20
ATOM     20  C   UNL d   1      46.502 -19.045  42.252  0.00  0.00     0.000 C 
ATOM     21  C   UNL d   1      46.370 -19.210  41.441  0.00  0.00     0.000 C 
ENDBRANCH  19  20
ENDBRANCH   8  19
TORSDOF 5
ENDMDL
