MODEL 1
REMARK VINA RESULT:      20.2      0.000      0.000
REMARK  4 active torsions:
REMARK  status: ('A' for Active; 'I' for Inactive)
REMARK    1  A    between atoms: C_3  and  C_1 
REMARK    2  A    between atoms: N_2  and  C_9 
REMARK    3  A    between atoms: N_6  and  C_3 
REMARK    4  A    between atoms: C_10  and  C_5 
ROOT
ATOM      1  C   UNL d   1      24.232  12.761  -1.407  0.00  0.00     0.126 A 
ATOM      2  O   UNL d   1      24.146  13.061  -2.178  0.00  0.00    -0.305 OA
ATOM      3  C   UNL d   1      24.485  12.512  -2.687  0.00  0.00     0.100 A 
ATOM      4  C   UNL d   1      24.609  12.060  -1.471  0.00  0.00     0.029 A 
ATOM      5  C   UNL d   1      24.768  11.897  -2.239  0.00  0.00     0.027 A 
ENDROOT
BRANCH   3   6
ATOM      6  C   UNL d   1      24.572  12.497  -3.513  0.00  0.00     0.024 A 
ATOM      7  C   UNL d   1      24.596  13.220  -3.938  0.00  0.00     0.025 A 
ATOM      8  C   UNL d   1      24.682  13.205  -4.764  0.00  0.00     0.127 A 
ATOM      9  C   UNL d   1      24.743  12.480  -5.162  0.00  0.00     0.024 A 
ATOM     10  C   UNL d   1      24.718  11.781  -4.738  0.00  0.00     0.002 A 
ATOM     11  C   UNL d   1      24.632  11.794  -3.917  0.00  0.00     0.002 A 
BRANCH   8  12
ATOM     12  N   UNL d   1      24.707  13.907  -5.177  0.00  0.00    -0.114 N 
ATOM     13  O   UNL d   1      24.710  13.951  -6.009  0.00  0.00    -0.532 OA
ATOM     14  O   UNL d   1      24.730  14.646  -4.837  0.00  0.00    -0.532 OA
ENDBRANCH   8  12
ENDBRANCH   3   6
BRANCH   1  15
ATOM     15  C   UNL d   1      23.986  13.095  -0.682  0.00  0.00     0.143 C 
ATOM     16  S   UNL d   1      24.520  13.435  -0.167  0.00  0.00    -0.057 SA
BRANCH  15  17
ATOM     17  N   UNL d   1      23.187  13.092  -0.462  0.00  0.00    -0.290 N 
ATOM     18  C   UNL d   1      22.802  13.802  -0.417  0.00  0.00     0.108 A 
ATOM     19  C   UNL d   1      22.004  13.791  -0.196  0.00  0.00     0.142 A 
ATOM     20  O   UNL d   1      21.632  13.108  -0.035  0.00  0.00    -0.300 OA
ATOM     21  C   UNL d   1      21.993  12.404  -0.074  0.00  0.00     0.142 A 
ATOM     22  C   UNL d   1      22.816  12.392  -0.300  0.00  0.00     0.108 A 
ENDBRANCH  15  17
ENDBRANCH   1  15
TORSDOF 4
ENDMDL
MODEL 2
REMARK VINA RESULT:      20.3      9.184     10.237
REMARK  4 active torsions:
REMARK  status: ('A' for Active; 'I' for Inactive)
REMARK    1  A    between atoms: C_3  and  C_1 
REMARK    2  A    between atoms: N_2  and  C_9 
REMARK    3  A    between atoms: N_6  and  C_3 
REMARK    4  A    between atoms: C_10  and  C_5 
ROOT
ATOM      1  C   UNL d   1      14.126  12.406  -1.215  0.00  0.00     0.126 A 
ATOM      2  O   UNL d   1      14.140  12.759  -1.967  0.00  0.00    -0.305 OA
ATOM      3  C   UNL d   1      13.591  12.358  -2.430  0.00  0.00     0.100 A 
ATOM      4  C   UNL d   1      13.584  11.819  -1.243  0.00  0.00     0.029 A 
ATOM      5  C   UNL d   1      13.254  11.779  -1.972  0.00  0.00     0.027 A 
ENDROOT
BRANCH   3   6
ATOM      6  C   UNL d   1      13.355  12.451  -3.220  0.00  0.00     0.024 A 
ATOM      7  C   UNL d   1      13.391  13.211  -3.575  0.00  0.00     0.025 A 
ATOM      8  C   UNL d   1      13.156  13.304  -4.365  0.00  0.00     0.127 A 
ATOM      9  C   UNL d   1      12.887  12.650  -4.799  0.00  0.00     0.024 A 
ATOM     10  C   UNL d   1      12.856  11.913  -4.444  0.00  0.00     0.002 A 
ATOM     11  C   UNL d   1      13.090  11.819  -3.658  0.00  0.00     0.002 A 
BRANCH   8  12
ATOM     12  N   UNL d   1      13.190  14.041  -4.710  0.00  0.00    -0.114 N 
ATOM     13  O   UNL d   1      13.613  14.204  -5.409  0.00  0.00    -0.532 OA
ATOM     14  O   UNL d   1      12.821  14.707  -4.421  0.00  0.00    -0.532 OA
ENDBRANCH   8  12
ENDBRANCH   3   6
BRANCH   1  15
ATOM     15  C   UNL d   1      14.573  12.596  -0.535  0.00  0.00     0.143 C 
ATOM     16  S   UNL d   1      14.828  12.020  -0.017  0.00  0.00    -0.057 SA
BRANCH  15  17
ATOM     17  N   UNL d   1      14.773  13.383  -0.365  0.00  0.00    -0.290 N 
ATOM     18  C   UNL d   1      15.555  13.589  -0.383  0.00  0.00     0.108 A 
ATOM     19  C   UNL d   1      15.747  14.377  -0.212  0.00  0.00     0.142 A 
ATOM     20  O   UNL d   1      15.182  14.907  -0.037  0.00  0.00    -0.300 OA
ATOM     21  C   UNL d   1      14.413  14.723  -0.014  0.00  0.00     0.142 A 
ATOM     22  C   UNL d   1      14.192  13.918  -0.187  0.00  0.00     0.108 A 
ENDBRANCH  15  17
ENDBRANCH   1  15
TORSDOF 4
ENDMDL
