MODEL 1
REMARK VINA RESULT:      78.7      0.000      0.000
REMARK  7 active torsions:
REMARK  status: ('A' for Active; 'I' for Inactive)
REMARK    1  A    between atoms: S_2  and  C_1 
REMARK    2  A    between atoms: C_7  and  S_2 
REMARK    3  A    between atoms: C_9  and  N_3 
REMARK    4  A    between atoms: C_11  and  C_7 
REMARK    5  A    between atoms: C_8  and  C_9 
REMARK       I    between atoms: N_10  and  C_8 
REMARK       I    between atoms: N_15  and  C_11 
REMARK    6  A    between atoms: C_12  and  C_16 
REMARK    7  A    between atoms: C_23  and  N_15 
ROOT
ATOM      1  C   UNL d   1     -50.176  26.597  33.342  0.00  0.00     0.107 A 
ATOM      2  N   UNL d   1     -51.175  25.718  33.340  0.00  0.00    -0.299 N 
ATOM      3  C   UNL d   1     -51.000  26.522  33.306  0.00  0.00     0.092 A 
ATOM      4  C   UNL d   1     -49.852  25.841  33.398  0.00  0.00     0.028 A 
ATOM      5  C   UNL d   1     -50.475  25.298  33.396  0.00  0.00     0.065 A 
ATOM      6  C   UNL d   1     -49.075  25.579  33.449  0.00  0.00     0.002 A 
ATOM      7  C   UNL d   1     -50.310  24.492  33.447  0.00  0.00     0.018 A 
ATOM      8  C   UNL d   1     -48.908  24.770  33.500  0.00  0.00     0.000 A 
ATOM      9  C   UNL d   1     -49.533  24.229  33.498  0.00  0.00     0.002 A 
ENDROOT
BRANCH   1  10
ATOM     10  S   UNL d   1     -49.753  27.308  33.325  0.00  0.00     0.217 S 
ATOM     11  O   UNL d   1     -49.029  26.928  33.308  0.00  0.00    -0.217 OA
ATOM     12  O   UNL d   1     -50.490  27.691  33.342  0.00  0.00    -0.217 OA
BRANCH  10  13
ATOM     13  C   UNL d   1     -49.334  28.023  33.308  0.00  0.00     0.161 C 
BRANCH  13  14
ATOM     14  C   UNL d   1     -48.851  28.226  33.931  0.00  0.00     0.291 C 
ATOM     15  N   UNL d   1     -48.846  28.996  34.222  0.00  0.00    -0.207 NA
ATOM     16  O   UNL d   1     -48.359  27.655  34.274  0.00  0.00    -0.264 OA
BRANCH  15  17
ATOM     17  C   UNL d   1     -48.354  29.197  34.853  0.00  0.00     0.085 A 
ATOM     18  C   UNL d   1     -48.164  29.989  34.998  0.00  0.00     0.019 A 
ATOM     19  C   UNL d   1     -47.675  30.197  35.624  0.00  0.00     0.006 A 
ATOM     20  C   UNL d   1     -47.365  29.607  36.122  0.00  0.00     0.059 A 
ATOM     21  C   UNL d   1     -47.548  28.813  35.987  0.00  0.00     0.006 A 
ATOM     22  C   UNL d   1     -48.046  28.605  35.348  0.00  0.00     0.019 A 
BRANCH  20  23
ATOM     23  C   UNL d   1     -46.877  29.803  36.748  0.00  0.00     0.297 C 
ATOM     24  O   UNL d   1     -46.144  30.166  36.620  0.00  0.00    -0.264 OA
ATOM     25  N   UNL d   1     -47.122  29.634  37.531  0.00  0.00    -0.102 N 
ENDBRANCH  20  23
ENDBRANCH  15  17
ENDBRANCH  13  14
ENDBRANCH  10  13
ENDBRANCH   1  10
BRANCH   2  26
ATOM     26  C   UNL d   1     -51.932  25.393  33.320  0.00  0.00     0.142 C 
BRANCH  26  27
ATOM     27  C   UNL d   1     -52.039  24.591  33.469  0.00  0.00     0.282 C 
ATOM     28  N   UNL d   1     -52.784  24.305  33.675  0.00  0.00    -0.271 N 
ATOM     29  C   UNL d   1     -53.429  24.819  33.733  0.00  0.00     0.083 A 
ATOM     30  C   UNL d   1     -52.892  23.504  33.824  0.00  0.00     0.083 A 
ATOM     31  C   UNL d   1     -54.178  24.532  33.939  0.00  0.00     0.019 A 
ATOM     32  C   UNL d   1     -54.281  23.732  34.087  0.00  0.00     0.003 A 
ATOM     33  C   UNL d   1     -53.644  23.216  34.031  0.00  0.00     0.019 A 
ATOM     34  O   UNL d   1     -51.401  24.075  33.413  0.00  0.00    -0.265 OA
ENDBRANCH  26  27
ENDBRANCH   2  26
TORSDOF 7
ENDMDL
MODEL 2
REMARK VINA RESULT:      80.3      1.502      6.486
REMARK  7 active torsions:
REMARK  status: ('A' for Active; 'I' for Inactive)
REMARK    1  A    between atoms: S_2  and  C_1 
REMARK    2  A    between atoms: C_7  and  S_2 
REMARK    3  A    between atoms: C_9  and  N_3 
REMARK    4  A    between atoms: C_11  and  C_7 
REMARK    5  A    between atoms: C_8  and  C_9 
REMARK       I    between atoms: N_10  and  C_8 
REMARK       I    between atoms: N_15  and  C_11 
REMARK    6  A    between atoms: C_12  and  C_16 
REMARK    7  A    between atoms: C_23  and  N_15 
ROOT
ATOM      1  C   UNL d   1     -48.481  28.440  34.643  0.00  0.00     0.107 A 
ATOM      2  N   UNL d   1     -48.064  29.523  35.293  0.00  0.00    -0.299 N 
ATOM      3  C   UNL d   1     -48.080  29.159  34.555  0.00  0.00     0.092 A 
ATOM      4  C   UNL d   1     -48.710  28.368  35.432  0.00  0.00     0.028 A 
ATOM      5  C   UNL d   1     -48.449  29.042  35.833  0.00  0.00     0.065 A 
ATOM      6  C   UNL d   1     -49.118  27.779  35.834  0.00  0.00     0.002 A 
ATOM      7  C   UNL d   1     -48.603  29.119  36.639  0.00  0.00     0.018 A 
ATOM      8  C   UNL d   1     -49.273  27.856  36.643  0.00  0.00     0.000 A 
ATOM      9  C   UNL d   1     -49.012  28.530  37.041  0.00  0.00     0.002 A 
ENDROOT
BRANCH   1  10
ATOM     10  S   UNL d   1     -48.628  27.890  34.042  0.00  0.00     0.217 S 
ATOM     11  O   UNL d   1     -49.025  28.435  33.580  0.00  0.00    -0.217 OA
ATOM     12  O   UNL d   1     -48.223  27.338  34.514  0.00  0.00    -0.217 OA
BRANCH  10  13
ATOM     13  C   UNL d   1     -48.771  27.335  33.443  0.00  0.00     0.161 C 
BRANCH  13  14
ATOM     14  C   UNL d   1     -49.442  26.875  33.468  0.00  0.00     0.291 C 
ATOM     15  N   UNL d   1     -49.391  26.057  33.379  0.00  0.00    -0.207 NA
ATOM     16  O   UNL d   1     -50.181  27.229  33.584  0.00  0.00    -0.264 OA
BRANCH  15  17
ATOM     17  C   UNL d   1     -50.072  25.594  33.405  0.00  0.00     0.085 A 
ATOM     18  C   UNL d   1     -50.817  25.941  33.306  0.00  0.00     0.019 A 
ATOM     19  C   UNL d   1     -51.500  25.486  33.331  0.00  0.00     0.006 A 
ATOM     20  C   UNL d   1     -51.448  24.665  33.456  0.00  0.00     0.059 A 
ATOM     21  C   UNL d   1     -50.710  24.308  33.556  0.00  0.00     0.006 A 
ATOM     22  C   UNL d   1     -50.016  24.774  33.530  0.00  0.00     0.019 A 
BRANCH  20  23
ATOM     23  C   UNL d   1     -52.122  24.203  33.483  0.00  0.00     0.297 C 
ATOM     24  O   UNL d   1     -52.856  24.532  33.681  0.00  0.00    -0.264 OA
ATOM     25  N   UNL d   1     -52.070  23.386  33.307  0.00  0.00    -0.102 N 
ENDBRANCH  20  23
ENDBRANCH  15  17
ENDBRANCH  13  14
ENDBRANCH  10  13
ENDBRANCH   1  10
BRANCH   2  26
ATOM     26  C   UNL d   1     -47.718  30.252  35.459  0.00  0.00     0.142 C 
BRANCH  26  27
ATOM     27  C   UNL d   1     -47.309  30.658  34.872  0.00  0.00     0.282 C 
ATOM     28  N   UNL d   1     -47.500  31.441  34.702  0.00  0.00    -0.271 N 
ATOM     29  C   UNL d   1     -48.102  31.826  35.117  0.00  0.00     0.083 A 
ATOM     30  C   UNL d   1     -47.091  31.846  34.116  0.00  0.00     0.083 A 
ATOM     31  C   UNL d   1     -48.294  32.613  34.945  0.00  0.00     0.019 A 
ATOM     32  C   UNL d   1     -47.883  33.014  34.359  0.00  0.00     0.003 A 
ATOM     33  C   UNL d   1     -47.284  32.637  33.943  0.00  0.00     0.019 A 
ATOM     34  O   UNL d   1     -46.709  30.280  34.457  0.00  0.00    -0.265 OA
ENDBRANCH  26  27
ENDBRANCH   2  26
TORSDOF 7
ENDMDL
