MODEL 1
REMARK VINA RESULT:      55.8      0.000      0.000
REMARK  4 active torsions:
REMARK  status: ('A' for Active; 'I' for Inactive)
REMARK    1  A    between atoms: N_7  and  C_6 
REMARK       I    between atoms: C_8  and  N_7 
REMARK    2  A    between atoms: C_14  and  C_8 
REMARK    3  A    between atoms: C_16  and  C_14 
REMARK    4  A    between atoms: C_17  and  C_16 
ROOT
ATOM      1  C   UNL d   1      58.296  49.693  49.830  0.00  0.00     0.269 A 
ATOM      2  N   UNL d   1      57.485  49.696  49.628  0.00  0.00    -0.239 N 
ATOM      3  C   UNL d   1      58.334  49.694  50.655  0.00  0.00     0.079 A 
ATOM      4  C   UNL d   1      57.052  49.700  50.311  0.00  0.00     0.267 A 
ATOM      5  C   UNL d   1      57.565  49.699  50.953  0.00  0.00     0.063 A 
ATOM      6  C   UNL d   1      58.976  49.692  51.168  0.00  0.00     0.089 A 
ATOM      7  O   UNL d   1      58.935  49.688  49.312  0.00  0.00    -0.267 OA
ATOM      8  O   UNL d   1      56.213  49.705  50.356  0.00  0.00    -0.267 OA
ATOM      9  C   UNL d   1      57.182  49.696  48.860  0.00  0.00     0.105 C 
ATOM     10  C   UNL d   1      57.437  49.702  51.764  0.00  0.00     0.005 A 
ATOM     11  C   UNL d   1      58.849  49.695  51.984  0.00  0.00     0.019 A 
ATOM     12  C   UNL d   1      58.079  49.699  52.282  0.00  0.00     0.002 A 
ENDROOT
BRANCH   6  13
ATOM     13  N   UNL d   1      59.745  49.687  50.870  0.00  0.00    -0.208 NA
ATOM     14  C   UNL d   1      60.317  49.212  51.224  0.00  0.00     0.279 C 
ATOM     15  O   UNL d   1      60.127  48.741  51.873  0.00  0.00    -0.265 OA
BRANCH  14  16
ATOM     16  C   UNL d   1      61.086  49.207  50.926  0.00  0.00     0.062 C 
BRANCH  16  17
ATOM     17  C   UNL d   1      61.265  48.762  50.255  0.00  0.00     0.005 C 
BRANCH  17  18
ATOM     18  C   UNL d   1      61.363  47.946  50.316  0.00  0.00     0.000 A 
ATOM     19  C   UNL d   1      61.692  47.520  49.679  0.00  0.00     0.000 A 
ATOM     20  C   UNL d   1      61.790  46.703  49.740  0.00  0.00     0.000 A 
ATOM     21  C   UNL d   1      61.559  46.312  50.438  0.00  0.00     0.000 A 
ATOM     22  C   UNL d   1      61.238  46.736  51.055  0.00  0.00     0.000 A 
ATOM     23  C   UNL d   1      61.140  47.552  50.994  0.00  0.00     0.000 A 
ENDBRANCH  17  18
ENDBRANCH  16  17
ENDBRANCH  14  16
ENDBRANCH   6  13
TORSDOF 4
ENDMDL
