MODEL 1
REMARK VINA RESULT:      76.2      0.000      0.000
REMARK  6 active torsions:
REMARK  status: ('A' for Active; 'I' for Inactive)
REMARK    1  A    between atoms: C_5  and  N_1 
REMARK    2  A    between atoms: C_8  and  C_3 
REMARK    3  A    between atoms: C_7  and  C_4 
REMARK    4  A    between atoms: N_12  and  C_5 
REMARK    5  A    between atoms: N_11  and  C_10 
REMARK    6  A    between atoms: O_22  and  C_19 
ROOT
ATOM      1  N   UNL d   1     -48.111  29.464  35.027  0.00  0.00    -0.203 N 
ATOM      2  N   UNL d   1     -48.446  28.724  34.954  0.00  0.00    -0.163 NA
ATOM      3  C   UNL d   1     -48.953  28.756  34.299  0.00  0.00     0.103 A 
ATOM      4  C   UNL d   1     -48.409  29.948  34.422  0.00  0.00     0.087 A 
ATOM      5  C   UNL d   1     -48.929  29.520  33.969  0.00  0.00     0.040 A 
ENDROOT
BRANCH   4   6
ATOM      6  C   UNL d   1     -48.231  30.739  34.274  0.00  0.00     0.018 A 
ATOM      7  C   UNL d   1     -47.447  30.987  34.222  0.00  0.00     0.003 A 
ATOM      8  C   UNL d   1     -47.269  31.780  34.074  0.00  0.00     0.018 A 
ATOM      9  C   UNL d   1     -47.874  32.324  33.977  0.00  0.00     0.064 A 
ATOM     10  C   UNL d   1     -48.664  32.088  34.027  0.00  0.00     0.018 A 
ATOM     11  C   UNL d   1     -48.836  31.292  34.176  0.00  0.00     0.003 A 
BRANCH   9  12
ATOM     12  N   UNL d   1     -47.680  33.105  33.831  0.00  0.00    -0.301 N 
ATOM     13  C   UNL d   1     -46.895  33.363  33.921  0.00  0.00     0.100 C 
ATOM     14  C   UNL d   1     -48.261  33.637  33.595  0.00  0.00     0.100 C 
ENDBRANCH   9  12
ENDBRANCH   4   6
BRANCH   1  15
ATOM     15  C   UNL d   1     -47.557  29.670  35.629  0.00  0.00     0.222 C 
ATOM     16  S   UNL d   1     -46.738  29.654  35.470  0.00  0.00    -0.037 SA
BRANCH  15  17
ATOM     17  N   UNL d   1     -47.835  29.896  36.403  0.00  0.00    -0.214 NA
ATOM     18  C   UNL d   1     -47.309  29.842  37.064  0.00  0.00     0.122 C 
ENDBRANCH  15  17
ENDBRANCH   1  15
BRANCH   3  19
ATOM     19  C   UNL d   1     -49.382  28.113  34.062  0.00  0.00     0.019 A 
ATOM     20  C   UNL d   1     -49.186  27.357  34.313  0.00  0.00     0.004 A 
ATOM     21  C   UNL d   1     -49.634  26.711  34.062  0.00  0.00     0.024 A 
ATOM     22  C   UNL d   1     -50.283  26.811  33.557  0.00  0.00     0.094 A 
ATOM     23  C   UNL d   1     -50.478  27.566  33.306  0.00  0.00     0.024 A 
ATOM     24  C   UNL d   1     -50.029  28.207  33.558  0.00  0.00     0.004 A 
BRANCH  22  25
ATOM     25  O   UNL d   1     -50.732  26.152  33.306  0.00  0.00    -0.328 OA
ATOM     26  C   UNL d   1     -51.486  26.020  33.632  0.00  0.00     0.181 C 
ENDBRANCH  22  25
ENDBRANCH   3  19
TORSDOF 6
ENDMDL
