MODEL 1
REMARK VINA RESULT:      -4.8      0.000      0.000
REMARK  3 active torsions:
REMARK  status: ('A' for Active; 'I' for Inactive)
REMARK       I    between atoms: N_3  and  C_8 
REMARK    1  A    between atoms: S_12  and  C_6 
REMARK    2  A    between atoms: C_8  and  C_14 
REMARK    3  A    between atoms: C_14  and  S_12 
ROOT
ATOM      1  S   UNL d   1      58.362  -1.294  30.329  0.00  0.00    -0.060 SA
ENDROOT
BRANCH   1   2
ATOM      2  C   UNL d   1      57.881  -0.646  30.485  0.00  0.00     0.137 A 
ATOM      3  C   UNL d   1      57.378  -0.649  31.130  0.00  0.00     0.141 A 
ATOM      4  O   UNL d   1      57.234  -1.210  31.714  0.00  0.00    -0.303 OA
ATOM      5  C   UNL d   1      56.902   0.005  31.276  0.00  0.00     0.110 A 
ATOM      6  C   UNL d   1      56.667  -0.898  32.219  0.00  0.00     0.102 A 
ATOM      7  C   UNL d   1      56.302  -1.201  32.902  0.00  0.00     0.025 A 
ATOM      8  C   UNL d   1      56.463  -0.152  31.949  0.00  0.00     0.043 A 
ATOM      9  C   UNL d   1      55.742  -0.755  33.302  0.00  0.00     0.002 A 
ATOM     10  C   UNL d   1      55.539  -0.009  33.031  0.00  0.00     0.000 A 
ATOM     11  C   UNL d   1      55.897   0.296  32.355  0.00  0.00     0.004 A 
ATOM     12  N   UNL d   1      56.927   0.658  30.779  0.00  0.00    -0.222 NA
ATOM     13  C   UNL d   1      57.429   0.660  30.135  0.00  0.00     0.200 A 
ATOM     14  N   UNL d   1      57.911   0.011  29.978  0.00  0.00    -0.215 NA
ENDBRANCH   1   2
BRANCH   1  15
ATOM     15  C   UNL d   1      58.697  -1.390  29.595  0.00  0.00     0.098 C 
BRANCH  15  16
ATOM     16  C   UNL d   1      59.523  -1.408  29.503  0.00  0.00     0.271 C 
ATOM     17  N   UNL d   1      59.895  -2.082  29.197  0.00  0.00    -0.273 N 
ATOM     18  C   UNL d   1      59.451  -2.735  28.982  0.00  0.00     0.067 A 
ATOM     19  C   UNL d   1      60.723  -2.098  29.106  0.00  0.00     0.083 A 
ATOM     20  C   UNL d   1      59.818  -3.409  28.676  0.00  0.00     0.016 A 
ATOM     21  C   UNL d   1      58.630  -2.719  29.072  0.00  0.00     0.018 A 
ATOM     22  C   UNL d   1      59.374  -4.075  28.456  0.00  0.00     0.001 A 
ATOM     23  C   UNL d   1      60.639  -3.425  28.586  0.00  0.00     0.003 A 
ATOM     24  C   UNL d   1      58.549  -4.050  28.550  0.00  0.00     0.000 A 
ATOM     25  C   UNL d   1      58.179  -3.379  28.855  0.00  0.00     0.002 A 
ATOM     26  C   UNL d   1      61.087  -2.774  28.800  0.00  0.00     0.019 A 
ATOM     27  O   UNL d   1      59.973  -0.748  29.720  0.00  0.00    -0.266 OA
ENDBRANCH  15  16
ENDBRANCH   1  15
TORSDOF 3
ENDMDL
MODEL 2
REMARK VINA RESULT:      -3.8      8.519      8.890
REMARK  3 active torsions:
REMARK  status: ('A' for Active; 'I' for Inactive)
REMARK       I    between atoms: N_3  and  C_8 
REMARK    1  A    between atoms: S_12  and  C_6 
REMARK    2  A    between atoms: C_8  and  C_14 
REMARK    3  A    between atoms: C_14  and  S_12 
ROOT
ATOM      1  S   UNL d   1      58.656  -9.658  32.626  0.00  0.00    -0.060 SA
ENDROOT
BRANCH   1   2
ATOM      2  C   UNL d   1      59.436  -9.601  32.880  0.00  0.00     0.137 A 
ATOM      3  C   UNL d   1      59.607  -9.338  33.635  0.00  0.00     0.141 A 
ATOM      4  O   UNL d   1      59.127  -9.094  34.257  0.00  0.00    -0.303 OA
ATOM      5  C   UNL d   1      60.391  -9.286  33.878  0.00  0.00     0.110 A 
ATOM      6  C   UNL d   1      59.618  -8.892  34.882  0.00  0.00     0.102 A 
ATOM      7  C   UNL d   1      59.458  -8.610  35.648  0.00  0.00     0.025 A 
ATOM      8  C   UNL d   1      60.395  -9.010  34.649  0.00  0.00     0.043 A 
ATOM      9  C   UNL d   1      60.074  -8.451  36.165  0.00  0.00     0.002 A 
ATOM     10  C   UNL d   1      60.850  -8.570  35.932  0.00  0.00     0.000 A 
ATOM     11  C   UNL d   1      61.014  -8.849  35.174  0.00  0.00     0.004 A 
ATOM     12  N   UNL d   1      60.999  -9.496  33.369  0.00  0.00    -0.222 NA
ATOM     13  C   UNL d   1      60.827  -9.758  32.616  0.00  0.00     0.200 A 
ATOM     14  N   UNL d   1      60.047  -9.815  32.360  0.00  0.00    -0.215 NA
ENDBRANCH   1   2
BRANCH   1  15
ATOM     15  C   UNL d   1      58.488  -9.783  31.840  0.00  0.00     0.098 C 
BRANCH  15  16
ATOM     16  C   UNL d   1      57.703  -9.792  31.570  0.00  0.00     0.271 C 
ATOM     17  N   UNL d   1      57.539  -9.800  30.758  0.00  0.00    -0.273 N 
ATOM     18  C   UNL d   1      58.153  -9.799  30.215  0.00  0.00     0.067 A 
ATOM     19  C   UNL d   1      56.751  -9.809  30.489  0.00  0.00     0.083 A 
ATOM     20  C   UNL d   1      57.995  -9.807  29.405  0.00  0.00     0.016 A 
ATOM     21  C   UNL d   1      58.935  -9.790  30.482  0.00  0.00     0.018 A 
ATOM     22  C   UNL d   1      58.612  -9.806  28.849  0.00  0.00     0.001 A 
ATOM     23  C   UNL d   1      57.213  -9.816  29.138  0.00  0.00     0.003 A 
ATOM     24  C   UNL d   1      59.395  -9.797  29.127  0.00  0.00     0.000 A 
ATOM     25  C   UNL d   1      59.557  -9.789  29.935  0.00  0.00     0.002 A 
ATOM     26  C   UNL d   1      56.597  -9.817  29.677  0.00  0.00     0.019 A 
ATOM     27  O   UNL d   1      57.082  -9.793  32.117  0.00  0.00    -0.266 OA
ENDBRANCH  15  16
ENDBRANCH   1  15
TORSDOF 3
ENDMDL
MODEL 3
REMARK VINA RESULT:      -3.7      1.403      5.295
REMARK  3 active torsions:
REMARK  status: ('A' for Active; 'I' for Inactive)
REMARK       I    between atoms: N_3  and  C_8 
REMARK    1  A    between atoms: S_12  and  C_6 
REMARK    2  A    between atoms: C_8  and  C_14 
REMARK    3  A    between atoms: C_14  and  S_12 
ROOT
ATOM      1  S   UNL d   1      57.092  -0.805  31.376  0.00  0.00    -0.060 SA
ENDROOT
BRANCH   1   2
ATOM      2  C   UNL d   1      57.590  -0.476  30.810  0.00  0.00     0.137 A 
ATOM      3  C   UNL d   1      58.043  -0.956  30.327  0.00  0.00     0.141 A 
ATOM      4  O   UNL d   1      58.120  -1.773  30.278  0.00  0.00    -0.303 OA
ATOM      5  C   UNL d   1      58.537  -0.616  29.765  0.00  0.00     0.110 A 
ATOM      6  C   UNL d   1      58.662  -1.933  29.683  0.00  0.00     0.102 A 
ATOM      7  C   UNL d   1      58.962  -2.647  29.380  0.00  0.00     0.025 A 
ATOM      8  C   UNL d   1      58.918  -1.222  29.368  0.00  0.00     0.043 A 
ATOM      9  C   UNL d   1      59.511  -2.638  28.771  0.00  0.00     0.002 A 
ATOM     10  C   UNL d   1      59.766  -1.926  28.457  0.00  0.00     0.000 A 
ATOM     11  C   UNL d   1      59.472  -1.216  28.753  0.00  0.00     0.004 A 
ATOM     12  N   UNL d   1      58.577   0.200  29.685  0.00  0.00    -0.222 NA
ATOM     13  C   UNL d   1      58.124   0.679  30.167  0.00  0.00     0.200 A 
ATOM     14  N   UNL d   1      57.626   0.351  30.734  0.00  0.00    -0.215 NA
ENDBRANCH   1   2
BRANCH   1  15
ATOM     15  C   UNL d   1      56.901  -0.387  32.047  0.00  0.00     0.098 C 
BRANCH  15  16
ATOM     16  C   UNL d   1      56.125  -0.390  32.343  0.00  0.00     0.271 C 
ATOM     17  N   UNL d   1      55.969  -0.125  33.112  0.00  0.00    -0.273 N 
ATOM     18  C   UNL d   1      56.580   0.143  33.586  0.00  0.00     0.067 A 
ATOM     19  C   UNL d   1      55.189  -0.129  33.406  0.00  0.00     0.083 A 
ATOM     20  C   UNL d   1      56.429   0.408  34.353  0.00  0.00     0.016 A 
ATOM     21  C   UNL d   1      57.353   0.147  33.294  0.00  0.00     0.018 A 
ATOM     22  C   UNL d   1      57.044   0.682  34.840  0.00  0.00     0.001 A 
ATOM     23  C   UNL d   1      55.656   0.404  34.645  0.00  0.00     0.003 A 
ATOM     24  C   UNL d   1      57.817   0.682  34.538  0.00  0.00     0.000 A 
ATOM     25  C   UNL d   1      57.973   0.418  33.773  0.00  0.00     0.002 A 
ATOM     26  C   UNL d   1      55.042   0.137  34.175  0.00  0.00     0.019 A 
ATOM     27  O   UNL d   1      55.507  -0.661  31.864  0.00  0.00    -0.266 OA
ENDBRANCH  15  16
ENDBRANCH   1  15
TORSDOF 3
ENDMDL
