MODEL 1
REMARK VINA RESULT:      -8.9      0.000      0.000
REMARK  6 active torsions:
REMARK  status: ('A' for Active; 'I' for Inactive)
REMARK       I    between atoms: C_2  and  N_1 
REMARK    1  A    between atoms: C_3  and  N_1 
REMARK    2  A    between atoms: C_6  and  C_2 
REMARK    3  A    between atoms: N_7  and  C_3 
REMARK    4  A    between atoms: C_8  and  N_7 
REMARK    5  A    between atoms: C_12  and  C_8 
REMARK    6  A    between atoms: C_9  and  C_12 
ROOT
ATOM      1  C   UNL d   1      53.555  33.003  54.264  0.00  0.00     0.179 C 
ATOM      2  S   UNL d   1      54.055  33.147  54.894  0.00  0.00    -0.040 SA
ENDROOT
BRANCH   1   3
ATOM      3  N   UNL d   1      53.261  32.249  54.132  0.00  0.00    -0.299 N 
ATOM      4  C   UNL d   1      53.739  31.698  53.782  0.00  0.00     0.259 C 
ATOM      5  O   UNL d   1      54.503  31.887  53.563  0.00  0.00    -0.267 OA
ATOM      6  H   UNL d   1      52.502  32.062  54.350  0.00  0.00     0.171 HD
BRANCH   4   7
ATOM      7  C   UNL d   1      53.447  30.933  53.646  0.00  0.00     0.056 A 
ATOM      8  C   UNL d   1      52.997  30.783  52.989  0.00  0.00     0.005 A 
ATOM      9  C   UNL d   1      52.704  30.029  52.849  0.00  0.00     0.000 A 
ATOM     10  C   UNL d   1      52.873  29.429  53.382  0.00  0.00     0.000 A 
ATOM     11  C   UNL d   1      53.323  29.579  54.040  0.00  0.00     0.000 A 
ATOM     12  C   UNL d   1      53.614  30.333  54.179  0.00  0.00     0.005 A 
ENDBRANCH   4   7
ENDBRANCH   1   3
BRANCH   1  13
ATOM     13  N   UNL d   1      53.342  33.611  53.758  0.00  0.00    -0.330 N 
ATOM     14  H   UNL d   1      53.877  33.906  53.224  0.00  0.00     0.168 HD
BRANCH  13  15
ATOM     15  C   UNL d   1      52.587  33.915  53.798  0.00  0.00     0.074 C 
BRANCH  15  16
ATOM     16  C   UNL d   1      52.351  34.486  53.251  0.00  0.00     0.018 C 
BRANCH  16  17
ATOM     17  C   UNL d   1      51.597  34.440  52.896  0.00  0.00     0.002 A 
ATOM     18  C   UNL d   1      51.522  34.241  52.094  0.00  0.00     0.000 A 
ATOM     19  C   UNL d   1      50.775  34.197  51.748  0.00  0.00     0.000 A 
ATOM     20  C   UNL d   1      50.098  34.351  52.201  0.00  0.00     0.000 A 
ATOM     21  C   UNL d   1      50.168  34.548  52.998  0.00  0.00     0.000 A 
ATOM     22  C   UNL d   1      50.919  34.594  53.348  0.00  0.00     0.000 A 
ENDBRANCH  16  17
ENDBRANCH  15  16
ENDBRANCH  13  15
ENDBRANCH   1  13
TORSDOF 6
ENDMDL
MODEL 2
REMARK VINA RESULT:      -8.7      0.908      4.207
REMARK  6 active torsions:
REMARK  status: ('A' for Active; 'I' for Inactive)
REMARK       I    between atoms: C_2  and  N_1 
REMARK    1  A    between atoms: C_3  and  N_1 
REMARK    2  A    between atoms: C_6  and  C_2 
REMARK    3  A    between atoms: N_7  and  C_3 
REMARK    4  A    between atoms: C_8  and  N_7 
REMARK    5  A    between atoms: C_12  and  C_8 
REMARK    6  A    between atoms: C_9  and  C_12 
ROOT
ATOM      1  C   UNL d   1      53.150  33.559  53.959  0.00  0.00     0.179 C 
ATOM      2  S   UNL d   1      53.380  34.084  54.541  0.00  0.00    -0.040 SA
ENDROOT
BRANCH   1   3
ATOM      3  N   UNL d   1      52.405  33.617  53.620  0.00  0.00    -0.299 N 
ATOM      4  C   UNL d   1      52.225  34.272  53.180  0.00  0.00     0.259 C 
ATOM      5  O   UNL d   1      52.773  34.868  53.074  0.00  0.00    -0.267 OA
ATOM      6  H   UNL d   1      51.861  33.025  53.726  0.00  0.00     0.171 HD
BRANCH   4   7
ATOM      7  C   UNL d   1      51.473  34.336  52.835  0.00  0.00     0.056 A 
ATOM      8  C   UNL d   1      50.834  34.540  53.292  0.00  0.00     0.005 A 
ATOM      9  C   UNL d   1      50.088  34.605  52.956  0.00  0.00     0.000 A 
ATOM     10  C   UNL d   1      49.995  34.459  52.154  0.00  0.00     0.000 A 
ATOM     11  C   UNL d   1      50.634  34.254  51.698  0.00  0.00     0.000 A 
ATOM     12  C   UNL d   1      51.379  34.190  52.034  0.00  0.00     0.005 A 
ENDBRANCH   4   7
ENDBRANCH   1   3
BRANCH   1  13
ATOM     13  N   UNL d   1      53.661  32.970  53.707  0.00  0.00    -0.330 N 
ATOM     14  H   UNL d   1      54.288  33.150  53.225  0.00  0.00     0.168 HD
BRANCH  13  15
ATOM     15  C   UNL d   1      53.530  32.203  53.947  0.00  0.00     0.074 C 
BRANCH  15  16
ATOM     16  C   UNL d   1      53.869  31.582  53.522  0.00  0.00     0.018 C 
BRANCH  16  17
ATOM     17  C   UNL d   1      53.522  30.823  53.538  0.00  0.00     0.002 A 
ATOM     18  C   UNL d   1      53.001  30.587  52.937  0.00  0.00     0.000 A 
ATOM     19  C   UNL d   1      52.661  29.836  52.959  0.00  0.00     0.000 A 
ATOM     20  C   UNL d   1      52.839  29.316  53.580  0.00  0.00     0.000 A 
ATOM     21  C   UNL d   1      53.356  29.549  54.179  0.00  0.00     0.000 A 
ATOM     22  C   UNL d   1      53.700  30.303  54.160  0.00  0.00     0.000 A 
ENDBRANCH  16  17
ENDBRANCH  15  16
ENDBRANCH  13  15
ENDBRANCH   1  13
TORSDOF 6
ENDMDL
MODEL 3
REMARK VINA RESULT:      -8.2      1.657      2.573
REMARK  6 active torsions:
REMARK  status: ('A' for Active; 'I' for Inactive)
REMARK       I    between atoms: C_2  and  N_1 
REMARK    1  A    between atoms: C_3  and  N_1 
REMARK    2  A    between atoms: C_6  and  C_2 
REMARK    3  A    between atoms: N_7  and  C_3 
REMARK    4  A    between atoms: C_8  and  N_7 
REMARK    5  A    between atoms: C_12  and  C_8 
REMARK    6  A    between atoms: C_9  and  C_12 
ROOT
ATOM      1  C   UNL d   1      52.652  32.519  53.072  0.00  0.00     0.179 C 
ATOM      2  S   UNL d   1      52.561  31.708  53.044  0.00  0.00    -0.040 SA
ENDROOT
BRANCH   1   3
ATOM      3  N   UNL d   1      53.086  32.867  53.675  0.00  0.00    -0.299 N 
ATOM      4  C   UNL d   1      53.863  32.659  53.769  0.00  0.00     0.259 C 
ATOM      5  O   UNL d   1      54.212  32.112  53.272  0.00  0.00    -0.267 OA
ATOM      6  H   UNL d   1      52.739  33.409  54.168  0.00  0.00     0.171 HD
BRANCH   4   7
ATOM      7  C   UNL d   1      54.306  33.007  54.378  0.00  0.00     0.056 A 
ATOM      8  C   UNL d   1      54.938  33.482  54.198  0.00  0.00     0.005 A 
ATOM      9  C   UNL d   1      55.380  33.829  54.796  0.00  0.00     0.000 A 
ATOM     10  C   UNL d   1      55.175  33.691  55.578  0.00  0.00     0.000 A 
ATOM     11  C   UNL d   1      54.543  33.216  55.758  0.00  0.00     0.000 A 
ATOM     12  C   UNL d   1      54.102  32.869  55.160  0.00  0.00     0.005 A 
ENDBRANCH   4   7
ENDBRANCH   1   3
BRANCH   1  13
ATOM     13  N   UNL d   1      52.312  32.994  52.497  0.00  0.00    -0.330 N 
ATOM     14  H   UNL d   1      52.684  33.107  51.785  0.00  0.00     0.168 HD
BRANCH  13  15
ATOM     15  C   UNL d   1      51.596  33.351  52.651  0.00  0.00     0.074 C 
BRANCH  15  16
ATOM     16  C   UNL d   1      51.376  34.020  52.221  0.00  0.00     0.018 C 
BRANCH  16  17
ATOM     17  C   UNL d   1      50.587  34.293  52.242  0.00  0.00     0.002 A 
ATOM     18  C   UNL d   1      50.281  34.635  52.933  0.00  0.00     0.000 A 
ATOM     19  C   UNL d   1      49.501  34.903  52.949  0.00  0.00     0.000 A 
ATOM     20  C   UNL d   1      49.023  34.831  52.276  0.00  0.00     0.000 A 
ATOM     21  C   UNL d   1      49.325  34.491  51.588  0.00  0.00     0.000 A 
ATOM     22  C   UNL d   1      50.109  34.221  51.569  0.00  0.00     0.000 A 
ENDBRANCH  16  17
ENDBRANCH  15  16
ENDBRANCH  13  15
ENDBRANCH   1  13
TORSDOF 6
ENDMDL
MODEL 4
REMARK VINA RESULT:      -7.9      2.561      5.235
REMARK  6 active torsions:
REMARK  status: ('A' for Active; 'I' for Inactive)
REMARK       I    between atoms: C_2  and  N_1 
REMARK    1  A    between atoms: C_3  and  N_1 
REMARK    2  A    between atoms: C_6  and  C_2 
REMARK    3  A    between atoms: N_7  and  C_3 
REMARK    4  A    between atoms: C_8  and  N_7 
REMARK    5  A    between atoms: C_12  and  C_8 
REMARK    6  A    between atoms: C_9  and  C_12 
ROOT
ATOM      1  C   UNL d   1      50.723  34.166  53.147  0.00  0.00     0.179 C 
ATOM      2  S   UNL d   1      50.629  33.374  52.970  0.00  0.00    -0.040 SA
ENDROOT
BRANCH   1   3
ATOM      3  N   UNL d   1      50.068  34.645  53.263  0.00  0.00    -0.299 N 
ATOM      4  C   UNL d   1      49.577  34.796  52.637  0.00  0.00     0.259 C 
ATOM      5  O   UNL d   1      49.731  34.478  51.900  0.00  0.00    -0.267 OA
ATOM      6  H   UNL d   1      49.916  34.961  53.994  0.00  0.00     0.171 HD
BRANCH   4   7
ATOM      7  C   UNL d   1      48.913  35.281  52.748  0.00  0.00     0.056 A 
ATOM      8  C   UNL d   1      48.805  35.663  53.455  0.00  0.00     0.005 A 
ATOM      9  C   UNL d   1      48.150  36.143  53.572  0.00  0.00     0.000 A 
ATOM     10  C   UNL d   1      47.605  36.232  52.964  0.00  0.00     0.000 A 
ATOM     11  C   UNL d   1      47.713  35.850  52.257  0.00  0.00     0.000 A 
ATOM     12  C   UNL d   1      48.368  35.370  52.142  0.00  0.00     0.005 A 
ENDBRANCH   4   7
ENDBRANCH   1   3
BRANCH   1  13
ATOM     13  N   UNL d   1      51.473  34.490  53.211  0.00  0.00    -0.330 N 
ATOM     14  H   UNL d   1      51.625  35.233  52.924  0.00  0.00     0.168 HD
BRANCH  13  15
ATOM     15  C   UNL d   1      52.064  34.055  53.566  0.00  0.00     0.074 C 
BRANCH  15  16
ATOM     16  C   UNL d   1      52.818  34.382  53.642  0.00  0.00     0.018 C 
BRANCH  16  17
ATOM     17  C   UNL d   1      53.422  33.958  54.031  0.00  0.00     0.002 A 
ATOM     18  C   UNL d   1      53.827  33.350  53.638  0.00  0.00     0.000 A 
ATOM     19  C   UNL d   1      54.423  32.934  54.028  0.00  0.00     0.000 A 
ATOM     20  C   UNL d   1      54.619  33.122  54.811  0.00  0.00     0.000 A 
ATOM     21  C   UNL d   1      54.218  33.726  55.204  0.00  0.00     0.000 A 
ATOM     22  C   UNL d   1      53.618  34.146  54.815  0.00  0.00     0.000 A 
ENDBRANCH  16  17
ENDBRANCH  15  16
ENDBRANCH  13  15
ENDBRANCH   1  13
TORSDOF 6
ENDMDL
MODEL 5
REMARK VINA RESULT:      -7.6      2.060      3.258
REMARK  6 active torsions:
REMARK  status: ('A' for Active; 'I' for Inactive)
REMARK       I    between atoms: C_2  and  N_1 
REMARK    1  A    between atoms: C_3  and  N_1 
REMARK    2  A    between atoms: C_6  and  C_2 
REMARK    3  A    between atoms: N_7  and  C_3 
REMARK    4  A    between atoms: C_8  and  N_7 
REMARK    5  A    between atoms: C_12  and  C_8 
REMARK    6  A    between atoms: C_9  and  C_12 
ROOT
ATOM      1  C   UNL d   1      51.215  34.219  52.933  0.00  0.00     0.179 C 
ATOM      2  S   UNL d   1      51.382  34.270  52.135  0.00  0.00    -0.040 SA
ENDROOT
BRANCH   1   3
ATOM      3  N   UNL d   1      51.824  34.168  53.481  0.00  0.00    -0.299 N 
ATOM      4  C   UNL d   1      52.350  33.555  53.425  0.00  0.00     0.259 C 
ATOM      5  O   UNL d   1      52.279  32.995  52.835  0.00  0.00    -0.267 OA
ATOM      6  H   UNL d   1      51.895  34.724  54.067  0.00  0.00     0.171 HD
BRANCH   4   7
ATOM      7  C   UNL d   1      52.968  33.499  53.977  0.00  0.00     0.056 A 
ATOM      8  C   UNL d   1      53.221  34.162  54.369  0.00  0.00     0.005 A 
ATOM      9  C   UNL d   1      53.832  34.113  54.916  0.00  0.00     0.000 A 
ATOM     10  C   UNL d   1      54.182  33.386  55.061  0.00  0.00     0.000 A 
ATOM     11  C   UNL d   1      53.929  32.723  54.669  0.00  0.00     0.000 A 
ATOM     12  C   UNL d   1      53.319  32.773  54.122  0.00  0.00     0.005 A 
ENDBRANCH   4   7
ENDBRANCH   1   3
BRANCH   1  13
ATOM     13  N   UNL d   1      50.439  34.218  53.195  0.00  0.00    -0.330 N 
ATOM     14  H   UNL d   1      50.195  33.682  53.752  0.00  0.00     0.168 HD
BRANCH  13  15
ATOM     15  C   UNL d   1      49.916  34.763  52.887  0.00  0.00     0.074 C 
BRANCH  15  16
ATOM     16  C   UNL d   1      49.193  34.888  53.265  0.00  0.00     0.018 C 
BRANCH  16  17
ATOM     17  C   UNL d   1      48.620  35.387  52.919  0.00  0.00     0.002 A 
ATOM     18  C   UNL d   1      48.324  35.224  52.161  0.00  0.00     0.000 A 
ATOM     19  C   UNL d   1      47.759  35.721  51.825  0.00  0.00     0.000 A 
ATOM     20  C   UNL d   1      47.485  36.383  52.242  0.00  0.00     0.000 A 
ATOM     21  C   UNL d   1      47.777  36.547  52.995  0.00  0.00     0.000 A 
ATOM     22  C   UNL d   1      48.346  36.049  53.336  0.00  0.00     0.000 A 
ENDBRANCH  16  17
ENDBRANCH  15  16
ENDBRANCH  13  15
ENDBRANCH   1  13
TORSDOF 6
ENDMDL
