MODEL 1
REMARK VINA RESULT:      49.2      0.000      0.000
REMARK  7 active torsions:
REMARK  status: ('A' for Active; 'I' for Inactive)
REMARK    1  A    between atoms: C_8  and  N_1 
REMARK       I    between atoms: C_3  and  N_5 
REMARK       I    between atoms: N_9  and  C_3 
REMARK    2  A    between atoms: N_5  and  C_6 
REMARK    3  A    between atoms: C_18  and  N_9 
REMARK    4  A    between atoms: C_19  and  N_9 
REMARK    5  A    between atoms: O_17  and  C_14 
REMARK    6  A    between atoms: C_21  and  C_18 
REMARK    7  A    between atoms: C_22  and  C_19 
ROOT
ATOM      1  N   UNL d   1     -55.564-102.355 -40.166  0.00  0.00    -0.272 N 
ATOM      2  C   UNL d   1     -56.292-102.625 -40.452  0.00  0.00     0.266 A 
ATOM      3  C   UNL d   1     -56.254-102.593 -41.281  0.00  0.00     0.082 A 
ATOM      4  C   UNL d   1     -55.510-102.307 -41.496  0.00  0.00     0.108 A 
ATOM      5  C   UNL d   1     -55.087-102.161 -40.801  0.00  0.00     0.102 A 
ATOM      6  O   UNL d   1     -56.930-102.876 -40.003  0.00  0.00    -0.267 OA
ENDROOT
BRANCH   4   7
ATOM      7  N   UNL d   1     -55.243-102.190 -42.270  0.00  0.00    -0.190 NA
ATOM      8  C   UNL d   1     -55.451-101.505 -42.672  0.00  0.00     0.354 C 
ATOM      9  N   UNL d   1     -55.186-101.383 -43.446  0.00  0.00    -0.256 N 
ATOM     10  O   UNL d   1     -55.923-100.937 -42.311  0.00  0.00    -0.244 OA
BRANCH   9  11
ATOM     11  C   UNL d   1     -55.392-100.695 -43.860  0.00  0.00     0.085 C 
BRANCH  11  12
ATOM     12  C   UNL d   1     -54.906-100.394 -44.446  0.00  0.00     0.019 C 
ATOM     13  C   UNL d   1     -54.869 -99.585 -44.599  0.00  0.00     0.002 C 
ENDBRANCH  11  12
ENDBRANCH   9  11
BRANCH   9  14
ATOM     14  C   UNL d   1     -54.712-101.953 -43.811  0.00  0.00     0.085 C 
BRANCH  14  15
ATOM     15  C   UNL d   1     -55.024-102.410 -44.420  0.00  0.00     0.019 C 
ATOM     16  C   UNL d   1     -54.765-102.288 -45.203  0.00  0.00     0.002 C 
ENDBRANCH  14  15
ENDBRANCH   9  14
ENDBRANCH   4   7
BRANCH   1  17
ATOM     17  C   UNL d   1     -55.357-102.293 -39.370  0.00  0.00     0.067 A 
ATOM     18  C   UNL d   1     -54.920-101.642 -39.107  0.00  0.00     0.020 A 
ATOM     19  C   UNL d   1     -54.713-101.580 -38.311  0.00  0.00     0.026 A 
ATOM     20  C   UNL d   1     -54.941-102.166 -37.778  0.00  0.00     0.094 A 
ATOM     21  C   UNL d   1     -55.375-102.816 -38.034  0.00  0.00     0.026 A 
ATOM     22  C   UNL d   1     -55.584-102.878 -38.838  0.00  0.00     0.020 A 
BRANCH  20  23
ATOM     23  O   UNL d   1     -54.730-102.096 -36.984  0.00  0.00    -0.328 OA
ATOM     24  C   UNL d   1     -54.869-101.387 -36.589  0.00  0.00     0.181 C 
ENDBRANCH  20  23
ENDBRANCH   1  17
TORSDOF 7
ENDMDL
