MODEL 1
REMARK VINA RESULT:       2.5      0.000      0.000
REMARK  2 active torsions:
REMARK  status: ('A' for Active; 'I' for Inactive)
REMARK    1  A    between atoms: C_3  and  C_1 
REMARK       I    between atoms: C_2  and  N_4 
REMARK    2  A    between atoms: N_4  and  C_9 
ROOT
ATOM      1  C   UNL d   1      46.468 -19.562  43.709  0.00  0.00     0.065 A 
ATOM      2  C   UNL d   1      46.555 -20.261  43.282  0.00  0.00     0.008 A 
ATOM      3  C   UNL d   1      46.440 -18.841  43.313  0.00  0.00     0.008 A 
ATOM      4  C   UNL d   1      46.587 -19.516  42.056  0.00  0.00     0.085 A 
ATOM      5  C   UNL d   1      46.615 -20.238  42.452  0.00  0.00     0.019 A 
ATOM      6  C   UNL d   1      46.499 -18.818  42.491  0.00  0.00     0.019 A 
ENDROOT
BRANCH   4   7
ATOM      7  N   UNL d   1      46.646 -19.490  41.233  0.00  0.00    -0.208 NA
ATOM      8  C   UNL d   1      46.575 -18.765  40.842  0.00  0.00     0.279 C 
ATOM      9  O   UNL d   1      46.634 -18.739  40.019  0.00  0.00    -0.265 OA
ATOM     10  C   UNL d   1      46.446 -18.075  41.271  0.00  0.00     0.068 C 
ENDBRANCH   4   7
BRANCH   1  11
ATOM     11  C   UNL d   1      46.408 -19.584  44.536  0.00  0.00     0.211 C 
ATOM     12  O   UNL d   1      46.185 -18.910  44.952  0.00  0.00    -0.644 OA
ATOM     13  O   UNL d   1      46.572 -20.281  44.942  0.00  0.00    -0.644 OA
ENDBRANCH   1  11
TORSDOF 2
ENDMDL
MODEL 2
REMARK VINA RESULT:       3.5      7.473      7.886
REMARK  2 active torsions:
REMARK  status: ('A' for Active; 'I' for Inactive)
REMARK    1  A    between atoms: C_3  and  C_1 
REMARK       I    between atoms: C_2  and  N_4 
REMARK    2  A    between atoms: N_4  and  C_9 
ROOT
ATOM      1  C   UNL d   1      42.927 -15.639  36.790  0.00  0.00     0.065 A 
ATOM      2  C   UNL d   1      43.351 -15.073  37.212  0.00  0.00     0.008 A 
ATOM      3  C   UNL d   1      43.327 -16.207  36.350  0.00  0.00     0.008 A 
ATOM      4  C   UNL d   1      44.585 -15.643  36.751  0.00  0.00     0.085 A 
ATOM      5  C   UNL d   1      44.184 -15.075  37.192  0.00  0.00     0.019 A 
ATOM      6  C   UNL d   1      44.152 -16.209  36.330  0.00  0.00     0.019 A 
ENDROOT
BRANCH   4   7
ATOM      7  N   UNL d   1      45.409 -15.649  36.729  0.00  0.00    -0.208 NA
ATOM      8  C   UNL d   1      45.822 -14.932  36.713  0.00  0.00     0.279 C 
ATOM      9  O   UNL d   1      46.647 -14.938  36.691  0.00  0.00    -0.265 OA
ATOM     10  C   UNL d   1      45.411 -14.220  36.720  0.00  0.00     0.068 C 
ENDBRANCH   4   7
BRANCH   1  11
ATOM     11  C   UNL d   1      42.097 -15.637  36.810  0.00  0.00     0.211 C 
ATOM     12  O   UNL d   1      41.673 -16.154  36.330  0.00  0.00    -0.644 OA
ATOM     13  O   UNL d   1      41.699 -15.119  37.309  0.00  0.00    -0.644 OA
ENDBRANCH   1  11
TORSDOF 2
ENDMDL
MODEL 3
REMARK VINA RESULT:       4.9      5.243      6.177
REMARK  2 active torsions:
REMARK  status: ('A' for Active; 'I' for Inactive)
REMARK    1  A    between atoms: C_3  and  C_1 
REMARK       I    between atoms: C_2  and  N_4 
REMARK    2  A    between atoms: N_4  and  C_9 
ROOT
ATOM      1  C   UNL d   1      45.182 -13.165  43.690  0.00  0.00     0.065 A 
ATOM      2  C   UNL d   1      45.958 -13.441  43.698  0.00  0.00     0.008 A 
ATOM      3  C   UNL d   1      44.596 -13.577  44.094  0.00  0.00     0.008 A 
ATOM      4  C   UNL d   1      45.562 -14.549  44.520  0.00  0.00     0.085 A 
ATOM      5  C   UNL d   1      46.149 -14.136  44.115  0.00  0.00     0.019 A 
ATOM      6  C   UNL d   1      44.785 -14.266  44.508  0.00  0.00     0.019 A 
ENDROOT
BRANCH   4   7
ATOM      7  N   UNL d   1      45.748 -15.238  44.935  0.00  0.00    -0.208 NA
ATOM      8  C   UNL d   1      45.748 -15.965  44.540  0.00  0.00     0.279 C 
ATOM      9  O   UNL d   1      45.934 -16.653  44.955  0.00  0.00    -0.265 OA
ATOM     10  C   UNL d   1      45.564 -15.998  43.739  0.00  0.00     0.068 C 
ENDBRANCH   4   7
BRANCH   1  11
ATOM     11  C   UNL d   1      44.991 -12.473  43.274  0.00  0.00     0.211 C 
ATOM     12  O   UNL d   1      45.510 -12.176  42.708  0.00  0.00    -0.644 OA
ATOM     13  O   UNL d   1      44.284 -12.081  43.428  0.00  0.00    -0.644 OA
ENDBRANCH   1  11
TORSDOF 2
ENDMDL
MODEL 4
REMARK VINA RESULT:       5.2      0.912      3.281
REMARK  2 active torsions:
REMARK  status: ('A' for Active; 'I' for Inactive)
REMARK    1  A    between atoms: C_3  and  C_1 
REMARK       I    between atoms: C_2  and  N_4 
REMARK    2  A    between atoms: N_4  and  C_9 
ROOT
ATOM      1  C   UNL d   1      46.520 -18.954  41.432  0.00  0.00     0.065 A 
ATOM      2  C   UNL d   1      46.529 -18.535  42.142  0.00  0.00     0.008 A 
ATOM      3  C   UNL d   1      46.553 -19.775  41.441  0.00  0.00     0.008 A 
ATOM      4  C   UNL d   1      46.605 -19.767  42.875  0.00  0.00     0.085 A 
ATOM      5  C   UNL d   1      46.572 -18.943  42.866  0.00  0.00     0.019 A 
ATOM      6  C   UNL d   1      46.595 -20.180  42.158  0.00  0.00     0.019 A 
ENDROOT
BRANCH   4   7
ATOM      7  N   UNL d   1      46.647 -20.175  43.591  0.00  0.00    -0.208 NA
ATOM      8  C   UNL d   1      46.206 -19.910  44.238  0.00  0.00     0.279 C 
ATOM      9  O   UNL d   1      46.248 -20.319  44.954  0.00  0.00    -0.265 OA
ATOM     10  C   UNL d   1      45.728 -19.244  44.167  0.00  0.00     0.068 C 
ENDBRANCH   4   7
BRANCH   1  11
ATOM     11  C   UNL d   1      46.478 -18.546  40.710  0.00  0.00     0.211 C 
ATOM     12  O   UNL d   1      46.643 -18.939  40.006  0.00  0.00    -0.644 OA
ATOM     13  O   UNL d   1      46.271 -17.750  40.698  0.00  0.00    -0.644 OA
ENDBRANCH   1  11
TORSDOF 2
ENDMDL
