MODEL 1
REMARK VINA RESULT:      -0.0      0.000      0.000
REMARK  3 active torsions:
REMARK  status: ('A' for Active; 'I' for Inactive)
REMARK    1  A    between atoms: C_9  and  N_1 
REMARK    2  A    between atoms: C_8  and  C_3 
REMARK    3  A    between atoms: C_17  and  C_9 
ROOT
ATOM      1  N   UNL d   1     -42.033-122.580 -51.661  0.00  0.00    -0.269 N 
ATOM      2  N   UNL d   1     -41.532-123.817 -51.750  0.00  0.00    -0.204 NA
ATOM      3  C   UNL d   1     -41.829-123.254 -51.226  0.00  0.00     0.174 A 
ATOM      4  C   UNL d   1     -41.862-122.730 -52.454  0.00  0.00     0.185 A 
ATOM      5  C   UNL d   1     -41.550-123.498 -52.512  0.00  0.00     0.199 A 
ATOM      6  N   UNL d   1     -41.947-122.270 -53.135  0.00  0.00    -0.224 NA
ATOM      7  N   UNL d   1     -41.329-123.798 -53.239  0.00  0.00    -0.223 NA
ATOM      8  C   UNL d   1     -41.720-122.581 -53.870  0.00  0.00     0.101 A 
ATOM      9  C   UNL d   1     -41.410-123.347 -53.919  0.00  0.00     0.101 A 
ATOM     10  C   UNL d   1     -41.804-122.121 -54.555  0.00  0.00     0.021 A 
ATOM     11  C   UNL d   1     -41.188-123.648 -54.646  0.00  0.00     0.021 A 
ATOM     12  C   UNL d   1     -41.579-122.431 -55.281  0.00  0.00     0.002 A 
ATOM     13  C   UNL d   1     -41.270-123.195 -55.326  0.00  0.00     0.002 A 
ENDROOT
BRANCH   1  14
ATOM     14  C   UNL d   1     -42.350-121.885 -51.364  0.00  0.00     0.108 C 
BRANCH  14  15
ATOM     15  C   UNL d   1     -41.879-121.211 -51.316  0.00  0.00     0.118 A 
ATOM     16  O   UNL d   1     -41.554-120.890 -50.628  0.00  0.00    -0.304 OA
ATOM     17  C   UNL d   1     -41.124-120.220 -50.835  0.00  0.00     0.123 A 
ATOM     18  C   UNL d   1     -41.180-120.123 -51.651  0.00  0.00     0.029 A 
ATOM     19  C   UNL d   1     -41.646-120.734 -51.948  0.00  0.00     0.028 A 
ENDBRANCH  14  15
ENDBRANCH   1  14
BRANCH   3  20
ATOM     20  C   UNL d   1     -41.906-123.350 -50.414  0.00  0.00     0.135 A 
ATOM     21  O   UNL d   1     -42.609-123.210 -49.989  0.00  0.00    -0.302 OA
ATOM     22  C   UNL d   1     -42.432-123.387 -49.129  0.00  0.00     0.123 A 
ATOM     23  C   UNL d   1     -41.613-123.632 -49.069  0.00  0.00     0.029 A 
ATOM     24  C   UNL d   1     -41.281-123.608 -49.882  0.00  0.00     0.030 A 
ENDBRANCH   3  20
TORSDOF 3
ENDMDL
MODEL 2
REMARK VINA RESULT:       1.0      1.708      4.468
REMARK  3 active torsions:
REMARK  status: ('A' for Active; 'I' for Inactive)
REMARK    1  A    between atoms: C_9  and  N_1 
REMARK    2  A    between atoms: C_8  and  C_3 
REMARK    3  A    between atoms: C_17  and  C_9 
ROOT
ATOM      1  N   UNL d   1     -42.009-122.654 -50.350  0.00  0.00    -0.269 N 
ATOM      2  N   UNL d   1     -41.123-123.654 -50.294  0.00  0.00    -0.204 NA
ATOM      3  C   UNL d   1     -41.527-123.148 -50.805  0.00  0.00     0.174 A 
ATOM      4  C   UNL d   1     -41.901-122.855 -49.557  0.00  0.00     0.185 A 
ATOM      5  C   UNL d   1     -41.351-123.476 -49.520  0.00  0.00     0.199 A 
ATOM      6  N   UNL d   1     -42.230-122.557 -48.861  0.00  0.00    -0.224 NA
ATOM      7  N   UNL d   1     -41.135-123.792 -48.797  0.00  0.00    -0.223 NA
ATOM      8  C   UNL d   1     -42.007-122.882 -48.131  0.00  0.00     0.101 A 
ATOM      9  C   UNL d   1     -41.458-123.501 -48.102  0.00  0.00     0.101 A 
ATOM     10  C   UNL d   1     -42.336-122.584 -47.429  0.00  0.00     0.021 A 
ATOM     11  C   UNL d   1     -41.242-123.817 -47.379  0.00  0.00     0.021 A 
ATOM     12  C   UNL d   1     -42.113-122.907 -46.709  0.00  0.00     0.002 A 
ATOM     13  C   UNL d   1     -41.565-123.525 -46.684  0.00  0.00     0.002 A 
ENDROOT
BRANCH   1  14
ATOM     14  C   UNL d   1     -42.507-122.066 -50.630  0.00  0.00     0.108 C 
BRANCH  14  15
ATOM     15  C   UNL d   1     -43.323-122.158 -50.562  0.00  0.00     0.118 A 
ATOM     16  O   UNL d   1     -43.718-122.839 -50.313  0.00  0.00    -0.304 OA
ATOM     17  C   UNL d   1     -44.526-122.688 -50.328  0.00  0.00     0.123 A 
ATOM     18  C   UNL d   1     -44.635-121.914 -50.585  0.00  0.00     0.029 A 
ATOM     19  C   UNL d   1     -43.894-121.587 -50.730  0.00  0.00     0.028 A 
ENDBRANCH  14  15
ENDBRANCH   1  14
BRANCH   3  20
ATOM     20  C   UNL d   1     -41.458-123.142 -51.624  0.00  0.00     0.135 A 
ATOM     21  O   UNL d   1     -41.668-123.779 -52.117  0.00  0.00    -0.302 OA
ATOM     22  C   UNL d   1     -41.499-123.522 -52.959  0.00  0.00     0.123 A 
ATOM     23  C   UNL d   1     -41.188-122.724 -52.938  0.00  0.00     0.029 A 
ATOM     24  C   UNL d   1     -41.162-122.483 -52.093  0.00  0.00     0.030 A 
ENDBRANCH   3  20
TORSDOF 3
ENDMDL
