MODEL 1
REMARK VINA RESULT:      78.3      0.000      0.000
REMARK  3 active torsions:
REMARK  status: ('A' for Active; 'I' for Inactive)
REMARK    1  A    between atoms: C_2  and  N_1 
REMARK    2  A    between atoms: C_5  and  C_8 
REMARK       I    between atoms: N_6  and  C_5 
REMARK    3  A    between atoms: C_13  and  N_6 
ROOT
ATOM      1  C   UNL d   1      58.660  49.370  50.891  0.00  0.00     0.070 A 
ATOM      2  C   UNL d   1      59.264  48.928  50.535  0.00  0.00     0.022 A 
ATOM      3  C   UNL d   1      59.978  48.820  50.927  0.00  0.00     0.059 A 
ATOM      4  C   UNL d   1      58.772  49.708  51.652  0.00  0.00     0.018 A 
ATOM      5  C   UNL d   1      60.097  49.145  51.670  0.00  0.00     0.005 A 
ATOM      6  C   UNL d   1      59.492  49.592  52.036  0.00  0.00     0.002 A 
ENDROOT
BRANCH   3   7
ATOM      7  C   UNL d   1      60.581  48.381  50.576  0.00  0.00     0.279 C 
ATOM      8  N   UNL d   1      60.494  47.567  50.472  0.00  0.00    -0.208 NA
ATOM      9  O   UNL d   1      61.272  48.751  50.329  0.00  0.00    -0.265 OA
BRANCH   8  10
ATOM     10  C   UNL d   1      61.107  47.121  50.115  0.00  0.00     0.085 A 
ATOM     11  C   UNL d   1      60.972  46.345  49.884  0.00  0.00     0.020 A 
ATOM     12  C   UNL d   1      61.566  45.887  49.529  0.00  0.00     0.008 A 
ATOM     13  C   UNL d   1      61.593  45.106  49.244  0.00  0.00     0.007 A 
ATOM     14  C   UNL d   1      62.311  46.226  49.408  0.00  0.00     0.030 A 
ATOM     15  C   UNL d   1      62.345  44.981  48.956  0.00  0.00     0.035 A 
ATOM     16  S   UNL d   1      62.798  45.649  49.046  0.00  0.00    -0.086 SA
ATOM     17  C   UNL d   1      62.456  47.021  49.642  0.00  0.00     0.008 A 
ATOM     18  C   UNL d   1      61.849  47.462  49.995  0.00  0.00     0.020 A 
ENDBRANCH   8  10
ENDBRANCH   3   7
BRANCH   1  19
ATOM     19  N   UNL d   1      57.940  49.483  50.502  0.00  0.00    -0.242 N 
ATOM     20  C   UNL d   1      57.809  49.634  49.707  0.00  0.00     0.267 A 
ATOM     21  C   UNL d   1      57.014  49.708  49.560  0.00  0.00     0.066 A 
ATOM     22  O   UNL d   1      58.429  49.707  49.099  0.00  0.00    -0.267 OA
ATOM     23  C   UNL d   1      56.636  49.603  50.268  0.00  0.00     0.066 A 
ATOM     24  C   UNL d   1      57.187  49.470  50.821  0.00  0.00     0.267 A 
ATOM     25  O   UNL d   1      56.994  49.329  51.669  0.00  0.00    -0.267 OA
ENDBRANCH   1  19
TORSDOF 3
ENDMDL
