MODEL 1
REMARK VINA RESULT:      -1.8      0.000      0.000
REMARK  4 active torsions:
REMARK  status: ('A' for Active; 'I' for Inactive)
REMARK    1  A    between atoms: C_2  and  C_1 
REMARK    2  A    between atoms: C_16  and  C_4 
REMARK    3  A    between atoms: C_28  and  C_15 
REMARK    4  A    between atoms: N_17  and  C_16 
ROOT
ATOM      1  C   UNL d   1      32.480  19.283 -22.955  0.00  0.00     0.098 A 
ATOM      2  C   UNL d   1      32.067  17.281 -24.364  0.00  0.00     0.079 A 
ATOM      3  C   UNL d   1      32.654  17.878 -23.208  0.00  0.00     0.062 A 
ATOM      4  C   UNL d   1      32.795  18.538 -22.735  0.00  0.00     0.202 A 
ATOM      5  C   UNL d   1      32.201  17.938 -23.904  0.00  0.00     0.108 A 
ATOM      6  C   UNL d   1      32.027  19.343 -23.653  0.00  0.00     0.129 A 
ATOM      7  O   UNL d   1      31.885  18.673 -24.131  0.00  0.00    -0.305 OA
ATOM      8  C   UNL d   1      32.378  16.552 -24.145  0.00  0.00     0.199 A 
ATOM      9  C   UNL d   1      32.967  17.148 -22.985  0.00  0.00     0.008 A 
ATOM     10  C   UNL d   1      32.825  16.492 -23.457  0.00  0.00     0.039 A 
ATOM     11  O   UNL d   1      33.240  18.474 -22.051  0.00  0.00    -0.286 OA
ATOM     12  O   UNL d   1      32.246  15.886 -24.606  0.00  0.00    -0.286 OA
ENDROOT
BRANCH   1  13
ATOM     13  C   UNL d   1      32.617  19.948 -22.486  0.00  0.00     0.153 A 
ATOM     14  N   UNL d   1      32.458  20.012 -21.675  0.00  0.00    -0.227 NA
ATOM     15  C   UNL d   1      32.682  20.773 -21.435  0.00  0.00     0.099 A 
ATOM     16  C   UNL d   1      32.651  21.138 -20.704  0.00  0.00     0.021 A 
ATOM     17  C   UNL d   1      32.974  21.170 -22.084  0.00  0.00     0.083 A 
ATOM     18  C   UNL d   1      32.917  21.915 -20.622  0.00  0.00     0.002 A 
ATOM     19  C   UNL d   1      33.211  22.317 -21.273  0.00  0.00     0.002 A 
ATOM     20  C   UNL d   1      33.240  21.940 -22.017  0.00  0.00     0.019 A 
ATOM     21  N   UNL d   1      32.936  20.658 -22.746  0.00  0.00    -0.288 N 
ATOM     22  C   UNL d   1      33.172  20.828 -23.519  0.00  0.00     0.101 C 
ENDBRANCH   1  13
BRANCH  10  23
ATOM     23  C   UNL d   1      33.140  15.753 -23.235  0.00  0.00     0.003 C 
ATOM     24  C   UNL d   1      33.013  15.454 -22.473  0.00  0.00     0.000 C 
ENDBRANCH  10  23
BRANCH   2  25
ATOM     25  C   UNL d   1      31.620  17.340 -25.053  0.00  0.00     0.086 C 
BRANCH  25  26
ATOM     26  N   UNL d   1      30.836  17.109 -25.054  0.00  0.00    -0.300 N 
ATOM     27  C   UNL d   1      30.639  16.301 -25.085  0.00  0.00     0.100 A 
ATOM     28  C   UNL d   1      29.832  16.076 -25.085  0.00  0.00     0.100 A 
ATOM     29  N   UNL d   1      29.239  16.646 -25.055  0.00  0.00    -0.299 N 
ATOM     30  C   UNL d   1      29.445  17.453 -25.024  0.00  0.00     0.100 A 
ATOM     31  C   UNL d   1      28.442  16.419 -25.056  0.00  0.00     0.100 C 
ATOM     32  C   UNL d   1      30.239  17.681 -25.024  0.00  0.00     0.100 A 
ENDBRANCH  25  26
ENDBRANCH   2  25
TORSDOF 4
ENDMDL
MODEL 2
REMARK VINA RESULT:      -0.0      1.516      3.209
REMARK  4 active torsions:
REMARK  status: ('A' for Active; 'I' for Inactive)
REMARK    1  A    between atoms: C_2  and  C_1 
REMARK    2  A    between atoms: C_16  and  C_4 
REMARK    3  A    between atoms: C_28  and  C_15 
REMARK    4  A    between atoms: N_17  and  C_16 
ROOT
ATOM      1  C   UNL d   1      33.207  20.981 -21.331  0.00  0.00     0.098 A 
ATOM      2  C   UNL d   1      33.225  19.329 -23.184  0.00  0.00     0.079 A 
ATOM      3  C   UNL d   1      33.219  20.685 -22.738  0.00  0.00     0.062 A 
ATOM      4  C   UNL d   1      33.213  21.239 -22.128  0.00  0.00     0.202 A 
ATOM      5  C   UNL d   1      33.219  19.868 -22.575  0.00  0.00     0.108 A 
ATOM      6  C   UNL d   1      33.206  20.163 -21.168  0.00  0.00     0.129 A 
ATOM      7  O   UNL d   1      33.212  19.603 -21.787  0.00  0.00    -0.305 OA
ATOM      8  C   UNL d   1      33.231  19.586 -23.965  0.00  0.00     0.199 A 
ATOM      9  C   UNL d   1      33.226  20.946 -23.520  0.00  0.00     0.008 A 
ATOM     10  C   UNL d   1      33.232  20.393 -24.126  0.00  0.00     0.039 A 
ATOM     11  O   UNL d   1      33.214  22.041 -22.292  0.00  0.00    -0.286 OA
ATOM     12  O   UNL d   1      33.237  19.046 -24.582  0.00  0.00    -0.286 OA
ENDROOT
BRANCH   1  13
ATOM     13  C   UNL d   1      33.201  21.530 -20.715  0.00  0.00     0.153 A 
ATOM     14  N   UNL d   1      33.205  22.355 -20.800  0.00  0.00    -0.227 NA
ATOM     15  C   UNL d   1      33.197  22.686 -20.040  0.00  0.00     0.099 A 
ATOM     16  C   UNL d   1      33.197  23.465 -19.791  0.00  0.00     0.021 A 
ATOM     17  C   UNL d   1      33.187  22.078 -19.497  0.00  0.00     0.083 A 
ATOM     18  C   UNL d   1      33.186  23.637 -18.984  0.00  0.00     0.002 A 
ATOM     19  C   UNL d   1      33.176  23.028 -18.437  0.00  0.00     0.002 A 
ATOM     20  C   UNL d   1      33.177  22.235 -18.695  0.00  0.00     0.019 A 
ATOM     21  N   UNL d   1      33.189  21.351 -19.914  0.00  0.00    -0.288 N 
ATOM     22  C   UNL d   1      33.182  20.592 -19.589  0.00  0.00     0.101 C 
ENDBRANCH   1  13
BRANCH  10  23
ATOM     23  C   UNL d   1      33.238  20.654 -24.918  0.00  0.00     0.003 C 
ATOM     24  C   UNL d   1      33.132  21.454 -25.097  0.00  0.00     0.000 C 
ENDBRANCH  10  23
BRANCH   2  25
ATOM     25  C   UNL d   1      33.224  18.522 -23.023  0.00  0.00     0.086 C 
BRANCH  25  26
ATOM     26  N   UNL d   1      32.638  18.043 -23.331  0.00  0.00    -0.300 N 
ATOM     27  C   UNL d   1      31.838  18.191 -23.149  0.00  0.00     0.100 A 
ATOM     28  C   UNL d   1      31.246  17.694 -23.470  0.00  0.00     0.100 A 
ATOM     29  N   UNL d   1      31.449  17.064 -23.960  0.00  0.00    -0.299 N 
ATOM     30  C   UNL d   1      32.251  16.923 -24.137  0.00  0.00     0.100 A 
ATOM     31  C   UNL d   1      30.860  16.574 -24.275  0.00  0.00     0.100 C 
ATOM     32  C   UNL d   1      32.840  17.409 -23.823  0.00  0.00     0.100 A 
ENDBRANCH  25  26
ENDBRANCH   2  25
TORSDOF 4
ENDMDL
