MODEL 1
REMARK VINA RESULT:     231.5      0.000      0.000
REMARK  6 active torsions:
REMARK  status: ('A' for Active; 'I' for Inactive)
REMARK    1  A    between atoms: C_2  and  N_1 
REMARK    2  A    between atoms: C_4  and  C_2 
REMARK    3  A    between atoms: C_6  and  C_2 
REMARK    4  A    between atoms: C_8  and  N_3 
REMARK       I    between atoms: C_5  and  N_7 
REMARK    5  A    between atoms: O_20  and  C_5 
REMARK    6  A    between atoms: N_7  and  C_6 
ROOT
ATOM      1  N   UNL d   1     -56.958-100.294 -42.842  0.00  0.00    -0.298 N 
ATOM      2  N   UNL d   1     -56.368-100.131 -44.375  0.00  0.00    -0.301 N 
ATOM      3  C   UNL d   1     -56.495-100.886 -43.163  0.00  0.00     0.100 A 
ATOM      4  C   UNL d   1     -57.131 -99.617 -43.281  0.00  0.00     0.100 A 
ATOM      5  C   UNL d   1     -56.840 -99.536 -44.038  0.00  0.00     0.100 A 
ATOM      6  C   UNL d   1     -56.195-100.808 -43.936  0.00  0.00     0.100 A 
ENDROOT
BRANCH   1   7
ATOM      7  C   UNL d   1     -57.258-100.371 -42.069  0.00  0.00     0.107 C 
BRANCH   7   8
ATOM      8  C   UNL d   1     -58.004-100.034 -41.885  0.00  0.00     0.118 A 
ATOM      9  O   UNL d   1     -58.626-100.071 -42.427  0.00  0.00    -0.304 OA
ATOM     10  C   UNL d   1     -59.280 -99.691 -42.083  0.00  0.00     0.123 A 
ATOM     11  C   UNL d   1     -59.062 -99.426 -41.344  0.00  0.00     0.029 A 
ATOM     12  C   UNL d   1     -58.271 -99.636 -41.215  0.00  0.00     0.028 A 
ENDBRANCH   7   8
BRANCH   7  13
ATOM     13  C   UNL d   1     -56.839-100.770 -41.484  0.00  0.00     0.124 C 
BRANCH  13  14
ATOM     14  N   UNL d   1     -57.126-100.770 -40.696  0.00  0.00    -0.183 NA
ATOM     15  C   UNL d   1     -57.108-101.451 -40.251  0.00  0.00     0.388 C 
ATOM     16  O   UNL d   1     -56.804-102.149 -40.577  0.00  0.00    -0.236 OA
BRANCH  15  17
ATOM     17  O   UNL d   1     -57.392-101.442 -39.477  0.00  0.00    -0.281 OA
ATOM     18  C   UNL d   1     -58.130-101.769 -39.305  0.00  0.00     0.186 C 
ENDBRANCH  15  17
ENDBRANCH  13  14
ENDBRANCH   7  13
ENDBRANCH   1   7
BRANCH   2  19
ATOM     19  C   UNL d   1     -56.082-100.047 -45.126  0.00  0.00     0.064 A 
ATOM     20  C   UNL d   1     -55.269-100.017 -45.254  0.00  0.00     0.020 A 
ATOM     21  C   UNL d   1     -54.969 -99.931 -46.016  0.00  0.00     0.031 A 
ATOM     22  C   UNL d   1     -55.487 -99.876 -46.656  0.00  0.00     0.140 A 
ATOM     23  C   UNL d   1     -56.302 -99.906 -46.531  0.00  0.00     0.031 A 
ATOM     24  F   UNL d   1     -55.188 -99.789 -47.434  0.00  0.00    -0.204 F 
ATOM     25  C   UNL d   1     -56.600 -99.992 -45.766  0.00  0.00     0.020 A 
ENDBRANCH   2  19
TORSDOF 6
ENDMDL
