MODEL 1
REMARK VINA RESULT:      -1.2      0.000      0.000
REMARK  5 active torsions:
REMARK  status: ('A' for Active; 'I' for Inactive)
REMARK    1  A    between atoms: C_2  and  C_1 
REMARK    2  A    between atoms: S_3  and  C_4 
REMARK    3  A    between atoms: C_7  and  S_3 
REMARK    4  A    between atoms: C_5  and  C_7 
REMARK    5  A    between atoms: C_6  and  C_5 
ROOT
ATOM      1  S   UNL d   1     -42.159-122.843 -51.509  0.00  0.00    -0.083 SA
ENDROOT
BRANCH   1   2
ATOM      2  C   UNL d   1     -41.809-122.258 -52.008  0.00  0.00     0.035 A 
ATOM      3  C   UNL d   1     -41.678-122.392 -52.812  0.00  0.00     0.070 A 
ATOM      4  C   UNL d   1     -41.341-121.817 -53.274  0.00  0.00     0.007 A 
ATOM      5  C   UNL d   1     -41.123-121.092 -52.956  0.00  0.00     0.000 A 
ATOM      6  C   UNL d   1     -41.252-120.946 -52.138  0.00  0.00     0.001 A 
ATOM      7  C   UNL d   1     -41.599-121.550 -51.684  0.00  0.00     0.007 A 
BRANCH   3   8
ATOM      8  C   UNL d   1     -41.890-123.110 -53.144  0.00  0.00     0.211 C 
ATOM      9  O   UNL d   1     -41.386-123.772 -53.028  0.00  0.00    -0.644 OA
ATOM     10  O   UNL d   1     -42.587-123.184 -53.584  0.00  0.00    -0.644 OA
ENDBRANCH   3   8
ENDBRANCH   1   2
BRANCH   1  11
ATOM     11  C   UNL d   1     -41.896-122.904 -50.751  0.00  0.00     0.077 C 
BRANCH  11  12
ATOM     12  C   UNL d   1     -42.373-123.266 -50.170  0.00  0.00     0.202 C 
ATOM     13  O   UNL d   1     -43.075-123.626 -50.394  0.00  0.00    -0.286 OA
BRANCH  12  14
ATOM     14  C   UNL d   1     -42.108-123.242 -49.394  0.00  0.00     0.040 A 
ATOM     15  C   UNL d   1     -41.544-123.817 -49.159  0.00  0.00     0.003 A 
ATOM     16  C   UNL d   1     -41.268-123.807 -48.383  0.00  0.00     0.000 A 
ATOM     17  C   UNL d   1     -41.536-123.259 -47.874  0.00  0.00     0.000 A 
ATOM     18  C   UNL d   1     -42.098-122.686 -48.110  0.00  0.00     0.000 A 
ATOM     19  C   UNL d   1     -41.254-123.247 -47.076  0.00  0.00     0.000 C 
ATOM     20  C   UNL d   1     -42.372-122.705 -48.900  0.00  0.00     0.003 A 
ENDBRANCH  12  14
ENDBRANCH  11  12
ENDBRANCH   1  11
TORSDOF 5
ENDMDL
MODEL 2
REMARK VINA RESULT:      -1.0      1.794      4.824
REMARK  5 active torsions:
REMARK  status: ('A' for Active; 'I' for Inactive)
REMARK    1  A    between atoms: C_2  and  C_1 
REMARK    2  A    between atoms: S_3  and  C_4 
REMARK    3  A    between atoms: C_7  and  S_3 
REMARK    4  A    between atoms: C_5  and  C_7 
REMARK    5  A    between atoms: C_6  and  C_5 
ROOT
ATOM      1  S   UNL d   1     -41.935-122.548 -52.552  0.00  0.00    -0.083 SA
ENDROOT
BRANCH   1   2
ATOM      2  C   UNL d   1     -41.667-122.786 -51.787  0.00  0.00     0.035 A 
ATOM      3  C   UNL d   1     -41.674-122.271 -51.142  0.00  0.00     0.070 A 
ATOM      4  C   UNL d   1     -41.413-122.519 -50.416  0.00  0.00     0.007 A 
ATOM      5  C   UNL d   1     -41.136-123.284 -50.305  0.00  0.00     0.000 A 
ATOM      6  C   UNL d   1     -41.124-123.817 -50.955  0.00  0.00     0.001 A 
ATOM      7  C   UNL d   1     -41.397-123.539 -51.690  0.00  0.00     0.007 A 
BRANCH   3   8
ATOM      8  C   UNL d   1     -41.948-121.505 -51.238  0.00  0.00     0.211 C 
ATOM      9  O   UNL d   1     -41.406-120.910 -51.477  0.00  0.00    -0.644 OA
ATOM     10  O   UNL d   1     -42.743-121.319 -51.102  0.00  0.00    -0.644 OA
ENDBRANCH   3   8
ENDBRANCH   1   2
BRANCH   1  11
ATOM     11  C   UNL d   1     -41.515-122.789 -53.195  0.00  0.00     0.077 C 
BRANCH  11  12
ATOM     12  C   UNL d   1     -41.911-123.074 -53.871  0.00  0.00     0.202 C 
ATOM     13  O   UNL d   1     -42.256-123.817 -53.851  0.00  0.00    -0.286 OA
BRANCH  12  14
ATOM     14  C   UNL d   1     -41.934-122.586 -54.531  0.00  0.00     0.040 A 
ATOM     15  C   UNL d   1     -41.228-122.506 -54.977  0.00  0.00     0.003 A 
ATOM     16  C   UNL d   1     -41.234-122.019 -55.642  0.00  0.00     0.000 A 
ATOM     17  C   UNL d   1     -41.899-121.639 -55.849  0.00  0.00     0.000 A 
ATOM     18  C   UNL d   1     -42.602-121.721 -55.403  0.00  0.00     0.000 A 
ATOM     19  C   UNL d   1     -41.908-121.138 -56.533  0.00  0.00     0.000 C 
ATOM     20  C   UNL d   1     -42.587-122.216 -54.729  0.00  0.00     0.003 A 
ENDBRANCH  12  14
ENDBRANCH  11  12
ENDBRANCH   1  11
TORSDOF 5
ENDMDL
