MODEL 1
REMARK VINA RESULT:       1.2      0.000      0.000
REMARK  5 active torsions:
REMARK  status: ('A' for Active; 'I' for Inactive)
REMARK    1  A    between atoms: C_6  and  N_1 
REMARK    2  A    between atoms: C_7  and  C_2 
REMARK    3  A    between atoms: C_14  and  C_5 
REMARK    4  A    between atoms: C_11  and  C_7 
REMARK    5  A    between atoms: O_26  and  C_23 
ROOT
ATOM      1  N   UNL d   1      30.624  17.994 -24.534  0.00  0.00    -0.250 N 
ATOM      2  C   UNL d   1      29.830  16.935 -24.453  0.00  0.00     0.099 A 
ATOM      3  C   UNL d   1      29.862  18.201 -24.812  0.00  0.00     0.305 A 
ATOM      4  C   UNL d   1      29.389  17.583 -24.768  0.00  0.00     0.256 A 
ATOM      5  C   UNL d   1      30.603  17.213 -24.312  0.00  0.00     0.075 A 
ATOM      6  O   UNL d   1      29.628  18.948 -25.097  0.00  0.00    -0.263 OA
ATOM      7  O   UNL d   1      28.580  17.581 -24.999  0.00  0.00    -0.281 OA
ENDROOT
BRANCH   5   8
ATOM      8  C   UNL d   1      31.224  16.781 -24.009  0.00  0.00     0.017 A 
ATOM      9  C   UNL d   1      31.357  16.788 -23.196  0.00  0.00     0.004 A 
ATOM     10  C   UNL d   1      32.001  16.340 -22.886  0.00  0.00     0.024 A 
ATOM     11  C   UNL d   1      32.489  15.903 -23.388  0.00  0.00     0.094 A 
ATOM     12  C   UNL d   1      32.341  15.908 -24.203  0.00  0.00     0.024 A 
ATOM     13  C   UNL d   1      31.708  16.347 -24.514  0.00  0.00     0.004 A 
BRANCH  11  14
ATOM     14  O   UNL d   1      33.112  15.470 -23.086  0.00  0.00    -0.328 OA
ATOM     15  C   UNL d   1      33.240  15.453 -22.275  0.00  0.00     0.181 C 
ENDBRANCH  11  14
ENDBRANCH   5   8
BRANCH   2  16
ATOM     16  C   UNL d   1      29.553  16.170 -24.310  0.00  0.00     0.206 C 
ATOM     17  O   UNL d   1      29.906  15.523 -24.722  0.00  0.00    -0.286 OA
BRANCH  16  18
ATOM     18  C   UNL d   1      28.948  16.055 -23.778  0.00  0.00     0.069 A 
ATOM     19  S   UNL d   1      28.327  15.481 -23.827  0.00  0.00    -0.083 SA
ATOM     20  C   UNL d   1      27.858  15.566 -23.188  0.00  0.00     0.035 A 
ATOM     21  C   UNL d   1      28.145  16.174 -22.718  0.00  0.00     0.008 A 
ATOM     22  C   UNL d   1      28.838  16.485 -23.092  0.00  0.00     0.010 A 
ENDBRANCH  16  18
ENDBRANCH   2  16
BRANCH   1  23
ATOM     23  C   UNL d   1      31.264  18.524 -24.504  0.00  0.00     0.204 A 
ATOM     24  S   UNL d   1      31.871  18.528 -25.079  0.00  0.00    -0.025 SA
ATOM     25  C   UNL d   1      32.404  19.123 -24.870  0.00  0.00     0.161 A 
ATOM     26  N   UNL d   1      32.129  19.473 -24.183  0.00  0.00    -0.137 NA
ATOM     27  N   UNL d   1      31.420  19.103 -23.952  0.00  0.00    -0.122 NA
ENDBRANCH   1  23
TORSDOF 5
ENDMDL
MODEL 2
REMARK VINA RESULT:       3.2      1.824      2.839
REMARK  5 active torsions:
REMARK  status: ('A' for Active; 'I' for Inactive)
REMARK    1  A    between atoms: C_6  and  N_1 
REMARK    2  A    between atoms: C_7  and  C_2 
REMARK    3  A    between atoms: C_14  and  C_5 
REMARK    4  A    between atoms: C_11  and  C_7 
REMARK    5  A    between atoms: O_26  and  C_23 
ROOT
ATOM      1  N   UNL d   1      31.430  16.706 -24.073  0.00  0.00    -0.250 N 
ATOM      2  C   UNL d   1      30.512  17.567 -24.492  0.00  0.00     0.099 A 
ATOM      3  C   UNL d   1      30.772  16.282 -24.370  0.00  0.00     0.305 A 
ATOM      4  C   UNL d   1      30.227  16.781 -24.619  0.00  0.00     0.256 A 
ATOM      5  C   UNL d   1      31.267  17.498 -24.149  0.00  0.00     0.075 A 
ATOM      6  O   UNL d   1      30.694  15.453 -24.403  0.00  0.00    -0.263 OA
ATOM      7  O   UNL d   1      29.489  16.556 -24.954  0.00  0.00    -0.281 OA
ENDROOT
BRANCH   5   8
ATOM      8  C   UNL d   1      31.756  18.112 -23.929  0.00  0.00     0.017 A 
ATOM      9  C   UNL d   1      31.735  18.382 -23.151  0.00  0.00     0.004 A 
ATOM     10  C   UNL d   1      32.242  19.018 -22.928  0.00  0.00     0.024 A 
ATOM     11  C   UNL d   1      32.750  19.364 -23.478  0.00  0.00     0.094 A 
ATOM     12  C   UNL d   1      32.758  19.081 -24.257  0.00  0.00     0.024 A 
ATOM     13  C   UNL d   1      32.260  18.454 -24.483  0.00  0.00     0.004 A 
BRANCH  11  14
ATOM     14  O   UNL d   1      33.240  19.980 -23.261  0.00  0.00    -0.328 OA
ATOM     15  C   UNL d   1      33.000  20.503 -22.675  0.00  0.00     0.181 C 
ENDBRANCH  11  14
ENDBRANCH   5   8
BRANCH   2  16
ATOM     16  C   UNL d   1      30.119  18.270 -24.673  0.00  0.00     0.206 C 
ATOM     17  O   UNL d   1      30.552  18.900 -25.031  0.00  0.00    -0.286 OA
BRANCH  16  18
ATOM     18  C   UNL d   1      29.327  18.343 -24.503  0.00  0.00     0.069 A 
ATOM     19  S   UNL d   1      28.688  18.391 -25.056  0.00  0.00    -0.083 SA
ATOM     20  C   UNL d   1      28.007  18.458 -24.646  0.00  0.00     0.035 A 
ATOM     21  C   UNL d   1      28.172  18.456 -23.842  0.00  0.00     0.008 A 
ATOM     22  C   UNL d   1      29.010  18.383 -23.750  0.00  0.00     0.010 A 
ENDBRANCH  16  18
ENDBRANCH   2  16
BRANCH   1  23
ATOM     23  C   UNL d   1      32.110  16.343 -23.763  0.00  0.00     0.204 A 
ATOM     24  S   UNL d   1      32.633  15.891 -24.233  0.00  0.00    -0.025 SA
ATOM     25  C   UNL d   1      33.238  15.622 -23.740  0.00  0.00     0.161 A 
ATOM     26  N   UNL d   1      33.087  15.904 -22.986  0.00  0.00    -0.137 NA
ATOM     27  N   UNL d   1      32.387  16.353 -22.996  0.00  0.00    -0.122 NA
ENDBRANCH   1  23
TORSDOF 5
ENDMDL
