MODEL 1
REMARK VINA RESULT:      25.2      0.000      0.000
REMARK  7 active torsions:
REMARK  status: ('A' for Active; 'I' for Inactive)
REMARK    1  A    between atoms: C_6  and  N_2 
REMARK    2  A    between atoms: C_7  and  C_3 
REMARK    3  A    between atoms: C_8  and  C_6 
REMARK    4  A    between atoms: O_13  and  C_7 
REMARK    5  A    between atoms: C_14  and  C_8 
REMARK    6  A    between atoms: C_9  and  O_12 
REMARK    7  A    between atoms: O_12  and  C_14 
ROOT
ATOM      1  N   UNL d   1      13.049  13.425  -5.180  0.00  0.00    -0.225 NA
ATOM      2  N   UNL d   1      12.990  13.061  -3.865  0.00  0.00    -0.287 N 
ATOM      3  C   UNL d   1      12.953  12.770  -4.657  0.00  0.00     0.172 A 
ATOM      4  C   UNL d   1      13.107  13.885  -3.890  0.00  0.00     0.083 A 
ATOM      5  C   UNL d   1      13.145  14.110  -4.703  0.00  0.00     0.099 A 
ATOM      6  C   UNL d   1      13.186  14.462  -3.302  0.00  0.00     0.019 A 
ATOM      7  C   UNL d   1      13.260  14.906  -4.907  0.00  0.00     0.021 A 
ATOM      8  C   UNL d   1      13.302  15.261  -3.515  0.00  0.00     0.002 A 
ATOM      9  C   UNL d   1      13.338  15.482  -4.315  0.00  0.00     0.002 A 
ENDROOT
BRANCH   2  10
ATOM     10  C   UNL d   1      12.902  12.474  -3.289  0.00  0.00     0.084 C 
BRANCH  10  11
ATOM     11  C   UNL d   1      13.560  12.033  -3.057  0.00  0.00     0.046 C 
BRANCH  11  12
ATOM     12  C   UNL d   1      13.657  11.833  -2.273  0.00  0.00     0.124 C 
BRANCH  12  13
ATOM     13  O   UNL d   1      14.414  11.781  -1.958  0.00  0.00    -0.305 OA
BRANCH  13  14
ATOM     14  C   UNL d   1      14.619  12.238  -1.306  0.00  0.00     0.100 A 
ATOM     15  C   UNL d   1      14.122  12.268  -0.662  0.00  0.00     0.025 A 
ATOM     16  C   UNL d   1      14.323  12.719  -0.018  0.00  0.00     0.002 A 
ATOM     17  C   UNL d   1      15.033  13.150  -0.014  0.00  0.00     0.000 A 
ATOM     18  C   UNL d   1      15.526  13.112  -0.670  0.00  0.00     0.002 A 
ATOM     19  C   UNL d   1      15.315  12.655  -1.314  0.00  0.00     0.025 A 
ENDBRANCH  13  14
ENDBRANCH  12  13
ENDBRANCH  11  12
ENDBRANCH  10  11
ENDBRANCH   2  10
BRANCH   3  20
ATOM     20  C   UNL d   1      12.859  12.102  -4.948  0.00  0.00     0.154 C 
BRANCH  20  21
ATOM     21  O   UNL d   1      13.307  11.779  -5.553  0.00  0.00    -0.323 OA
ATOM     22  C   UNL d   1      13.263  11.824  -6.378  0.00  0.00     0.182 C 
ENDBRANCH  20  21
ENDBRANCH   3  20
TORSDOF 7
ENDMDL
