MODEL 1
REMARK VINA RESULT:      -5.2      0.000      0.000
REMARK  2 active torsions:
REMARK  status: ('A' for Active; 'I' for Inactive)
REMARK    1  A    between atoms: C_5  and  C_1 
REMARK    2  A    between atoms: C_10  and  N_4 
ROOT
ATOM      1  N   UNL d   1     -41.761-122.573 -50.606  0.00  0.00    -0.273 N 
ATOM      2  C   UNL d   1     -41.494-122.459 -51.918  0.00  0.00     0.057 A 
ATOM      3  C   UNL d   1     -41.340-121.866 -50.725  0.00  0.00     0.265 A 
ATOM      4  C   UNL d   1     -41.852-122.932 -51.337  0.00  0.00     0.086 A 
ATOM      5  C   UNL d   1     -41.177-121.798 -51.529  0.00  0.00     0.066 A 
ATOM      6  O   UNL d   1     -41.126-121.331 -50.131  0.00  0.00    -0.267 OA
ENDROOT
BRANCH   2   7
ATOM      7  C   UNL d   1     -41.484-122.657 -52.710  0.00  0.00     0.149 A 
ATOM      8  N   UNL d   1     -41.182-123.299 -53.070  0.00  0.00    -0.227 NA
ATOM      9  C   UNL d   1     -41.316-123.237 -53.884  0.00  0.00     0.099 A 
ATOM     10  C   UNL d   1     -41.125-123.731 -54.505  0.00  0.00     0.021 A 
ATOM     11  C   UNL d   1     -41.710-122.535 -54.013  0.00  0.00     0.083 A 
ATOM     12  C   UNL d   1     -41.341-123.506 -55.275  0.00  0.00     0.002 A 
ATOM     13  C   UNL d   1     -41.736-122.805 -55.404  0.00  0.00     0.002 A 
ATOM     14  C   UNL d   1     -41.926-122.307 -54.766  0.00  0.00     0.019 A 
ATOM     15  N   UNL d   1     -41.815-122.172 -53.276  0.00  0.00    -0.288 N 
ATOM     16  C   UNL d   1     -42.193-121.440 -53.134  0.00  0.00     0.101 C 
ENDBRANCH   2   7
BRANCH   1  17
ATOM     17  C   UNL d   1     -42.015-122.822 -49.879  0.00  0.00     0.067 A 
ATOM     18  C   UNL d   1     -41.493-123.192 -49.371  0.00  0.00     0.018 A 
ATOM     19  C   UNL d   1     -41.739-123.453 -48.623  0.00  0.00     0.001 A 
ATOM     20  C   UNL d   1     -41.210-123.817 -48.130  0.00  0.00     0.000 C 
ATOM     21  C   UNL d   1     -42.533-123.334 -48.390  0.00  0.00     0.000 A 
ATOM     22  C   UNL d   1     -43.054-122.965 -48.898  0.00  0.00     0.002 A 
ATOM     23  C   UNL d   1     -42.797-123.597 -47.626  0.00  0.00     0.000 C 
ATOM     24  C   UNL d   1     -42.797-122.707 -49.646  0.00  0.00     0.018 A 
ENDBRANCH   1  17
TORSDOF 2
ENDMDL
