MODEL 1
REMARK VINA RESULT:      83.8      0.000      0.000
REMARK  4 active torsions:
REMARK  status: ('A' for Active; 'I' for Inactive)
REMARK    1  A    between atoms: C_9  and  N_1 
REMARK    2  A    between atoms: C_6  and  C_2 
REMARK       I    between atoms: N_8  and  C_6 
REMARK    3  A    between atoms: C_15  and  N_8 
REMARK    4  A    between atoms: C_13  and  C_9 
ROOT
ATOM      1  N   UNL d   1     -55.925 -99.486 -44.029  0.00  0.00    -0.258 N 
ATOM      2  C   UNL d   1     -55.472-100.618 -43.438  0.00  0.00     0.114 A 
ATOM      3  C   UNL d   1     -55.894 -99.959 -43.403  0.00  0.00     0.270 A 
ATOM      4  C   UNL d   1     -55.539 -99.669 -44.683  0.00  0.00     0.150 A 
ATOM      5  C   UNL d   1     -55.084-100.804 -44.092  0.00  0.00     0.013 A 
ATOM      6  C   UNL d   1     -55.119-100.329 -44.711  0.00  0.00     0.035 A 
ATOM      7  N   UNL d   1     -55.573 -99.201 -45.295  0.00  0.00    -0.227 NA
ATOM      8  O   UNL d   1     -56.124-100.029 -42.747  0.00  0.00    -0.266 OA
ATOM      9  C   UNL d   1     -54.729-100.519 -45.365  0.00  0.00     0.005 A 
ATOM     10  C   UNL d   1     -55.192 -99.379 -45.945  0.00  0.00     0.101 A 
ATOM     11  C   UNL d   1     -54.770-100.038 -45.980  0.00  0.00     0.021 A 
ENDROOT
BRANCH   2  12
ATOM     12  C   UNL d   1     -55.437-101.094 -42.815  0.00  0.00     0.284 C 
ATOM     13  N   UNL d   1     -55.197-100.976 -42.026  0.00  0.00    -0.208 NA
ATOM     14  O   UNL d   1     -55.655-101.590 -43.127  0.00  0.00    -0.265 OA
BRANCH  13  15
ATOM     15  C   UNL d   1     -55.226-101.618 -41.473  0.00  0.00     0.085 A 
ATOM     16  C   UNL d   1     -54.712-101.637 -40.822  0.00  0.00     0.019 A 
ATOM     17  C   UNL d   1     -54.751-102.268 -40.291  0.00  0.00     0.002 A 
ATOM     18  C   UNL d   1     -55.297-102.875 -40.407  0.00  0.00     0.000 A 
ATOM     19  C   UNL d   1     -55.816-102.871 -41.051  0.00  0.00     0.002 A 
ATOM     20  C   UNL d   1     -55.776-102.232 -41.588  0.00  0.00     0.019 A 
ENDBRANCH  13  15
ENDBRANCH   2  12
BRANCH   1  21
ATOM     21  C   UNL d   1     -56.374 -98.783 -43.995  0.00  0.00     0.084 C 
BRANCH  21  22
ATOM     22  C   UNL d   1     -57.016 -98.816 -43.983  0.00  0.00     0.018 A 
ATOM     23  C   UNL d   1     -57.391 -98.839 -43.204  0.00  0.00     0.004 A 
ATOM     24  C   UNL d   1     -58.254 -98.884 -43.138  0.00  0.00     0.030 A 
ATOM     25  C   UNL d   1     -58.736 -98.907 -43.849  0.00  0.00     0.140 A 
ATOM     26  C   UNL d   1     -58.374 -98.886 -44.629  0.00  0.00     0.030 A 
ATOM     27  F   UNL d   1     -59.577 -98.952 -43.786  0.00  0.00    -0.204 F 
ATOM     28  C   UNL d   1     -57.505 -98.840 -44.699  0.00  0.00     0.004 A 
ENDBRANCH  21  22
ENDBRANCH   1  21
TORSDOF 4
ENDMDL
