MODEL 1
REMARK VINA RESULT:      32.0      0.000      0.000
REMARK  3 active torsions:
REMARK  status: ('A' for Active; 'I' for Inactive)
REMARK    1  A    between atoms: C_5  and  C_3 
REMARK       I    between atoms: N_10  and  C_5 
REMARK    2  A    between atoms: C_13  and  N_10 
REMARK    3  A    between atoms: C_15  and  C_13 
ROOT
ATOM      1  N   UNL d   1      13.225  13.336  -4.223  0.00  0.00    -0.254 N 
ATOM      2  C   UNL d   1      13.367  13.182  -3.420  0.00  0.00     0.272 A 
ATOM      3  C   UNL d   1      13.360  12.405  -3.136  0.00  0.00     0.133 A 
ATOM      4  C   UNL d   1      13.076  12.706  -4.734  0.00  0.00     0.182 A 
ATOM      5  N   UNL d   1      13.068  11.932  -4.454  0.00  0.00    -0.220 NA
ATOM      6  C   UNL d   1      13.210  11.780  -3.654  0.00  0.00     0.111 A 
ATOM      7  S   UNL d   1      12.956  13.015  -5.490  0.00  0.00    -0.048 SA
ATOM      8  C   UNL d   1      13.198  14.030  -4.655  0.00  0.00     0.075 A 
ATOM      9  C   UNL d   1      13.033  13.842  -5.436  0.00  0.00     0.056 A 
ATOM     10  O   UNL d   1      13.516  13.812  -2.909  0.00  0.00    -0.266 OA
ATOM     11  C   UNL d   1      13.315  14.788  -4.362  0.00  0.00     0.020 C 
ENDROOT
BRANCH   3  12
ATOM     12  C   UNL d   1      13.503  12.266  -2.332  0.00  0.00     0.285 C 
ATOM     13  N   UNL d   1      14.194  12.557  -1.991  0.00  0.00    -0.208 NA
ATOM     14  O   UNL d   1      12.967  11.845  -1.881  0.00  0.00    -0.265 OA
BRANCH  13  15
ATOM     15  C   UNL d   1      14.346  12.424  -1.194  0.00  0.00     0.085 C 
ATOM     16  C   UNL d   1      13.963  11.825  -0.790  0.00  0.00     0.021 C 
BRANCH  15  17
ATOM     17  C   UNL d   1      14.892  12.904  -0.803  0.00  0.00     0.018 A 
ATOM     18  C   UNL d   1      14.617  13.576  -0.406  0.00  0.00     0.002 A 
ATOM     19  C   UNL d   1      15.163  14.055  -0.014  0.00  0.00     0.000 A 
ATOM     20  C   UNL d   1      15.977  13.872  -0.015  0.00  0.00     0.000 A 
ATOM     21  C   UNL d   1      16.237  13.197  -0.416  0.00  0.00     0.000 A 
ATOM     22  C   UNL d   1      15.701  12.710  -0.811  0.00  0.00     0.002 A 
ENDBRANCH  15  17
ENDBRANCH  13  15
ENDBRANCH   3  12
TORSDOF 3
ENDMDL
MODEL 2
REMARK VINA RESULT:      32.1      1.675      4.106
REMARK  3 active torsions:
REMARK  status: ('A' for Active; 'I' for Inactive)
REMARK    1  A    between atoms: C_5  and  C_3 
REMARK       I    between atoms: N_10  and  C_5 
REMARK    2  A    between atoms: C_13  and  N_10 
REMARK    3  A    between atoms: C_15  and  C_13 
ROOT
ATOM      1  N   UNL d   1      15.142  13.832  -0.853  0.00  0.00    -0.254 N 
ATOM      2  C   UNL d   1      14.551  13.531  -1.351  0.00  0.00     0.272 A 
ATOM      3  C   UNL d   1      14.474  12.715  -1.462  0.00  0.00     0.133 A 
ATOM      4  C   UNL d   1      15.651  13.309  -0.469  0.00  0.00     0.182 A 
ATOM      5  N   UNL d   1      15.576  12.497  -0.577  0.00  0.00    -0.220 NA
ATOM      6  C   UNL d   1      14.987  12.198  -1.074  0.00  0.00     0.111 A 
ATOM      7  S   UNL d   1      16.177  13.753  -0.014  0.00  0.00    -0.048 SA
ATOM      8  C   UNL d   1      15.348  14.595  -0.640  0.00  0.00     0.075 A 
ATOM      9  C   UNL d   1      15.984  14.556  -0.124  0.00  0.00     0.056 A 
ATOM     10  O   UNL d   1      14.042  14.055  -1.736  0.00  0.00    -0.266 OA
ATOM     11  C   UNL d   1      14.985  15.285  -0.896  0.00  0.00     0.020 C 
ENDROOT
BRANCH   3  12
ATOM     12  C   UNL d   1      13.879  12.428  -1.963  0.00  0.00     0.285 C 
ATOM     13  N   UNL d   1      13.940  12.559  -2.774  0.00  0.00    -0.208 NA
ATOM     14  O   UNL d   1      13.241  12.019  -1.658  0.00  0.00    -0.265 OA
BRANCH  13  15
ATOM     15  C   UNL d   1      13.355  12.279  -3.280  0.00  0.00     0.085 C 
ATOM     16  C   UNL d   1      12.769  11.780  -3.003  0.00  0.00     0.021 C 
BRANCH  15  17
ATOM     17  C   UNL d   1      13.365  12.506  -4.073  0.00  0.00     0.018 A 
ATOM     18  C   UNL d   1      13.591  11.950  -4.643  0.00  0.00     0.002 A 
ATOM     19  C   UNL d   1      13.601  12.178  -5.436  0.00  0.00     0.000 A 
ATOM     20  C   UNL d   1      13.390  12.952  -5.665  0.00  0.00     0.000 A 
ATOM     21  C   UNL d   1      13.167  13.498  -5.085  0.00  0.00     0.000 A 
ATOM     22  C   UNL d   1      13.153  13.281  -4.289  0.00  0.00     0.002 A 
ENDBRANCH  15  17
ENDBRANCH  13  15
ENDBRANCH   3  12
TORSDOF 3
ENDMDL
MODEL 3
REMARK VINA RESULT:      34.0      1.580      4.004
REMARK  3 active torsions:
REMARK  status: ('A' for Active; 'I' for Inactive)
REMARK    1  A    between atoms: C_5  and  C_3 
REMARK       I    between atoms: N_10  and  C_5 
REMARK    2  A    between atoms: C_13  and  N_10 
REMARK    3  A    between atoms: C_15  and  C_13 
ROOT
ATOM      1  N   UNL d   1      14.460  12.292  -1.287  0.00  0.00    -0.254 N 
ATOM      2  C   UNL d   1      14.223  12.433  -2.069  0.00  0.00     0.272 A 
ATOM      3  C   UNL d   1      13.455  12.247  -2.313  0.00  0.00     0.133 A 
ATOM      4  C   UNL d   1      13.920  11.965  -0.755  0.00  0.00     0.182 A 
ATOM      5  N   UNL d   1      13.156  11.779  -0.996  0.00  0.00    -0.220 NA
ATOM      6  C   UNL d   1      12.921  11.920  -1.776  0.00  0.00     0.111 A 
ATOM      7  S   UNL d   1      14.297  11.886  -0.025  0.00  0.00    -0.048 SA
ATOM      8  C   UNL d   1      15.166  12.416  -0.893  0.00  0.00     0.075 A 
ATOM      9  C   UNL d   1      15.076  12.169  -0.116  0.00  0.00     0.056 A 
ATOM     10  O   UNL d   1      14.763  12.760  -2.600  0.00  0.00    -0.266 OA
ATOM     11  C   UNL d   1      15.851  12.734  -1.215  0.00  0.00     0.020 C 
ENDROOT
BRANCH   3  12
ATOM     12  C   UNL d   1      13.233  12.393  -3.099  0.00  0.00     0.285 C 
ATOM     13  N   UNL d   1      13.463  13.098  -3.456  0.00  0.00    -0.208 NA
ATOM     14  O   UNL d   1      12.791  11.845  -3.514  0.00  0.00    -0.265 OA
BRANCH  13  15
ATOM     15  C   UNL d   1      13.247  13.252  -4.235  0.00  0.00     0.085 C 
ATOM     16  C   UNL d   1      13.036  12.643  -4.738  0.00  0.00     0.021 C 
BRANCH  15  17
ATOM     17  C   UNL d   1      13.246  14.032  -4.506  0.00  0.00     0.018 A 
ATOM     18  C   UNL d   1      12.799  14.595  -4.095  0.00  0.00     0.002 A 
ATOM     19  C   UNL d   1      12.798  15.374  -4.366  0.00  0.00     0.000 A 
ATOM     20  C   UNL d   1      13.238  15.597  -5.040  0.00  0.00     0.000 A 
ATOM     21  C   UNL d   1      13.680  15.024  -5.440  0.00  0.00     0.000 A 
ATOM     22  C   UNL d   1      13.689  14.242  -5.178  0.00  0.00     0.002 A 
ENDBRANCH  15  17
ENDBRANCH  13  15
ENDBRANCH   3  12
TORSDOF 3
ENDMDL
