MODEL 1
REMARK VINA RESULT:      -6.0      0.000      0.000
REMARK  3 active torsions:
REMARK  status: ('A' for Active; 'I' for Inactive)
REMARK    1  A    between atoms: C_2  and  C_1 
REMARK    2  A    between atoms: C_6  and  C_2 
REMARK    3  A    between atoms: C_9  and  C_6 
ROOT
ATOM      1  C   UNL d   1     -41.849-122.774 -50.635  0.00  0.00     0.199 C 
ATOM      2  O   UNL d   1     -42.419-122.312 -51.016  0.00  0.00    -0.286 OA
ENDROOT
BRANCH   1   3
ATOM      3  C   UNL d   1     -41.930-122.936 -49.830  0.00  0.00     0.078 A 
ATOM      4  C   UNL d   1     -42.685-122.895 -49.467  0.00  0.00     0.202 A 
ATOM      5  C   UNL d   1     -42.755-123.059 -48.658  0.00  0.00     0.084 A 
ATOM      6  O   UNL d   1     -43.343-122.693 -49.922  0.00  0.00    -0.286 OA
ATOM      7  C   UNL d   1     -42.100-123.260 -48.207  0.00  0.00     0.199 A 
ATOM      8  C   UNL d   1     -41.344-123.301 -48.569  0.00  0.00     0.042 A 
ATOM      9  O   UNL d   1     -42.173-123.422 -47.405  0.00  0.00    -0.286 OA
ATOM     10  C   UNL d   1     -41.263-123.139 -49.374  0.00  0.00     0.010 A 
ENDBRANCH   1   3
BRANCH   1  11
ATOM     11  C   UNL d   1     -41.207-123.070 -51.059  0.00  0.00     0.042 C 
BRANCH  11  12
ATOM     12  C   UNL d   1     -41.222-123.087 -51.884  0.00  0.00     0.003 A 
ATOM     13  C   UNL d   1     -41.336-123.801 -52.266  0.00  0.00     0.001 A 
ATOM     14  C   UNL d   1     -41.351-123.817 -53.090  0.00  0.00     0.007 A 
ATOM     15  C   UNL d   1     -41.253-123.123 -53.535  0.00  0.00     0.035 A 
ATOM     16  C   UNL d   1     -41.138-122.408 -53.137  0.00  0.00     0.007 A 
ATOM     17 BR   UNL d   1     -41.268-123.142 -54.355  0.00  0.00    -0.049 Br
ATOM     18  C   UNL d   1     -41.123-122.387 -52.310  0.00  0.00     0.001 A 
ENDBRANCH  11  12
ENDBRANCH   1  11
TORSDOF 3
ENDMDL
MODEL 2
REMARK VINA RESULT:      -5.7      1.469      2.280
REMARK  3 active torsions:
REMARK  status: ('A' for Active; 'I' for Inactive)
REMARK    1  A    between atoms: C_2  and  C_1 
REMARK    2  A    between atoms: C_6  and  C_2 
REMARK    3  A    between atoms: C_9  and  C_6 
ROOT
ATOM      1  C   UNL d   1     -41.305-122.423 -52.527  0.00  0.00     0.199 C 
ATOM      2  O   UNL d   1     -41.127-121.631 -52.682  0.00  0.00    -0.286 OA
ENDROOT
BRANCH   1   3
ATOM      3  C   UNL d   1     -41.265-122.704 -51.752  0.00  0.00     0.078 A 
ATOM      4  C   UNL d   1     -41.327-122.170 -51.108  0.00  0.00     0.202 A 
ATOM      5  C   UNL d   1     -41.286-122.462 -50.334  0.00  0.00     0.084 A 
ATOM      6  O   UNL d   1     -41.428-121.365 -51.257  0.00  0.00    -0.286 OA
ATOM      7  C   UNL d   1     -41.186-123.264 -50.187  0.00  0.00     0.199 A 
ATOM      8  C   UNL d   1     -41.124-123.798 -50.831  0.00  0.00     0.042 A 
ATOM      9  O   UNL d   1     -41.145-123.550 -49.419  0.00  0.00    -0.286 OA
ATOM     10  C   UNL d   1     -41.164-123.517 -51.606  0.00  0.00     0.010 A 
ENDBRANCH   1   3
BRANCH   1  11
ATOM     11  C   UNL d   1     -41.521-122.926 -53.144  0.00  0.00     0.042 C 
BRANCH  11  12
ATOM     12  C   UNL d   1     -41.684-122.622 -53.894  0.00  0.00     0.003 A 
ATOM     13  C   UNL d   1     -41.143-122.737 -54.497  0.00  0.00     0.001 A 
ATOM     14  C   UNL d   1     -41.307-122.433 -55.246  0.00  0.00     0.007 A 
ATOM     15  C   UNL d   1     -42.009-122.015 -55.395  0.00  0.00     0.035 A 
ATOM     16  C   UNL d   1     -42.547-121.906 -54.778  0.00  0.00     0.007 A 
ATOM     17 BR   UNL d   1     -42.169-121.713 -56.141  0.00  0.00    -0.049 Br
ATOM     18  C   UNL d   1     -42.386-122.209 -54.025  0.00  0.00     0.001 A 
ENDBRANCH  11  12
ENDBRANCH   1  11
TORSDOF 3
ENDMDL
MODEL 3
REMARK VINA RESULT:      -5.4      1.964      4.100
REMARK  3 active torsions:
REMARK  status: ('A' for Active; 'I' for Inactive)
REMARK    1  A    between atoms: C_2  and  C_1 
REMARK    2  A    between atoms: C_6  and  C_2 
REMARK    3  A    between atoms: C_9  and  C_6 
ROOT
ATOM      1  C   UNL d   1     -41.311-122.837 -51.247  0.00  0.00     0.199 C 
ATOM      2  O   UNL d   1     -41.412-122.076 -50.940  0.00  0.00    -0.286 OA
ENDROOT
BRANCH   1   3
ATOM      3  C   UNL d   1     -41.264-122.942 -52.064  0.00  0.00     0.078 A 
ATOM      4  C   UNL d   1     -41.185-122.277 -52.569  0.00  0.00     0.202 A 
ATOM      5  C   UNL d   1     -41.139-122.394 -53.388  0.00  0.00     0.084 A 
ATOM      6  O   UNL d   1     -41.155-121.521 -52.241  0.00  0.00    -0.286 OA
ATOM      7  C   UNL d   1     -41.169-123.147 -53.712  0.00  0.00     0.199 A 
ATOM      8  C   UNL d   1     -41.248-123.813 -53.207  0.00  0.00     0.042 A 
ATOM      9  O   UNL d   1     -41.124-123.259 -54.524  0.00  0.00    -0.286 OA
ATOM     10  C   UNL d   1     -41.295-123.708 -52.390  0.00  0.00     0.010 A 
ENDBRANCH   1   3
BRANCH   1  11
ATOM     11  C   UNL d   1     -41.257-123.483 -50.738  0.00  0.00     0.042 C 
BRANCH  11  12
ATOM     12  C   UNL d   1     -41.594-123.453 -49.985  0.00  0.00     0.003 A 
ATOM     13  C   UNL d   1     -42.394-123.603 -49.900  0.00  0.00     0.001 A 
ATOM     14  C   UNL d   1     -42.730-123.572 -49.147  0.00  0.00     0.007 A 
ATOM     15  C   UNL d   1     -42.271-123.391 -48.480  0.00  0.00     0.035 A 
ATOM     16  C   UNL d   1     -41.464-123.242 -48.579  0.00  0.00     0.007 A 
ATOM     17 BR   UNL d   1     -42.608-123.361 -47.732  0.00  0.00    -0.049 Br
ATOM     18  C   UNL d   1     -41.123-123.272 -49.332  0.00  0.00     0.001 A 
ENDBRANCH  11  12
ENDBRANCH   1  11
TORSDOF 3
ENDMDL
