MODEL 1
REMARK VINA RESULT:      -5.9      0.000      0.000
REMARK  4 active torsions:
REMARK  status: ('A' for Active; 'I' for Inactive)
REMARK    1  A    between atoms: C_7  and  C_5 
REMARK    2  A    between atoms: C_8  and  C_7 
REMARK    3  A    between atoms: C_10  and  C_8 
REMARK    4  A    between atoms: O_18  and  C_11 
ROOT
ATOM      1  C   UNL d   1     -42.898-123.465 -49.659  0.00  0.00     0.303 A 
ATOM      2  N   UNL d   1     -41.307-123.037 -49.784  0.00  0.00    -0.222 NA
ATOM      3  O   UNL d   1     -42.592-123.218 -50.385  0.00  0.00    -0.255 OA
ATOM      4  C   UNL d   1     -42.407-123.498 -48.994  0.00  0.00     0.081 A 
ATOM      5  C   UNL d   1     -41.802-123.005 -50.447  0.00  0.00     0.186 A 
ATOM      6  C   UNL d   1     -41.617-123.285 -49.056  0.00  0.00     0.089 A 
ATOM      7  O   UNL d   1     -43.696-123.680 -49.596  0.00  0.00    -0.259 OA
ATOM      8  C   UNL d   1     -42.714-123.744 -48.275  0.00  0.00     0.007 A 
ATOM      9  C   UNL d   1     -41.123-123.316 -48.400  0.00  0.00     0.019 A 
ATOM     10  C   UNL d   1     -42.223-123.777 -47.611  0.00  0.00     0.000 A 
ATOM     11  C   UNL d   1     -41.432-123.564 -47.673  0.00  0.00     0.002 A 
ENDROOT
BRANCH   5  12
ATOM     12  C   UNL d   1     -41.478-122.750 -51.188  0.00  0.00     0.045 C 
BRANCH  12  13
ATOM     13  C   UNL d   1     -41.239-123.313 -51.740  0.00  0.00     0.004 C 
BRANCH  13  14
ATOM     14  C   UNL d   1     -41.233-123.132 -52.545  0.00  0.00     0.000 A 
ATOM     15  C   UNL d   1     -41.136-122.355 -52.793  0.00  0.00     0.002 A 
ATOM     16  C   UNL d   1     -41.130-122.174 -53.598  0.00  0.00     0.024 A 
ATOM     17  C   UNL d   1     -41.222-122.779 -54.157  0.00  0.00     0.094 A 
ATOM     18  C   UNL d   1     -41.319-123.560 -53.906  0.00  0.00     0.024 A 
ATOM     19  C   UNL d   1     -41.325-123.737 -53.104  0.00  0.00     0.002 A 
BRANCH  17  20
ATOM     20  O   UNL d   1     -41.215-122.589 -54.974  0.00  0.00    -0.328 OA
ATOM     21  C   UNL d   1     -41.848-122.193 -55.317  0.00  0.00     0.181 C 
ENDBRANCH  17  20
ENDBRANCH  13  14
ENDBRANCH  12  13
ENDBRANCH   5  12
TORSDOF 4
ENDMDL
MODEL 2
REMARK VINA RESULT:      -5.6      1.262      5.032
REMARK  4 active torsions:
REMARK  status: ('A' for Active; 'I' for Inactive)
REMARK    1  A    between atoms: C_7  and  C_5 
REMARK    2  A    between atoms: C_8  and  C_7 
REMARK    3  A    between atoms: C_10  and  C_8 
REMARK    4  A    between atoms: O_18  and  C_11 
ROOT
ATOM      1  C   UNL d   1     -41.807-121.886 -53.302  0.00  0.00     0.303 A 
ATOM      2  N   UNL d   1     -41.249-123.329 -52.722  0.00  0.00    -0.222 NA
ATOM      3  O   UNL d   1     -41.729-122.003 -52.488  0.00  0.00    -0.255 OA
ATOM      4  C   UNL d   1     -41.605-122.493 -53.827  0.00  0.00     0.081 A 
ATOM      5  C   UNL d   1     -41.452-122.719 -52.200  0.00  0.00     0.186 A 
ATOM      6  C   UNL d   1     -41.328-123.210 -53.538  0.00  0.00     0.089 A 
ATOM      7  O   UNL d   1     -42.088-121.162 -53.593  0.00  0.00    -0.259 OA
ATOM      8  C   UNL d   1     -41.684-122.374 -54.634  0.00  0.00     0.007 A 
ATOM      9  C   UNL d   1     -41.125-123.817 -54.054  0.00  0.00     0.019 A 
ATOM     10  C   UNL d   1     -41.482-122.981 -55.158  0.00  0.00     0.000 A 
ATOM     11  C   UNL d   1     -41.205-123.698 -54.869  0.00  0.00     0.002 A 
ENDROOT
BRANCH   5  12
ATOM     12  C   UNL d   1     -41.368-122.849 -51.366  0.00  0.00     0.045 C 
BRANCH  12  13
ATOM     13  C   UNL d   1     -41.873-122.459 -50.844  0.00  0.00     0.004 C 
BRANCH  13  14
ATOM     14  C   UNL d   1     -41.954-122.723 -50.067  0.00  0.00     0.000 A 
ATOM     15  C   UNL d   1     -41.308-123.032 -49.665  0.00  0.00     0.002 A 
ATOM     16  C   UNL d   1     -41.389-123.296 -48.888  0.00  0.00     0.024 A 
ATOM     17  C   UNL d   1     -42.127-123.250 -48.512  0.00  0.00     0.094 A 
ATOM     18  C   UNL d   1     -42.775-122.939 -48.917  0.00  0.00     0.024 A 
ATOM     19  C   UNL d   1     -42.691-122.677 -49.691  0.00  0.00     0.002 A 
BRANCH  17  20
ATOM     20  O   UNL d   1     -42.203-123.520 -47.722  0.00  0.00    -0.328 OA
ATOM     21  C   UNL d   1     -42.037-123.021 -47.090  0.00  0.00     0.181 C 
ENDBRANCH  17  20
ENDBRANCH  13  14
ENDBRANCH  12  13
ENDBRANCH   5  12
TORSDOF 4
ENDMDL
MODEL 3
REMARK VINA RESULT:      -4.1      1.310      5.078
REMARK  4 active torsions:
REMARK  status: ('A' for Active; 'I' for Inactive)
REMARK    1  A    between atoms: C_7  and  C_5 
REMARK    2  A    between atoms: C_8  and  C_7 
REMARK    3  A    between atoms: C_10  and  C_8 
REMARK    4  A    between atoms: O_18  and  C_11 
ROOT
ATOM      1  C   UNL d   1     -41.443-123.058 -53.596  0.00  0.00     0.303 A 
ATOM      2  N   UNL d   1     -41.726-121.562 -52.953  0.00  0.00    -0.222 NA
ATOM      3  O   UNL d   1     -41.363-122.935 -52.783  0.00  0.00    -0.255 OA
ATOM      4  C   UNL d   1     -41.664-122.431 -54.088  0.00  0.00     0.081 A 
ATOM      5  C   UNL d   1     -41.504-122.192 -52.464  0.00  0.00     0.186 A 
ATOM      6  C   UNL d   1     -41.805-121.688 -53.769  0.00  0.00     0.089 A 
ATOM      7  O   UNL d   1     -41.301-123.808 -53.919  0.00  0.00    -0.259 OA
ATOM      8  C   UNL d   1     -41.743-122.557 -54.895  0.00  0.00     0.007 A 
ATOM      9  C   UNL d   1     -42.026-121.060 -54.252  0.00  0.00     0.019 A 
ATOM     10  C   UNL d   1     -41.964-121.930 -55.386  0.00  0.00     0.000 A 
ATOM     11  C   UNL d   1     -42.105-121.187 -55.067  0.00  0.00     0.002 A 
ENDROOT
BRANCH   5  12
ATOM     12  C   UNL d   1     -41.425-122.055 -51.631  0.00  0.00     0.045 C 
BRANCH  12  13
ATOM     13  C   UNL d   1     -42.090-122.112 -51.147  0.00  0.00     0.004 C 
BRANCH  13  14
ATOM     14  C   UNL d   1     -42.032-122.452 -50.398  0.00  0.00     0.000 A 
ATOM     15  C   UNL d   1     -42.710-122.679 -49.994  0.00  0.00     0.002 A 
ATOM     16  C   UNL d   1     -42.653-123.020 -49.245  0.00  0.00     0.024 A 
ATOM     17  C   UNL d   1     -41.908-123.132 -48.899  0.00  0.00     0.094 A 
ATOM     18  C   UNL d   1     -41.227-122.903 -49.306  0.00  0.00     0.024 A 
ATOM     19  C   UNL d   1     -41.287-122.564 -50.052  0.00  0.00     0.002 A 
BRANCH  17  20
ATOM     20  O   UNL d   1     -41.856-123.478 -48.137  0.00  0.00    -0.328 OA
ATOM     21  C   UNL d   1     -42.450-123.359 -47.581  0.00  0.00     0.181 C 
ENDBRANCH  17  20
ENDBRANCH  13  14
ENDBRANCH  12  13
ENDBRANCH   5  12
TORSDOF 4
ENDMDL
