MODEL 1
REMARK VINA RESULT:      -4.9      0.000      0.000
REMARK  2 active torsions:
REMARK  status: ('A' for Active; 'I' for Inactive)
REMARK    1  A    between atoms: C_6  and  C_3 
REMARK    2  A    between atoms: C_9  and  C_6 
ROOT
ATOM      1  N   UNL d   1      56.977  -0.834  31.568  0.00  0.00    -0.225 NA
ATOM      2  N   UNL d   1      56.921   0.485  31.794  0.00  0.00    -0.225 NA
ATOM      3  C   UNL d   1      57.268  -0.101  31.333  0.00  0.00     0.163 A 
ATOM      4  C   UNL d   1      56.456  -0.707  32.167  0.00  0.00     0.101 A 
ATOM      5  C   UNL d   1      56.421   0.122  32.309  0.00  0.00     0.101 A 
ATOM      6  C   UNL d   1      56.001  -1.212  32.613  0.00  0.00     0.021 A 
ATOM      7  C   UNL d   1      55.932   0.409  32.891  0.00  0.00     0.021 A 
ATOM      8  C   UNL d   1      55.498  -0.926  33.212  0.00  0.00     0.002 A 
ATOM      9  C   UNL d   1      55.462  -0.098  33.354  0.00  0.00     0.002 A 
ENDROOT
BRANCH   3  10
ATOM     10  C   UNL d   1      57.819   0.025  30.732  0.00  0.00     0.039 C 
BRANCH  10  11
ATOM     11  C   UNL d   1      57.667   0.560  30.129  0.00  0.00     0.003 C 
ATOM     12  C   UNL d   1      58.214   0.680  29.523  0.00  0.00     0.000 C 
ENDBRANCH  10  11
ENDBRANCH   3  10
TORSDOF 2
ENDMDL
MODEL 2
REMARK VINA RESULT:      -4.5      1.204      3.204
REMARK  2 active torsions:
REMARK  status: ('A' for Active; 'I' for Inactive)
REMARK    1  A    between atoms: C_6  and  C_3 
REMARK    2  A    between atoms: C_9  and  C_6 
ROOT
ATOM      1  N   UNL d   1      55.687  -0.707  33.180  0.00  0.00    -0.225 NA
ATOM      2  N   UNL d   1      55.843   0.613  33.022  0.00  0.00    -0.225 NA
ATOM      3  C   UNL d   1      55.479   0.032  33.476  0.00  0.00     0.163 A 
ATOM      4  C   UNL d   1      56.174  -0.588  32.551  0.00  0.00     0.101 A 
ATOM      5  C   UNL d   1      56.271   0.241  32.452  0.00  0.00     0.101 A 
ATOM      6  C   UNL d   1      56.549  -1.102  32.045  0.00  0.00     0.021 A 
ATOM      7  C   UNL d   1      56.740   0.522  31.850  0.00  0.00     0.021 A 
ATOM      8  C   UNL d   1      57.032  -0.824  31.425  0.00  0.00     0.002 A 
ATOM      9  C   UNL d   1      57.130   0.005  31.326  0.00  0.00     0.002 A 
ENDROOT
BRANCH   3  10
ATOM     10  C   UNL d   1      54.986   0.168  34.123  0.00  0.00     0.039 C 
BRANCH  10  11
ATOM     11  C   UNL d   1      55.211   0.682  34.721  0.00  0.00     0.003 C 
ATOM     12  C   UNL d   1      54.823   0.677  35.450  0.00  0.00     0.000 C 
ENDBRANCH  10  11
ENDBRANCH   3  10
TORSDOF 2
ENDMDL
MODEL 3
REMARK VINA RESULT:      -4.2      0.690      2.937
REMARK  2 active torsions:
REMARK  status: ('A' for Active; 'I' for Inactive)
REMARK    1  A    between atoms: C_6  and  C_3 
REMARK    2  A    between atoms: C_9  and  C_6 
ROOT
ATOM      1  N   UNL d   1      56.502  -0.882  32.178  0.00  0.00    -0.225 NA
ATOM      2  N   UNL d   1      56.446   0.455  32.214  0.00  0.00    -0.225 NA
ATOM      3  C   UNL d   1      56.175  -0.236  32.568  0.00  0.00     0.163 A 
ATOM      4  C   UNL d   1      56.971  -0.598  31.589  0.00  0.00     0.101 A 
ATOM      5  C   UNL d   1      56.935   0.242  31.612  0.00  0.00     0.101 A 
ATOM      6  C   UNL d   1      57.430  -0.967  31.029  0.00  0.00     0.021 A 
ATOM      7  C   UNL d   1      57.361   0.677  31.074  0.00  0.00     0.021 A 
ATOM      8  C   UNL d   1      57.869  -0.530  30.472  0.00  0.00     0.002 A 
ATOM      9  C   UNL d   1      57.834   0.310  30.495  0.00  0.00     0.002 A 
ENDROOT
BRANCH   3  10
ATOM     10  C   UNL d   1      55.658  -0.275  33.210  0.00  0.00     0.039 C 
BRANCH  10  11
ATOM     11  C   UNL d   1      55.321   0.406  33.519  0.00  0.00     0.003 C 
ATOM     12  C   UNL d   1      54.757   0.362  34.119  0.00  0.00     0.000 C 
ENDBRANCH  10  11
ENDBRANCH   3  10
TORSDOF 2
ENDMDL
MODEL 4
REMARK VINA RESULT:      -4.0      1.224      1.928
REMARK  2 active torsions:
REMARK  status: ('A' for Active; 'I' for Inactive)
REMARK    1  A    between atoms: C_6  and  C_3 
REMARK    2  A    between atoms: C_9  and  C_6 
ROOT
ATOM      1  N   UNL d   1      55.509  -0.211  32.719  0.00  0.00    -0.225 NA
ATOM      2  N   UNL d   1      56.615  -0.212  33.474  0.00  0.00    -0.225 NA
ATOM      3  C   UNL d   1      56.309  -0.405  32.736  0.00  0.00     0.163 A 
ATOM      4  C   UNL d   1      55.320   0.100  33.436  0.00  0.00     0.101 A 
ATOM      5  C   UNL d   1      56.015   0.099  33.910  0.00  0.00     0.101 A 
ATOM      6  C   UNL d   1      54.624   0.387  33.742  0.00  0.00     0.021 A 
ATOM      7  C   UNL d   1      55.983   0.385  34.670  0.00  0.00     0.021 A 
ATOM      8  C   UNL d   1      54.581   0.682  34.520  0.00  0.00     0.002 A 
ATOM      9  C   UNL d   1      55.275   0.681  34.994  0.00  0.00     0.002 A 
ENDROOT
BRANCH   3  10
ATOM     10  C   UNL d   1      56.734  -0.740  32.113  0.00  0.00     0.039 C 
BRANCH  10  11
ATOM     11  C   UNL d   1      56.997  -0.277  31.489  0.00  0.00     0.003 C 
ATOM     12  C   UNL d   1      57.500  -0.591  30.915  0.00  0.00     0.000 C 
ENDBRANCH  10  11
ENDBRANCH   3  10
TORSDOF 2
ENDMDL
MODEL 5
REMARK VINA RESULT:      -3.8      0.698      3.166
REMARK  2 active torsions:
REMARK  status: ('A' for Active; 'I' for Inactive)
REMARK    1  A    between atoms: C_6  and  C_3 
REMARK    2  A    between atoms: C_9  and  C_6 
ROOT
ATOM      1  N   UNL d   1      57.231  -0.897  31.106  0.00  0.00    -0.225 NA
ATOM      2  N   UNL d   1      57.357   0.409  31.373  0.00  0.00    -0.225 NA
ATOM      3  C   UNL d   1      56.971  -0.284  31.590  0.00  0.00     0.163 A 
ATOM      4  C   UNL d   1      57.771  -0.590  30.595  0.00  0.00     0.101 A 
ATOM      5  C   UNL d   1      57.850   0.230  30.763  0.00  0.00     0.101 A 
ATOM      6  C   UNL d   1      58.210  -0.924  29.997  0.00  0.00     0.021 A 
ATOM      7  C   UNL d   1      58.365   0.682  30.326  0.00  0.00     0.021 A 
ATOM      8  C   UNL d   1      58.740  -0.469  29.544  0.00  0.00     0.002 A 
ATOM      9  C   UNL d   1      58.819   0.352  29.712  0.00  0.00     0.002 A 
ENDROOT
BRANCH   3  10
ATOM     10  C   UNL d   1      56.414  -0.354  32.194  0.00  0.00     0.039 C 
BRANCH  10  11
ATOM     11  C   UNL d   1      56.252  -1.084  32.532  0.00  0.00     0.003 C 
ATOM     12  C   UNL d   1      55.710  -1.151  33.150  0.00  0.00     0.000 C 
ENDBRANCH  10  11
ENDBRANCH   3  10
TORSDOF 2
ENDMDL
MODEL 6
REMARK VINA RESULT:      -3.2      1.208      3.614
REMARK  2 active torsions:
REMARK  status: ('A' for Active; 'I' for Inactive)
REMARK    1  A    between atoms: C_6  and  C_3 
REMARK    2  A    between atoms: C_9  and  C_6 
ROOT
ATOM      1  N   UNL d   1      57.823  -0.685  30.325  0.00  0.00    -0.225 NA
ATOM      2  N   UNL d   1      58.186   0.544  30.712  0.00  0.00    -0.225 NA
ATOM      3  C   UNL d   1      57.655  -0.070  30.845  0.00  0.00     0.163 A 
ATOM      4  C   UNL d   1      58.449  -0.458  29.874  0.00  0.00     0.101 A 
ATOM      5  C   UNL d   1      58.678   0.314  30.118  0.00  0.00     0.101 A 
ATOM      6  C   UNL d   1      58.856  -0.829  29.276  0.00  0.00     0.021 A 
ATOM      7  C   UNL d   1      59.303   0.682  29.753  0.00  0.00     0.021 A 
ATOM      8  C   UNL d   1      59.498  -0.460  28.895  0.00  0.00     0.002 A 
ATOM      9  C   UNL d   1      59.727   0.312  29.139  0.00  0.00     0.002 A 
ENDROOT
BRANCH   3  10
ATOM     10  C   UNL d   1      57.052  -0.069  31.408  0.00  0.00     0.039 C 
BRANCH  10  11
ATOM     11  C   UNL d   1      56.893  -0.740  31.852  0.00  0.00     0.003 C 
ATOM     12  C   UNL d   1      56.265  -0.751  32.388  0.00  0.00     0.000 C 
ENDBRANCH  10  11
ENDBRANCH   3  10
TORSDOF 2
ENDMDL
MODEL 7
REMARK VINA RESULT:      -2.2      9.778     10.101
REMARK  2 active torsions:
REMARK  status: ('A' for Active; 'I' for Inactive)
REMARK    1  A    between atoms: C_6  and  C_3 
REMARK    2  A    between atoms: C_9  and  C_6 
ROOT
ATOM      1  N   UNL d   1      58.534  -9.703  33.178  0.00  0.00    -0.225 NA
ATOM      2  N   UNL d   1      59.633  -9.766  32.416  0.00  0.00    -0.225 NA
ATOM      3  C   UNL d   1      59.357  -9.721  33.189  0.00  0.00     0.163 A 
ATOM      4  C   UNL d   1      58.301  -9.737  32.409  0.00  0.00     0.101 A 
ATOM      5  C   UNL d   1      58.991  -9.776  31.931  0.00  0.00     0.101 A 
ATOM      6  C   UNL d   1      57.567  -9.738  32.059  0.00  0.00     0.021 A 
ATOM      7  C   UNL d   1      58.918  -9.816  31.122  0.00  0.00     0.021 A 
ATOM      8  C   UNL d   1      57.481  -9.778  31.232  0.00  0.00     0.002 A 
ATOM      9  C   UNL d   1      58.172  -9.818  30.753  0.00  0.00     0.002 A 
ENDROOT
BRANCH   3  10
ATOM     10  C   UNL d   1      59.828  -9.697  33.866  0.00  0.00     0.039 C 
BRANCH  10  11
ATOM     11  C   UNL d   1      59.776  -9.069  34.391  0.00  0.00     0.003 C 
ATOM     12  C   UNL d   1      60.350  -8.957  34.972  0.00  0.00     0.000 C 
ENDBRANCH  10  11
ENDBRANCH   3  10
TORSDOF 2
ENDMDL
