MODEL 1
REMARK VINA RESULT:      -3.3      0.000      0.000
REMARK  1 active torsions:
REMARK  status: ('A' for Active; 'I' for Inactive)
REMARK    1  A    between atoms: C_8  and  C_3 
ROOT
ATOM      1  C   UNL d   1      30.810  16.154 -23.593  0.00  0.00     0.199 A 
ATOM      2  C   UNL d   1      30.195  17.081 -24.347  0.00  0.00     0.199 A 
ATOM      3  C   UNL d   1      30.932  16.800 -24.084  0.00  0.00     0.078 A 
ATOM      4  C   UNL d   1      30.002  16.009 -23.532  0.00  0.00     0.042 A 
ATOM      5  C   UNL d   1      29.620  16.584 -23.999  0.00  0.00     0.042 A 
ATOM      6  O   UNL d   1      30.063  17.744 -24.866  0.00  0.00    -0.286 OA
ATOM      7  O   UNL d   1      31.419  15.702 -23.206  0.00  0.00    -0.286 OA
ATOM      8  C   UNL d   1      28.798  16.598 -24.062  0.00  0.00     0.003 A 
ATOM      9  C   UNL d   1      29.558  15.453 -23.131  0.00  0.00     0.003 A 
ATOM     10  C   UNL d   1      28.354  16.028 -23.650  0.00  0.00     0.000 A 
ATOM     11  C   UNL d   1      28.736  15.453 -23.183  0.00  0.00     0.000 A 
ENDROOT
BRANCH   3  12
ATOM     12  C   UNL d   1      31.674  17.104 -24.272  0.00  0.00     0.009 A 
ATOM     13  C   UNL d   1      31.999  17.703 -23.807  0.00  0.00     0.021 A 
ATOM     14  C   UNL d   1      32.736  18.004 -23.994  0.00  0.00     0.099 A 
ATOM     15  N   UNL d   1      33.174  17.737 -24.629  0.00  0.00    -0.242 NA
ATOM     16  C   UNL d   1      32.827  17.125 -25.094  0.00  0.00     0.099 A 
ATOM     17  C   UNL d   1      32.083  16.820 -24.906  0.00  0.00     0.021 A 
ENDBRANCH   3  12
TORSDOF 1
ENDMDL
MODEL 2
REMARK VINA RESULT:      -3.2      1.465      3.411
REMARK  1 active torsions:
REMARK  status: ('A' for Active; 'I' for Inactive)
REMARK    1  A    between atoms: C_8  and  C_3 
ROOT
ATOM      1  C   UNL d   1      30.837  17.284 -24.299  0.00  0.00     0.199 A 
ATOM      2  C   UNL d   1      31.249  16.215 -23.596  0.00  0.00     0.199 A 
ATOM      3  C   UNL d   1      30.618  16.542 -24.027  0.00  0.00     0.078 A 
ATOM      4  C   UNL d   1      31.605  17.446 -24.051  0.00  0.00     0.042 A 
ATOM      5  C   UNL d   1      31.861  16.784 -23.615  0.00  0.00     0.042 A 
ATOM      6  O   UNL d   1      31.260  15.453 -23.217  0.00  0.00    -0.286 OA
ATOM      7  O   UNL d   1      30.352  17.807 -24.764  0.00  0.00    -0.286 OA
ATOM      8  C   UNL d   1      32.615  16.764 -23.283  0.00  0.00     0.003 A 
ATOM      9  C   UNL d   1      32.106  18.084 -24.151  0.00  0.00     0.003 A 
ATOM     10  C   UNL d   1      33.118  17.417 -23.390  0.00  0.00     0.000 A 
ATOM     11  C   UNL d   1      32.863  18.080 -23.826  0.00  0.00     0.000 A 
ENDROOT
BRANCH   3  12
ATOM     12  C   UNL d   1      29.883  16.196 -24.170  0.00  0.00     0.009 A 
ATOM     13  C   UNL d   1      29.286  16.258 -23.605  0.00  0.00     0.021 A 
ATOM     14  C   UNL d   1      28.558  15.915 -23.747  0.00  0.00     0.099 A 
ATOM     15  N   UNL d   1      28.389  15.506 -24.434  0.00  0.00    -0.242 NA
ATOM     16  C   UNL d   1      29.011  15.453 -25.002  0.00  0.00     0.099 A 
ATOM     17  C   UNL d   1      29.746  15.799 -24.858  0.00  0.00     0.021 A 
ENDBRANCH   3  12
TORSDOF 1
ENDMDL
MODEL 3
REMARK VINA RESULT:      -3.2      1.473      3.219
REMARK  1 active torsions:
REMARK  status: ('A' for Active; 'I' for Inactive)
REMARK    1  A    between atoms: C_8  and  C_3 
ROOT
ATOM      1  C   UNL d   1      31.179  16.244 -23.604  0.00  0.00     0.199 A 
ATOM      2  C   UNL d   1      30.811  17.326 -24.311  0.00  0.00     0.199 A 
ATOM      3  C   UNL d   1      30.567  16.581 -24.034  0.00  0.00     0.078 A 
ATOM      4  C   UNL d   1      31.821  16.760 -23.597  0.00  0.00     0.042 A 
ATOM      5  C   UNL d   1      31.593  17.430 -24.035  0.00  0.00     0.042 A 
ATOM      6  O   UNL d   1      30.349  17.865 -24.781  0.00  0.00    -0.286 OA
ATOM      7  O   UNL d   1      31.159  15.482 -23.224  0.00  0.00    -0.286 OA
ATOM      8  C   UNL d   1      32.112  18.062 -24.139  0.00  0.00     0.003 A 
ATOM      9  C   UNL d   1      32.567  16.726 -23.265  0.00  0.00     0.003 A 
ATOM     10  C   UNL d   1      32.869  18.020 -23.798  0.00  0.00     0.000 A 
ATOM     11  C   UNL d   1      33.097  17.349 -23.359  0.00  0.00     0.000 A 
ENDROOT
BRANCH   3  12
ATOM     12  C   UNL d   1      29.836  16.220 -24.158  0.00  0.00     0.009 A 
ATOM     13  C   UNL d   1      29.698  15.810 -24.860  0.00  0.00     0.021 A 
ATOM     14  C   UNL d   1      28.974  15.453 -24.983  0.00  0.00     0.099 A 
ATOM     15  N   UNL d   1      28.369  15.482 -24.436  0.00  0.00    -0.242 NA
ATOM     16  C   UNL d   1      28.526  15.905 -23.723  0.00  0.00     0.099 A 
ATOM     17  C   UNL d   1      29.258  16.266 -23.599  0.00  0.00     0.021 A 
ENDBRANCH   3  12
TORSDOF 1
ENDMDL
MODEL 4
REMARK VINA RESULT:      -2.1      2.028      3.576
REMARK  1 active torsions:
REMARK  status: ('A' for Active; 'I' for Inactive)
REMARK    1  A    between atoms: C_8  and  C_3 
ROOT
ATOM      1  C   UNL d   1      32.856  17.860 -23.116  0.00  0.00     0.199 A 
ATOM      2  C   UNL d   1      32.665  18.513 -24.275  0.00  0.00     0.199 A 
ATOM      3  C   UNL d   1      32.670  17.766 -23.910  0.00  0.00     0.078 A 
ATOM      4  C   UNL d   1      32.971  18.660 -22.958  0.00  0.00     0.042 A 
ATOM      5  C   UNL d   1      32.853  19.065 -23.676  0.00  0.00     0.042 A 
ATOM      6  O   UNL d   1      32.499  18.673 -25.095  0.00  0.00    -0.286 OA
ATOM      7  O   UNL d   1      32.920  17.233 -22.543  0.00  0.00    -0.286 OA
ATOM      8  C   UNL d   1      32.927  19.885 -23.714  0.00  0.00     0.003 A 
ATOM      9  C   UNL d   1      33.163  19.078 -22.283  0.00  0.00     0.003 A 
ATOM     10  C   UNL d   1      33.122  20.303 -23.022  0.00  0.00     0.000 A 
ATOM     11  C   UNL d   1      33.241  19.898 -22.304  0.00  0.00     0.000 A 
ENDROOT
BRANCH   3  12
ATOM     12  C   UNL d   1      32.518  17.039 -24.266  0.00  0.00     0.009 A 
ATOM     13  C   UNL d   1      31.756  16.726 -24.244  0.00  0.00     0.021 A 
ATOM     14  C   UNL d   1      31.605  16.004 -24.597  0.00  0.00     0.099 A 
ATOM     15  N   UNL d   1      32.182  15.570 -24.978  0.00  0.00    -0.242 NA
ATOM     16  C   UNL d   1      32.957  15.905 -24.991  0.00  0.00     0.099 A 
ATOM     17  C   UNL d   1      33.109  16.633 -24.634  0.00  0.00     0.021 A 
ENDBRANCH   3  12
TORSDOF 1
ENDMDL
MODEL 5
REMARK VINA RESULT:      -1.9      1.482      2.230
REMARK  1 active torsions:
REMARK  status: ('A' for Active; 'I' for Inactive)
REMARK    1  A    between atoms: C_8  and  C_3 
ROOT
ATOM      1  C   UNL d   1      32.472  17.384 -23.512  0.00  0.00     0.199 A 
ATOM      2  C   UNL d   1      31.387  17.857 -24.148  0.00  0.00     0.199 A 
ATOM      3  C   UNL d   1      32.135  18.054 -23.844  0.00  0.00     0.078 A 
ATOM      4  C   UNL d   1      31.953  16.751 -23.595  0.00  0.00     0.042 A 
ATOM      5  C   UNL d   1      31.280  17.044 -23.989  0.00  0.00     0.042 A 
ATOM      6  O   UNL d   1      30.846  18.386 -24.540  0.00  0.00    -0.286 OA
ATOM      7  O   UNL d   1      33.237  17.345 -23.140  0.00  0.00    -0.286 OA
ATOM      8  C   UNL d   1      30.645  16.548 -24.163  0.00  0.00     0.003 A 
ATOM      9  C   UNL d   1      31.986  15.964 -23.377  0.00  0.00     0.003 A 
ATOM     10  C   UNL d   1      30.686  15.749 -23.937  0.00  0.00     0.000 A 
ATOM     11  C   UNL d   1      31.359  15.456 -23.543  0.00  0.00     0.000 A 
ENDROOT
BRANCH   3  12
ATOM     12  C   UNL d   1      32.499  18.794 -23.862  0.00  0.00     0.009 A 
ATOM     13  C   UNL d   1      32.843  19.062 -24.562  0.00  0.00     0.021 A 
ATOM     14  C   UNL d   1      33.204  19.795 -24.579  0.00  0.00     0.099 A 
ATOM     15  N   UNL d   1      33.240  20.285 -23.927  0.00  0.00    -0.242 NA
ATOM     16  C   UNL d   1      32.883  19.996 -23.219  0.00  0.00     0.099 A 
ATOM     17  C   UNL d   1      32.519  19.255 -23.201  0.00  0.00     0.021 A 
ENDBRANCH   3  12
TORSDOF 1
ENDMDL
MODEL 6
REMARK VINA RESULT:      -0.7      4.224      5.988
REMARK  1 active torsions:
REMARK  status: ('A' for Active; 'I' for Inactive)
REMARK    1  A    between atoms: C_8  and  C_3 
ROOT
ATOM      1  C   UNL d   1      33.171  21.500 -22.359  0.00  0.00     0.199 A 
ATOM      2  C   UNL d   1      33.084  20.846 -21.188  0.00  0.00     0.199 A 
ATOM      3  C   UNL d   1      33.144  20.757 -22.012  0.00  0.00     0.078 A 
ATOM      4  C   UNL d   1      33.128  22.075 -21.770  0.00  0.00     0.042 A 
ATOM      5  C   UNL d   1      33.074  21.669 -21.044  0.00  0.00     0.042 A 
ATOM      6  O   UNL d   1      33.041  20.218 -20.614  0.00  0.00    -0.286 OA
ATOM      7  O   UNL d   1      33.232  21.658 -23.193  0.00  0.00    -0.286 OA
ATOM      8  C   UNL d   1      33.023  22.084 -20.334  0.00  0.00     0.003 A 
ATOM      9  C   UNL d   1      33.130  22.892 -21.780  0.00  0.00     0.003 A 
ATOM     10  C   UNL d   1      33.025  22.915 -20.352  0.00  0.00     0.000 A 
ATOM     11  C   UNL d   1      33.079  23.321 -21.078  0.00  0.00     0.000 A 
ENDROOT
BRANCH   3  12
ATOM     12  C   UNL d   1      33.175  20.050 -22.434  0.00  0.00     0.009 A 
ATOM     13  C   UNL d   1      33.208  20.067 -23.258  0.00  0.00     0.021 A 
ATOM     14  C   UNL d   1      33.238  19.365 -23.676  0.00  0.00     0.099 A 
ATOM     15  N   UNL d   1      33.236  18.635 -23.312  0.00  0.00    -0.242 NA
ATOM     16  C   UNL d   1      33.201  18.634 -22.469  0.00  0.00     0.099 A 
ATOM     17  C   UNL d   1      33.171  19.343 -22.046  0.00  0.00     0.021 A 
ENDBRANCH   3  12
TORSDOF 1
ENDMDL
MODEL 7
REMARK VINA RESULT:      -0.6      3.879      5.212
REMARK  1 active torsions:
REMARK  status: ('A' for Active; 'I' for Inactive)
REMARK    1  A    between atoms: C_8  and  C_3 
ROOT
ATOM      1  C   UNL d   1      33.154  19.816 -21.862  0.00  0.00     0.199 A 
ATOM      2  C   UNL d   1      33.210  20.526 -23.002  0.00  0.00     0.199 A 
ATOM      3  C   UNL d   1      33.174  20.575 -22.173  0.00  0.00     0.078 A 
ATOM      4  C   UNL d   1      33.177  19.271 -22.478  0.00  0.00     0.042 A 
ATOM      5  C   UNL d   1      33.212  19.710 -23.185  0.00  0.00     0.042 A 
ATOM      6  O   UNL d   1      33.238  21.180 -23.546  0.00  0.00    -0.286 OA
ATOM      7  O   UNL d   1      33.116  19.619 -21.034  0.00  0.00    -0.286 OA
ATOM      8  C   UNL d   1      33.241  19.330 -23.916  0.00  0.00     0.003 A 
ATOM      9  C   UNL d   1      33.173  18.454 -22.508  0.00  0.00     0.003 A 
ATOM     10  C   UNL d   1      33.236  18.499 -23.937  0.00  0.00     0.000 A 
ATOM     11  C   UNL d   1      33.201  18.060 -23.230  0.00  0.00     0.000 A 
ENDROOT
BRANCH   3  12
ATOM     12  C   UNL d   1      33.159  21.262 -21.717  0.00  0.00     0.009 A 
ATOM     13  C   UNL d   1      33.190  21.998 -22.088  0.00  0.00     0.021 A 
ATOM     14  C   UNL d   1      33.175  22.678 -21.635  0.00  0.00     0.099 A 
ATOM     15  N   UNL d   1      33.130  22.666 -20.820  0.00  0.00    -0.242 NA
ATOM     16  C   UNL d   1      33.099  21.905 -20.457  0.00  0.00     0.099 A 
ATOM     17  C   UNL d   1      33.114  21.218 -20.913  0.00  0.00     0.021 A 
ENDBRANCH   3  12
TORSDOF 1
ENDMDL
