MODEL 1
REMARK VINA RESULT:      -4.6      0.000      0.000
REMARK  4 active torsions:
REMARK  status: ('A' for Active; 'I' for Inactive)
REMARK    1  A    between atoms: N_3  and  S_1 
REMARK    2  A    between atoms: C_5  and  S_1 
REMARK    3  A    between atoms: C_2  and  N_3 
REMARK    4  A    between atoms: O_18  and  C_11 
ROOT
ATOM      1  C   UNL d   1     -41.580-123.063 -51.534  0.00  0.00     0.113 A 
ATOM      2  C   UNL d   1     -41.463-123.086 -52.359  0.00  0.00     0.100 A 
ATOM      3  C   UNL d   1     -41.471-122.377 -51.107  0.00  0.00     0.046 A 
ATOM      4  C   UNL d   1     -41.238-122.423 -52.758  0.00  0.00     0.021 A 
ATOM      5  N   UNL d   1     -41.580-123.794 -52.768  0.00  0.00    -0.242 NA
ATOM      6  C   UNL d   1     -41.239-121.696 -51.524  0.00  0.00     0.096 A 
ATOM      7  C   UNL d   1     -41.123-121.719 -52.349  0.00  0.00     0.026 A 
ATOM      8  C   UNL d   1     -41.124-122.446 -53.571  0.00  0.00     0.003 A 
ATOM      9  C   UNL d   1     -41.466-123.817 -53.580  0.00  0.00     0.099 A 
ATOM     10  C   UNL d   1     -41.231-123.132 -54.011  0.00  0.00     0.021 A 
ENDROOT
BRANCH   1  11
ATOM     11  N   UNL d   1     -41.820-123.766 -51.098  0.00  0.00    -0.157 NA
BRANCH  11  12
ATOM     12  S   UNL d   1     -41.959-123.737 -50.276  0.00  0.00     0.285 S 
ATOM     13  O   UNL d   1     -42.794-123.702 -50.419  0.00  0.00    -0.198 OA
ATOM     14  O   UNL d   1     -41.152-123.770 -50.138  0.00  0.00    -0.198 OA
BRANCH  12  15
ATOM     15  C   UNL d   1     -42.098-123.708 -49.458  0.00  0.00     0.105 A 
ATOM     16  C   UNL d   1     -41.470-123.640 -48.931  0.00  0.00     0.013 A 
ATOM     17  C   UNL d   1     -41.608-123.612 -48.118  0.00  0.00     0.001 A 
ATOM     18  C   UNL d   1     -42.377-123.651 -47.815  0.00  0.00     0.000 A 
ATOM     19  C   UNL d   1     -43.003-123.719 -48.351  0.00  0.00     0.001 A 
ATOM     20  C   UNL d   1     -42.514-123.623 -47.007  0.00  0.00     0.000 C 
ATOM     21  C   UNL d   1     -42.865-123.748 -49.164  0.00  0.00     0.013 A 
ENDBRANCH  12  15
ENDBRANCH  11  12
ENDBRANCH   1  11
BRANCH   6  22
ATOM     22  O   UNL d   1     -41.124-120.973 -51.078  0.00  0.00    -0.328 OA
ATOM     23  C   UNL d   1     -41.276-120.226 -51.417  0.00  0.00     0.181 C 
ENDBRANCH   6  22
TORSDOF 4
ENDMDL
MODEL 2
REMARK VINA RESULT:      -2.0      1.626      4.429
REMARK  4 active torsions:
REMARK  status: ('A' for Active; 'I' for Inactive)
REMARK    1  A    between atoms: N_3  and  S_1 
REMARK    2  A    between atoms: C_5  and  S_1 
REMARK    3  A    between atoms: C_2  and  N_3 
REMARK    4  A    between atoms: O_18  and  C_11 
ROOT
ATOM      1  C   UNL d   1     -41.703-122.466 -51.864  0.00  0.00     0.113 A 
ATOM      2  C   UNL d   1     -41.642-122.747 -51.081  0.00  0.00     0.100 A 
ATOM      3  C   UNL d   1     -41.535-121.691 -52.053  0.00  0.00     0.046 A 
ATOM      4  C   UNL d   1     -41.414-122.253 -50.487  0.00  0.00     0.021 A 
ATOM      5  N   UNL d   1     -41.818-123.537 -50.916  0.00  0.00    -0.242 NA
ATOM      6  C   UNL d   1     -41.300-121.186 -51.436  0.00  0.00     0.096 A 
ATOM      7  C   UNL d   1     -41.239-121.467 -50.653  0.00  0.00     0.026 A 
ATOM      8  C   UNL d   1     -41.355-122.529 -49.716  0.00  0.00     0.003 A 
ATOM      9  C   UNL d   1     -41.759-123.813 -50.145  0.00  0.00     0.099 A 
ATOM     10  C   UNL d   1     -41.522-123.309 -49.514  0.00  0.00     0.021 A 
ENDROOT
BRANCH   1  11
ATOM     11  N   UNL d   1     -41.946-122.987 -52.506  0.00  0.00    -0.157 NA
BRANCH  11  12
ATOM     12  S   UNL d   1     -41.958-122.720 -53.296  0.00  0.00     0.285 S 
ATOM     13  O   UNL d   1     -41.132-122.896 -53.368  0.00  0.00    -0.198 OA
ATOM     14  O   UNL d   1     -42.757-122.549 -53.226  0.00  0.00    -0.198 OA
BRANCH  12  15
ATOM     15  C   UNL d   1     -41.970-122.454 -54.082  0.00  0.00     0.105 A 
ATOM     16  C   UNL d   1     -41.427-122.742 -54.628  0.00  0.00     0.013 A 
ATOM     17  C   UNL d   1     -41.439-122.478 -55.410  0.00  0.00     0.001 A 
ATOM     18  C   UNL d   1     -41.994-121.920 -55.662  0.00  0.00     0.000 A 
ATOM     19  C   UNL d   1     -42.538-121.635 -55.108  0.00  0.00     0.001 A 
ATOM     20  C   UNL d   1     -42.006-121.658 -56.439  0.00  0.00     0.000 C 
ATOM     21  C   UNL d   1     -42.526-121.899 -54.326  0.00  0.00     0.013 A 
ENDBRANCH  12  15
ENDBRANCH  11  12
ENDBRANCH   1  11
BRANCH   6  22
ATOM     22  O   UNL d   1     -41.123-120.371 -51.632  0.00  0.00    -0.328 OA
ATOM     23  C   UNL d   1     -41.192-119.764 -51.064  0.00  0.00     0.181 C 
ENDBRANCH   6  22
TORSDOF 4
ENDMDL
