MODEL 1
REMARK VINA RESULT:      -7.1      0.000      0.000
REMARK  4 active torsions:
REMARK  status: ('A' for Active; 'I' for Inactive)
REMARK    1  A    between atoms: C_2  and  C_1 
REMARK    2  A    between atoms: C_4  and  C_1 
REMARK    3  A    between atoms: C_5  and  C_2 
REMARK    4  A    between atoms: N_6  and  C_5 
ROOT
ATOM      1  C   UNL d   1      53.598  32.292  53.558  0.00  0.00     0.197 C 
ATOM      2  O   UNL d   1      53.209  32.659  52.921  0.00  0.00    -0.286 OA
ENDROOT
BRANCH   1   3
ATOM      3  C   UNL d   1      53.519  31.494  53.683  0.00  0.00     0.061 C 
BRANCH   3   4
ATOM      4  C   UNL d   1      53.131  31.027  53.140  0.00  0.00     0.084 C 
BRANCH   4   5
ATOM      5  N   UNL d   1      52.969  30.237  53.316  0.00  0.00    -0.300 N 
ATOM      6  C   UNL d   1      52.194  29.965  53.302  0.00  0.00     0.100 C 
ATOM      7  C   UNL d   1      53.584  29.724  53.505  0.00  0.00     0.100 C 
ENDBRANCH   4   5
ENDBRANCH   3   4
ENDBRANCH   1   3
BRANCH   1   8
ATOM      8  C   UNL d   1      54.079  32.748  54.081  0.00  0.00     0.039 A 
ATOM      9  C   UNL d   1      53.831  32.889  54.857  0.00  0.00     0.003 A 
ATOM     10  C   UNL d   1      54.289  33.327  55.364  0.00  0.00     0.000 A 
ATOM     11  C   UNL d   1      55.009  33.633  55.099  0.00  0.00     0.000 A 
ATOM     12  C   UNL d   1      55.274  33.502  54.327  0.00  0.00     0.000 A 
ATOM     13  C   UNL d   1      54.786  33.046  53.814  0.00  0.00     0.003 A 
ENDBRANCH   1   8
TORSDOF 4
ENDMDL
MODEL 2
REMARK VINA RESULT:      -7.0      1.768      2.278
REMARK  4 active torsions:
REMARK  status: ('A' for Active; 'I' for Inactive)
REMARK    1  A    between atoms: C_2  and  C_1 
REMARK    2  A    between atoms: C_4  and  C_1 
REMARK    3  A    between atoms: C_5  and  C_2 
REMARK    4  A    between atoms: N_6  and  C_5 
ROOT
ATOM      1  C   UNL d   1      53.229  32.771  53.607  0.00  0.00     0.197 C 
ATOM      2  O   UNL d   1      53.228  32.010  53.270  0.00  0.00    -0.286 OA
ENDROOT
BRANCH   1   3
ATOM      3  C   UNL d   1      52.622  33.287  53.458  0.00  0.00     0.061 C 
BRANCH   3   4
ATOM      4  C   UNL d   1      52.037  33.094  52.925  0.00  0.00     0.084 C 
BRANCH   4   5
ATOM      5  N   UNL d   1      51.412  33.616  52.791  0.00  0.00    -0.300 N 
ATOM      6  C   UNL d   1      51.492  34.218  52.237  0.00  0.00     0.100 C 
ATOM      7  C   UNL d   1      50.710  33.534  53.212  0.00  0.00     0.100 C 
ENDBRANCH   4   5
ENDBRANCH   3   4
ENDBRANCH   1   3
BRANCH   1   8
ATOM      8  C   UNL d   1      53.866  33.012  54.107  0.00  0.00     0.039 A 
ATOM      9  C   UNL d   1      53.777  32.997  54.929  0.00  0.00     0.003 A 
ATOM     10  C   UNL d   1      54.385  33.227  55.414  0.00  0.00     0.000 A 
ATOM     11  C   UNL d   1      55.097  33.479  55.082  0.00  0.00     0.000 A 
ATOM     12  C   UNL d   1      55.205  33.502  54.262  0.00  0.00     0.000 A 
ATOM     13  C   UNL d   1      54.563  33.259  53.773  0.00  0.00     0.003 A 
ENDBRANCH   1   8
TORSDOF 4
ENDMDL
MODEL 3
REMARK VINA RESULT:      -6.9      2.255      3.382
REMARK  4 active torsions:
REMARK  status: ('A' for Active; 'I' for Inactive)
REMARK    1  A    between atoms: C_2  and  C_1 
REMARK    2  A    between atoms: C_4  and  C_1 
REMARK    3  A    between atoms: C_5  and  C_2 
REMARK    4  A    between atoms: N_6  and  C_5 
ROOT
ATOM      1  C   UNL d   1      52.654  32.870  53.122  0.00  0.00     0.197 C 
ATOM      2  O   UNL d   1      52.835  32.205  52.656  0.00  0.00    -0.286 OA
ENDROOT
BRANCH   1   3
ATOM      3  C   UNL d   1      53.135  33.082  53.740  0.00  0.00     0.061 C 
BRANCH   3   4
ATOM      4  C   UNL d   1      53.809  32.654  53.904  0.00  0.00     0.084 C 
BRANCH   4   5
ATOM      5  N   UNL d   1      54.307  32.889  54.519  0.00  0.00    -0.300 N 
ATOM      6  C   UNL d   1      54.981  33.330  54.355  0.00  0.00     0.100 C 
ATOM      7  C   UNL d   1      54.127  32.682  55.295  0.00  0.00     0.100 C 
ENDBRANCH   4   5
ENDBRANCH   3   4
ENDBRANCH   1   3
BRANCH   1   8
ATOM      8  C   UNL d   1      51.965  33.331  52.955  0.00  0.00     0.039 A 
ATOM      9  C   UNL d   1      51.993  33.926  52.382  0.00  0.00     0.003 A 
ATOM     10  C   UNL d   1      51.335  34.371  52.218  0.00  0.00     0.000 A 
ATOM     11  C   UNL d   1      50.634  34.226  52.628  0.00  0.00     0.000 A 
ATOM     12  C   UNL d   1      50.586  33.635  53.205  0.00  0.00     0.000 A 
ATOM     13  C   UNL d   1      51.279  33.183  53.363  0.00  0.00     0.003 A 
ENDBRANCH   1   8
TORSDOF 4
ENDMDL
MODEL 4
REMARK VINA RESULT:      -6.8      1.593      3.344
REMARK  4 active torsions:
REMARK  status: ('A' for Active; 'I' for Inactive)
REMARK    1  A    between atoms: C_2  and  C_1 
REMARK    2  A    between atoms: C_4  and  C_1 
REMARK    3  A    between atoms: C_5  and  C_2 
REMARK    4  A    between atoms: N_6  and  C_5 
ROOT
ATOM      1  C   UNL d   1      53.839  32.407  53.533  0.00  0.00     0.197 C 
ATOM      2  O   UNL d   1      54.615  32.568  53.281  0.00  0.00    -0.286 OA
ENDROOT
BRANCH   1   3
ATOM      3  C   UNL d   1      53.382  32.994  53.858  0.00  0.00     0.061 C 
BRANCH   3   4
ATOM      4  C   UNL d   1      53.665  33.757  53.909  0.00  0.00     0.084 C 
BRANCH   4   5
ATOM      5  N   UNL d   1      53.197  34.348  54.244  0.00  0.00    -0.300 N 
ATOM      6  C   UNL d   1      53.234  34.493  55.052  0.00  0.00     0.100 C 
ATOM      7  C   UNL d   1      52.693  34.792  53.768  0.00  0.00     0.100 C 
ENDBRANCH   4   5
ENDBRANCH   3   4
ENDBRANCH   1   3
BRANCH   1   8
ATOM      8  C   UNL d   1      53.520  31.629  53.453  0.00  0.00     0.039 A 
ATOM      9  C   UNL d   1      52.914  31.483  52.910  0.00  0.00     0.003 A 
ATOM     10  C   UNL d   1      52.604  30.738  52.829  0.00  0.00     0.000 A 
ATOM     11  C   UNL d   1      52.897  30.122  53.294  0.00  0.00     0.000 A 
ATOM     12  C   UNL d   1      53.503  30.249  53.843  0.00  0.00     0.000 A 
ATOM     13  C   UNL d   1      53.813  31.029  53.914  0.00  0.00     0.003 A 
ENDBRANCH   1   8
TORSDOF 4
ENDMDL
