MODEL 1
REMARK VINA RESULT:      10.3      0.000      0.000
REMARK  3 active torsions:
REMARK  status: ('A' for Active; 'I' for Inactive)
REMARK    1  A    between atoms: S_11  and  C_2 
REMARK    2  A    between atoms: C_7  and  C_12 
REMARK    3  A    between atoms: C_12  and  S_11 
ROOT
ATOM      1  S   UNL d   1      45.846 -16.873  43.952  0.00  0.00    -0.058 SA
ENDROOT
BRANCH   1   2
ATOM      2  C   UNL d   1      46.129 -17.650  43.872  0.00  0.00     0.164 A 
ATOM      3  S   UNL d   1      46.172 -18.085  43.170  0.00  0.00    -0.039 SA
ATOM      4  C   UNL d   1      46.486 -18.827  43.348  0.00  0.00     0.134 A 
ATOM      5  N   UNL d   1      46.640 -18.854  44.163  0.00  0.00    -0.140 NA
ATOM      6  C   UNL d   1      46.629 -19.446  42.810  0.00  0.00     0.030 C 
ATOM      7  N   UNL d   1      46.418 -18.122  44.494  0.00  0.00    -0.134 NA
ENDBRANCH   1   2
BRANCH   1   8
ATOM      8  C   UNL d   1      45.950 -16.468  44.663  0.00  0.00     0.057 C 
BRANCH   8   9
ATOM      9  C   UNL d   1      45.693 -15.684  44.740  0.00  0.00     0.095 A 
ATOM     10  N   UNL d   1      46.139 -15.017  44.632  0.00  0.00    -0.238 NA
ATOM     11  C   UNL d   1      45.666 -14.368  44.764  0.00  0.00     0.111 A 
ATOM     12  C   UNL d   1      45.879 -13.572  44.718  0.00  0.00     0.028 C 
ATOM     13  S   UNL d   1      44.924 -14.636  44.955  0.00  0.00    -0.066 SA
ATOM     14  C   UNL d   1      44.939 -15.444  44.941  0.00  0.00     0.057 A 
ENDBRANCH   8   9
ENDBRANCH   1   8
TORSDOF 3
ENDMDL
MODEL 2
REMARK VINA RESULT:      10.6      0.913      3.943
REMARK  3 active torsions:
REMARK  status: ('A' for Active; 'I' for Inactive)
REMARK    1  A    between atoms: S_11  and  C_2 
REMARK    2  A    between atoms: C_7  and  C_12 
REMARK    3  A    between atoms: C_12  and  S_11 
ROOT
ATOM      1  S   UNL d   1      45.766 -16.579  44.745  0.00  0.00    -0.058 SA
ENDROOT
BRANCH   1   2
ATOM      2  C   UNL d   1      45.531 -15.784  44.795  0.00  0.00     0.164 A 
ATOM      3  S   UNL d   1      46.017 -15.123  44.697  0.00  0.00    -0.039 SA
ATOM      4  C   UNL d   1      45.553 -14.447  44.794  0.00  0.00     0.134 A 
ATOM      5  N   UNL d   1      44.775 -14.688  44.952  0.00  0.00    -0.140 NA
ATOM      6  C   UNL d   1      45.812 -13.658  44.742  0.00  0.00     0.030 C 
ATOM      7  N   UNL d   1      44.757 -15.522  44.954  0.00  0.00    -0.134 NA
ENDBRANCH   1   2
BRANCH   1   8
ATOM      8  C   UNL d   1      45.995 -16.896  44.019  0.00  0.00     0.057 C 
BRANCH   8   9
ATOM      9  C   UNL d   1      46.196 -17.697  43.957  0.00  0.00     0.095 A 
ATOM     10  N   UNL d   1      46.294 -18.118  43.272  0.00  0.00    -0.238 NA
ATOM     11  C   UNL d   1      46.489 -18.884  43.466  0.00  0.00     0.111 A 
ATOM     12  C   UNL d   1      46.641 -19.511  42.952  0.00  0.00     0.028 C 
ATOM     13  S   UNL d   1      46.511 -18.936  44.277  0.00  0.00    -0.066 SA
ATOM     14  C   UNL d   1      46.332 -18.209  44.579  0.00  0.00     0.057 A 
ENDBRANCH   8   9
ENDBRANCH   1   8
TORSDOF 3
ENDMDL
MODEL 3
REMARK VINA RESULT:      11.1      8.004      8.299
REMARK  3 active torsions:
REMARK  status: ('A' for Active; 'I' for Inactive)
REMARK    1  A    between atoms: S_11  and  C_2 
REMARK    2  A    between atoms: C_7  and  C_12 
REMARK    3  A    between atoms: C_12  and  S_11 
ROOT
ATOM      1  S   UNL d   1      43.977 -15.447  37.036  0.00  0.00    -0.058 SA
ENDROOT
BRANCH   1   2
ATOM      2  C   UNL d   1      43.203 -15.617  36.788  0.00  0.00     0.164 A 
ATOM      3  S   UNL d   1      42.569 -15.087  36.762  0.00  0.00    -0.039 SA
ATOM      4  C   UNL d   1      41.907 -15.492  36.481  0.00  0.00     0.134 A 
ATOM      5  N   UNL d   1      42.130 -16.278  36.330  0.00  0.00    -0.140 NA
ATOM      6  C   UNL d   1      41.146 -15.177  36.365  0.00  0.00     0.030 C 
ATOM      7  N   UNL d   1      42.937 -16.360  36.520  0.00  0.00    -0.134 NA
ENDBRANCH   1   2
BRANCH   1   8
ATOM      8  C   UNL d   1      44.605 -15.520  36.507  0.00  0.00     0.057 C 
BRANCH   8   9
ATOM      9  C   UNL d   1      45.336 -15.168  36.673  0.00  0.00     0.095 A 
ATOM     10  N   UNL d   1      45.458 -14.469  37.065  0.00  0.00    -0.238 NA
ATOM     11  C   UNL d   1      46.259 -14.333  37.104  0.00  0.00     0.111 A 
ATOM     12  C   UNL d   1      46.644 -13.691  37.451  0.00  0.00     0.028 C 
ATOM     13  S   UNL d   1      46.634 -14.951  36.734  0.00  0.00    -0.066 SA
ATOM     14  C   UNL d   1      46.069 -15.464  36.470  0.00  0.00     0.057 A 
ENDBRANCH   8   9
ENDBRANCH   1   8
TORSDOF 3
ENDMDL
MODEL 4
REMARK VINA RESULT:      12.8      2.218      3.435
REMARK  3 active torsions:
REMARK  status: ('A' for Active; 'I' for Inactive)
REMARK    1  A    between atoms: S_11  and  C_2 
REMARK    2  A    between atoms: C_7  and  C_12 
REMARK    3  A    between atoms: C_12  and  S_11 
ROOT
ATOM      1  S   UNL d   1      45.684 -13.595  44.632  0.00  0.00    -0.058 SA
ENDROOT
BRANCH   1   2
ATOM      2  C   UNL d   1      45.475 -14.393  44.728  0.00  0.00     0.164 A 
ATOM      3  S   UNL d   1      45.981 -15.044  44.657  0.00  0.00    -0.039 SA
ATOM      4  C   UNL d   1      45.541 -15.727  44.796  0.00  0.00     0.134 A 
ATOM      5  N   UNL d   1      44.758 -15.502  44.954  0.00  0.00    -0.140 NA
ATOM      6  C   UNL d   1      45.824 -16.510  44.783  0.00  0.00     0.030 C 
ATOM      7  N   UNL d   1      44.712 -14.671  44.912  0.00  0.00    -0.134 NA
ENDBRANCH   1   2
BRANCH   1   8
ATOM      8  C   UNL d   1      45.111 -13.042  44.420  0.00  0.00     0.057 C 
BRANCH   8   9
ATOM      9  C   UNL d   1      45.080 -12.746  43.647  0.00  0.00     0.095 A 
ATOM     10  N   UNL d   1      45.711 -12.596  43.162  0.00  0.00    -0.238 NA
ATOM     11  C   UNL d   1      45.429 -12.311  42.454  0.00  0.00     0.111 A 
ATOM     12  C   UNL d   1      45.867 -12.083  41.793  0.00  0.00     0.028 C 
ATOM     13  S   UNL d   1      44.619 -12.284  42.502  0.00  0.00    -0.066 SA
ATOM     14  C   UNL d   1      44.403 -12.550  43.234  0.00  0.00     0.057 A 
ENDBRANCH   8   9
ENDBRANCH   1   8
TORSDOF 3
ENDMDL
