MODEL 1
REMARK VINA RESULT:      -8.5      0.000      0.000
REMARK  5 active torsions:
REMARK  status: ('A' for Active; 'I' for Inactive)
REMARK    1  A    between atoms: C_14  and  C_4 
REMARK    2  A    between atoms: S_11  and  C_5 
REMARK    3  A    between atoms: C_10  and  C_12 
REMARK    4  A    between atoms: C_15  and  S_11 
REMARK    5  A    between atoms: C_12  and  C_15 
ROOT
ATOM      1  N   UNL d   1      51.948  34.234  53.392  0.00  0.00    -0.206 N 
ATOM      2  C   UNL d   1      52.629  33.889  53.715  0.00  0.00     0.166 A 
ATOM      3  N   UNL d   1      52.271  35.454  54.024  0.00  0.00    -0.163 NA
ATOM      4  C   UNL d   1      53.128  34.322  54.189  0.00  0.00     0.055 A 
ATOM      5  C   UNL d   1      51.465  33.784  52.922  0.00  0.00     0.116 A 
ATOM      6  C   UNL d   1      52.941  35.115  54.343  0.00  0.00     0.104 A 
ATOM      7  N   UNL d   1      52.810  33.103  53.560  0.00  0.00    -0.227 NA
ATOM      8  C   UNL d   1      51.629  32.998  52.756  0.00  0.00     0.045 A 
ATOM      9  C   UNL d   1      52.307  32.655  53.078  0.00  0.00     0.085 A 
ATOM     10  C   UNL d   1      53.440  35.545  54.815  0.00  0.00     0.023 C 
ATOM     11  C   UNL d   1      52.495  31.836  52.917  0.00  0.00     0.021 C 
ENDROOT
BRANCH   5  12
ATOM     12  S   UNL d   1      50.762  34.140  52.588  0.00  0.00    -0.064 SA
BRANCH  12  13
ATOM     13  C   UNL d   1      50.143  34.337  52.043  0.00  0.00     0.079 C 
BRANCH  13  14
ATOM     14  C   UNL d   1      49.450  34.732  52.314  0.00  0.00     0.208 C 
ATOM     15  O   UNL d   1      49.388  34.974  53.120  0.00  0.00    -0.285 OA
BRANCH  14  16
ATOM     16  C   UNL d   1      48.810  34.888  51.778  0.00  0.00     0.069 A 
ATOM     17  S   UNL d   1      48.134  35.375  51.951  0.00  0.00    -0.083 SA
ATOM     18  C   UNL d   1      47.640  35.375  51.263  0.00  0.00     0.035 A 
ATOM     19  C   UNL d   1      48.003  34.896  50.672  0.00  0.00     0.008 A 
ATOM     20  C   UNL d   1      48.733  34.594  50.997  0.00  0.00     0.010 A 
ENDBRANCH  14  16
ENDBRANCH  13  14
ENDBRANCH  12  13
ENDBRANCH   5  12
BRANCH   4  21
ATOM     21  C   UNL d   1      53.799  33.982  54.508  0.00  0.00     0.004 A 
ATOM     22  C   UNL d   1      53.765  33.613  55.226  0.00  0.00     0.000 A 
ATOM     23  C   UNL d   1      54.419  33.275  55.550  0.00  0.00     0.000 A 
ATOM     24  C   UNL d   1      55.141  33.303  55.144  0.00  0.00     0.000 A 
ATOM     25  C   UNL d   1      55.171  33.674  54.423  0.00  0.00     0.000 A 
ATOM     26  C   UNL d   1      54.500  34.014  54.105  0.00  0.00     0.000 A 
ENDBRANCH   4  21
TORSDOF 5
ENDMDL
MODEL 2
REMARK VINA RESULT:      -8.4      0.923      1.832
REMARK  5 active torsions:
REMARK  status: ('A' for Active; 'I' for Inactive)
REMARK    1  A    between atoms: C_14  and  C_4 
REMARK    2  A    between atoms: S_11  and  C_5 
REMARK    3  A    between atoms: C_10  and  C_12 
REMARK    4  A    between atoms: C_15  and  S_11 
REMARK    5  A    between atoms: C_12  and  C_15 
ROOT
ATOM      1  N   UNL d   1      51.828  33.598  53.087  0.00  0.00    -0.206 N 
ATOM      2  C   UNL d   1      52.547  33.614  53.500  0.00  0.00     0.166 A 
ATOM      3  N   UNL d   1      52.052  32.243  52.758  0.00  0.00    -0.163 NA
ATOM      4  C   UNL d   1      53.016  32.951  53.543  0.00  0.00     0.055 A 
ATOM      5  C   UNL d   1      51.377  34.270  53.057  0.00  0.00     0.116 A 
ATOM      6  C   UNL d   1      52.759  32.258  53.165  0.00  0.00     0.104 A 
ATOM      7  N   UNL d   1      52.796  34.302  53.872  0.00  0.00    -0.227 NA
ATOM      8  C   UNL d   1      51.610  34.966  53.422  0.00  0.00     0.045 A 
ATOM      9  C   UNL d   1      52.325  34.982  53.833  0.00  0.00     0.085 A 
ATOM     10  C   UNL d   1      53.227  31.598  53.209  0.00  0.00     0.023 C 
ATOM     11  C   UNL d   1      52.584  35.699  54.221  0.00  0.00     0.021 C 
ENDROOT
BRANCH   5  12
ATOM     12  S   UNL d   1      50.635  34.254  52.630  0.00  0.00    -0.064 SA
BRANCH  12  13
ATOM     13  C   UNL d   1      49.809  34.325  52.453  0.00  0.00     0.079 C 
BRANCH  13  14
ATOM     14  C   UNL d   1      49.557  34.490  51.667  0.00  0.00     0.208 C 
ATOM     15  O   UNL d   1      50.070  34.331  51.015  0.00  0.00    -0.285 OA
BRANCH  14  16
ATOM     16  C   UNL d   1      48.787  34.816  51.524  0.00  0.00     0.069 A 
ATOM     17  S   UNL d   1      48.308  34.662  50.836  0.00  0.00    -0.083 SA
ATOM     18  C   UNL d   1      47.589  35.100  50.926  0.00  0.00     0.035 A 
ATOM     19  C   UNL d   1      47.619  35.519  51.657  0.00  0.00     0.008 A 
ATOM     20  C   UNL d   1      48.367  35.339  52.027  0.00  0.00     0.010 A 
ENDBRANCH  14  16
ENDBRANCH  13  14
ENDBRANCH  12  13
ENDBRANCH   5  12
BRANCH   4  21
ATOM     21  C   UNL d   1      53.723  32.966  53.949  0.00  0.00     0.004 A 
ATOM     22  C   UNL d   1      53.737  32.823  54.745  0.00  0.00     0.000 A 
ATOM     23  C   UNL d   1      54.428  32.836  55.156  0.00  0.00     0.000 A 
ATOM     24  C   UNL d   1      55.139  32.998  54.763  0.00  0.00     0.000 A 
ATOM     25  C   UNL d   1      55.121  33.141  53.964  0.00  0.00     0.000 A 
ATOM     26  C   UNL d   1      54.413  33.125  53.557  0.00  0.00     0.000 A 
ENDBRANCH   4  21
TORSDOF 5
ENDMDL
MODEL 3
REMARK VINA RESULT:      -6.3      2.460      4.678
REMARK  5 active torsions:
REMARK  status: ('A' for Active; 'I' for Inactive)
REMARK    1  A    between atoms: C_14  and  C_4 
REMARK    2  A    between atoms: S_11  and  C_5 
REMARK    3  A    between atoms: C_10  and  C_12 
REMARK    4  A    between atoms: C_15  and  S_11 
REMARK    5  A    between atoms: C_12  and  C_15 
ROOT
ATOM      1  N   UNL d   1      53.157  32.480  53.713  0.00  0.00    -0.206 N 
ATOM      2  C   UNL d   1      53.025  33.293  53.807  0.00  0.00     0.166 A 
ATOM      3  N   UNL d   1      54.282  32.569  54.561  0.00  0.00    -0.163 NA
ATOM      4  C   UNL d   1      53.516  33.742  54.273  0.00  0.00     0.055 A 
ATOM      5  C   UNL d   1      52.654  32.052  53.243  0.00  0.00     0.116 A 
ATOM      6  C   UNL d   1      54.152  33.369  54.653  0.00  0.00     0.104 A 
ATOM      7  N   UNL d   1      52.394  33.658  53.428  0.00  0.00    -0.227 NA
ATOM      8  C   UNL d   1      52.019  32.399  52.857  0.00  0.00     0.045 A 
ATOM      9  C   UNL d   1      51.888  33.208  52.950  0.00  0.00     0.085 A 
ATOM     10  C   UNL d   1      54.641  33.818  55.118  0.00  0.00     0.023 C 
ATOM     11  C   UNL d   1      51.231  33.587  52.556  0.00  0.00     0.021 C 
ENDROOT
BRANCH   5  12
ATOM     12  S   UNL d   1      52.790  31.213  53.146  0.00  0.00    -0.064 SA
BRANCH  12  13
ATOM     13  C   UNL d   1      53.168  30.454  53.157  0.00  0.00     0.079 C 
BRANCH  13  14
ATOM     14  C   UNL d   1      52.759  29.781  53.455  0.00  0.00     0.208 C 
ATOM     15  O   UNL d   1      51.987  29.594  53.169  0.00  0.00    -0.285 OA
BRANCH  14  16
ATOM     16  C   UNL d   1      53.120  29.286  54.043  0.00  0.00     0.069 A 
ATOM     17  S   UNL d   1      52.825  29.170  54.833  0.00  0.00    -0.083 SA
ATOM     18  C   UNL d   1      53.355  28.637  55.224  0.00  0.00     0.035 A 
ATOM     19  C   UNL d   1      53.969  28.426  54.686  0.00  0.00     0.008 A 
ATOM     20  C   UNL d   1      53.819  28.833  53.951  0.00  0.00     0.010 A 
ENDBRANCH  14  16
ENDBRANCH  13  14
ENDBRANCH  12  13
ENDBRANCH   5  12
BRANCH   4  21
ATOM     21  C   UNL d   1      53.386  34.543  54.365  0.00  0.00     0.004 A 
ATOM     22  C   UNL d   1      53.682  35.067  53.826  0.00  0.00     0.000 A 
ATOM     23  C   UNL d   1      53.561  35.858  53.906  0.00  0.00     0.000 A 
ATOM     24  C   UNL d   1      53.127  36.144  54.550  0.00  0.00     0.000 A 
ATOM     25  C   UNL d   1      52.831  35.616  55.090  0.00  0.00     0.000 A 
ATOM     26  C   UNL d   1      52.961  34.815  54.998  0.00  0.00     0.000 A 
ENDBRANCH   4  21
TORSDOF 5
ENDMDL
MODEL 4
REMARK VINA RESULT:      -5.7      2.658      4.881
REMARK  5 active torsions:
REMARK  status: ('A' for Active; 'I' for Inactive)
REMARK    1  A    between atoms: C_14  and  C_4 
REMARK    2  A    between atoms: S_11  and  C_5 
REMARK    3  A    between atoms: C_10  and  C_12 
REMARK    4  A    between atoms: C_15  and  S_11 
REMARK    5  A    between atoms: C_12  and  C_15 
ROOT
ATOM      1  N   UNL d   1      53.091  32.694  53.641  0.00  0.00    -0.206 N 
ATOM      2  C   UNL d   1      53.200  33.469  53.914  0.00  0.00     0.166 A 
ATOM      3  N   UNL d   1      51.984  33.122  52.876  0.00  0.00    -0.163 NA
ATOM      4  C   UNL d   1      52.705  34.068  53.671  0.00  0.00     0.055 A 
ATOM      5  C   UNL d   1      53.596  32.114  53.896  0.00  0.00     0.116 A 
ATOM      6  C   UNL d   1      52.091  33.885  53.145  0.00  0.00     0.104 A 
ATOM      7  N   UNL d   1      53.810  33.644  54.435  0.00  0.00    -0.227 NA
ATOM      8  C   UNL d   1      54.211  32.269  54.415  0.00  0.00     0.045 A 
ATOM      9  C   UNL d   1      54.318  33.041  54.687  0.00  0.00     0.085 A 
ATOM     10  C   UNL d   1      51.599  34.483  52.904  0.00  0.00     0.023 C 
ATOM     11  C   UNL d   1      54.954  33.223  55.230  0.00  0.00     0.021 C 
ENDROOT
BRANCH   5  12
ATOM     12  S   UNL d   1      53.485  31.313  53.614  0.00  0.00    -0.064 SA
BRANCH  12  13
ATOM     13  C   UNL d   1      53.632  30.498  53.430  0.00  0.00     0.079 C 
BRANCH  13  14
ATOM     14  C   UNL d   1      53.058  29.911  53.619  0.00  0.00     0.208 C 
ATOM     15  O   UNL d   1      52.294  29.935  53.261  0.00  0.00    -0.285 OA
BRANCH  14  16
ATOM     16  C   UNL d   1      53.245  29.293  54.169  0.00  0.00     0.069 A 
ATOM     17  S   UNL d   1      52.884  29.192  54.934  0.00  0.00    -0.083 SA
ATOM     18  C   UNL d   1      53.236  28.508  55.291  0.00  0.00     0.035 A 
ATOM     19  C   UNL d   1      53.805  28.190  54.757  0.00  0.00     0.008 A 
ATOM     20  C   UNL d   1      53.808  28.682  54.059  0.00  0.00     0.010 A 
ENDBRANCH  14  16
ENDBRANCH  13  14
ENDBRANCH  12  13
ENDBRANCH   5  12
BRANCH   4  21
ATOM     21  C   UNL d   1      52.812  34.831  53.940  0.00  0.00     0.004 A 
ATOM     22  C   UNL d   1      53.308  35.334  53.548  0.00  0.00     0.000 A 
ATOM     23  C   UNL d   1      53.421  36.088  53.803  0.00  0.00     0.000 A 
ATOM     24  C   UNL d   1      53.025  36.358  54.478  0.00  0.00     0.000 A 
ATOM     25  C   UNL d   1      52.527  35.851  54.870  0.00  0.00     0.000 A 
ATOM     26  C   UNL d   1      52.421  35.087  54.601  0.00  0.00     0.000 A 
ENDBRANCH   4  21
TORSDOF 5
ENDMDL
MODEL 5
REMARK VINA RESULT:      -5.6      1.985      3.490
REMARK  5 active torsions:
REMARK  status: ('A' for Active; 'I' for Inactive)
REMARK    1  A    between atoms: C_14  and  C_4 
REMARK    2  A    between atoms: S_11  and  C_5 
REMARK    3  A    between atoms: C_10  and  C_12 
REMARK    4  A    between atoms: C_15  and  S_11 
REMARK    5  A    between atoms: C_12  and  C_15 
ROOT
ATOM      1  N   UNL d   1      52.969  32.057  53.350  0.00  0.00    -0.206 N 
ATOM      2  C   UNL d   1      53.241  31.401  53.778  0.00  0.00     0.166 A 
ATOM      3  N   UNL d   1      52.421  31.191  52.378  0.00  0.00    -0.163 NA
ATOM      4  C   UNL d   1      53.105  30.645  53.510  0.00  0.00     0.055 A 
ATOM      5  C   UNL d   1      53.116  32.801  53.637  0.00  0.00     0.116 A 
ATOM      6  C   UNL d   1      52.689  30.546  52.799  0.00  0.00     0.104 A 
ATOM      7  N   UNL d   1      53.653  31.505  54.481  0.00  0.00    -0.227 NA
ATOM      8  C   UNL d   1      53.525  32.924  54.336  0.00  0.00     0.045 A 
ATOM      9  C   UNL d   1      53.796  32.271  54.762  0.00  0.00     0.085 A 
ATOM     10  C   UNL d   1      52.555  29.792  52.533  0.00  0.00     0.023 C 
ATOM     11  C   UNL d   1      54.224  32.380  55.494  0.00  0.00     0.021 C 
ENDROOT
BRANCH   5  12
ATOM     12  S   UNL d   1      52.835  33.478  53.195  0.00  0.00    -0.064 SA
BRANCH  12  13
ATOM     13  C   UNL d   1      52.423  33.950  52.624  0.00  0.00     0.079 C 
BRANCH  13  14
ATOM     14  C   UNL d   1      51.843  34.507  52.873  0.00  0.00     0.208 C 
ATOM     15  O   UNL d   1      52.045  35.106  53.433  0.00  0.00    -0.285 OA
BRANCH  14  16
ATOM     16  C   UNL d   1      51.054  34.471  52.563  0.00  0.00     0.069 A 
ATOM     17  S   UNL d   1      50.342  34.553  53.023  0.00  0.00    -0.083 SA
ATOM     18  C   UNL d   1      49.688  34.481  52.491  0.00  0.00     0.035 A 
ATOM     19  C   UNL d   1      49.987  34.356  51.712  0.00  0.00     0.008 A 
ATOM     20  C   UNL d   1      50.839  34.351  51.762  0.00  0.00     0.010 A 
ENDBRANCH  14  16
ENDBRANCH  13  14
ENDBRANCH  12  13
ENDBRANCH   5  12
BRANCH   4  21
ATOM     21  C   UNL d   1      53.373  29.999  53.930  0.00  0.00     0.004 A 
ATOM     22  C   UNL d   1      54.092  29.672  53.758  0.00  0.00     0.000 A 
ATOM     23  C   UNL d   1      54.366  29.035  54.165  0.00  0.00     0.000 A 
ATOM     24  C   UNL d   1      53.909  28.707  54.772  0.00  0.00     0.000 A 
ATOM     25  C   UNL d   1      53.188  29.038  54.944  0.00  0.00     0.000 A 
ATOM     26  C   UNL d   1      52.920  29.685  54.522  0.00  0.00     0.000 A 
ENDBRANCH   4  21
TORSDOF 5
ENDMDL
