MODEL 1
REMARK VINA RESULT:      -3.2      0.000      0.000
REMARK  2 active torsions:
REMARK  status: ('A' for Active; 'I' for Inactive)
REMARK    1  A    between atoms: N_2  and  S_1 
REMARK    2  A    between atoms: C_3  and  S_1 
ROOT
ATOM      1  C   UNL d   1      32.899  20.619 -21.660  0.00  0.00     0.104 A 
ATOM      2  O   UNL d   1      32.843  22.298 -19.848  0.00  0.00    -0.273 OA
ATOM      3  C   UNL d   1      32.480  23.039 -19.974  0.00  0.00     0.300 A 
ATOM      4  C   UNL d   1      32.520  21.908 -21.187  0.00  0.00     0.024 A 
ATOM      5  C   UNL d   1      32.862  21.738 -20.452  0.00  0.00     0.103 A 
ATOM      6  C   UNL d   1      32.155  22.646 -21.321  0.00  0.00     0.007 A 
ATOM      7  C   UNL d   1      32.539  21.348 -21.790  0.00  0.00     0.015 A 
ATOM      8  C   UNL d   1      32.138  23.208 -20.709  0.00  0.00     0.069 A 
ATOM      9  C   UNL d   1      33.241  20.450 -20.925  0.00  0.00     0.015 A 
ATOM     10  O   UNL d   1      32.464  23.597 -19.364  0.00  0.00    -0.259 OA
ATOM     11  C   UNL d   1      33.222  21.009 -20.322  0.00  0.00     0.025 A 
ENDROOT
BRANCH   1  12
ATOM     12  S   UNL d   1      32.920  20.058 -22.259  0.00  0.00     0.272 S 
ATOM     13  O   UNL d   1      32.600  19.493 -21.751  0.00  0.00    -0.200 OA
ATOM     14  O   UNL d   1      33.241  20.617 -22.774  0.00  0.00    -0.200 OA
BRANCH  12  15
ATOM     15  N   UNL d   1      32.942  19.494 -22.864  0.00  0.00    -0.225 N 
ATOM     16  C   UNL d   1      33.054  19.734 -23.649  0.00  0.00     0.118 A 
ATOM     17  C   UNL d   1      33.076  19.174 -24.252  0.00  0.00     0.142 A 
ATOM     18  O   UNL d   1      32.987  18.371 -24.083  0.00  0.00    -0.300 OA
ATOM     19  C   UNL d   1      32.875  18.130 -23.294  0.00  0.00     0.142 A 
ATOM     20  C   UNL d   1      32.852  18.688 -22.687  0.00  0.00     0.118 A 
ENDBRANCH  12  15
ENDBRANCH   1  12
TORSDOF 2
ENDMDL
MODEL 2
REMARK VINA RESULT:      -3.1      1.645      2.850
REMARK  2 active torsions:
REMARK  status: ('A' for Active; 'I' for Inactive)
REMARK    1  A    between atoms: N_2  and  S_1 
REMARK    2  A    between atoms: C_3  and  S_1 
ROOT
ATOM      1  C   UNL d   1      32.828  18.684 -23.258  0.00  0.00     0.104 A 
ATOM      2  O   UNL d   1      33.240  21.088 -22.867  0.00  0.00    -0.273 OA
ATOM      3  C   UNL d   1      33.101  21.421 -22.114  0.00  0.00     0.300 A 
ATOM      4  C   UNL d   1      32.826  19.807 -22.382  0.00  0.00     0.024 A 
ATOM      5  C   UNL d   1      33.102  20.287 -22.998  0.00  0.00     0.103 A 
ATOM      6  C   UNL d   1      32.685  20.132 -21.626  0.00  0.00     0.007 A 
ATOM      7  C   UNL d   1      32.689  19.006 -22.513  0.00  0.00     0.015 A 
ATOM      8  C   UNL d   1      32.825  20.940 -21.499  0.00  0.00     0.069 A 
ATOM      9  C   UNL d   1      33.104  19.164 -23.873  0.00  0.00     0.015 A 
ATOM     10  O   UNL d   1      33.241  22.226 -21.989  0.00  0.00    -0.259 OA
ATOM     11  C   UNL d   1      33.241  19.965 -23.742  0.00  0.00     0.025 A 
ENDROOT
BRANCH   1  12
ATOM     12  S   UNL d   1      32.692  17.886 -23.392  0.00  0.00     0.272 S 
ATOM     13  O   UNL d   1      32.159  18.070 -23.995  0.00  0.00    -0.200 OA
ATOM     14  O   UNL d   1      33.223  17.692 -22.791  0.00  0.00    -0.200 OA
BRANCH  12  15
ATOM     15  N   UNL d   1      32.557  17.081 -23.527  0.00  0.00    -0.225 N 
ATOM     16  C   UNL d   1      31.785  16.780 -23.493  0.00  0.00     0.118 A 
ATOM     17  C   UNL d   1      31.649  15.980 -23.626  0.00  0.00     0.142 A 
ATOM     18  O   UNL d   1      32.275  15.468 -23.794  0.00  0.00    -0.300 OA
ATOM     19  C   UNL d   1      33.050  15.771 -23.828  0.00  0.00     0.142 A 
ATOM     20  C   UNL d   1      33.191  16.573 -23.695  0.00  0.00     0.118 A 
ENDBRANCH  12  15
ENDBRANCH   1  12
TORSDOF 2
ENDMDL
MODEL 3
REMARK VINA RESULT:      -2.6      1.258      4.199
REMARK  2 active torsions:
REMARK  status: ('A' for Active; 'I' for Inactive)
REMARK    1  A    between atoms: N_2  and  S_1 
REMARK    2  A    between atoms: C_3  and  S_1 
ROOT
ATOM      1  C   UNL d   1      32.844  20.967 -21.675  0.00  0.00     0.104 A 
ATOM      2  O   UNL d   1      33.050  18.917 -23.037  0.00  0.00    -0.273 OA
ATOM      3  C   UNL d   1      33.173  18.971 -23.860  0.00  0.00     0.300 A 
ATOM      4  C   UNL d   1      33.034  20.344 -22.941  0.00  0.00     0.024 A 
ATOM      5  C   UNL d   1      32.981  19.600 -22.582  0.00  0.00     0.103 A 
ATOM      6  C   UNL d   1      33.157  20.407 -23.764  0.00  0.00     0.007 A 
ATOM      7  C   UNL d   1      32.965  21.027 -22.487  0.00  0.00     0.015 A 
ATOM      8  C   UNL d   1      33.225  19.715 -24.219  0.00  0.00     0.069 A 
ATOM      9  C   UNL d   1      32.792  20.223 -21.316  0.00  0.00     0.015 A 
ATOM     10  O   UNL d   1      33.241  18.280 -24.311  0.00  0.00    -0.259 OA
ATOM     11  C   UNL d   1      32.860  19.540 -21.770  0.00  0.00     0.025 A 
ENDROOT
BRANCH   1  12
ATOM     12  S   UNL d   1      32.775  21.646 -21.218  0.00  0.00     0.272 S 
ATOM     13  O   UNL d   1      33.239  22.065 -21.757  0.00  0.00    -0.200 OA
ATOM     14  O   UNL d   1      32.310  21.236 -20.674  0.00  0.00    -0.200 OA
BRANCH  12  15
ATOM     15  N   UNL d   1      32.705  22.329 -20.757  0.00  0.00    -0.225 N 
ATOM     16  C   UNL d   1      32.169  22.923 -20.976  0.00  0.00     0.118 A 
ATOM     17  C   UNL d   1      32.098  23.603 -20.518  0.00  0.00     0.142 A 
ATOM     18  O   UNL d   1      32.556  23.702 -19.839  0.00  0.00    -0.300 OA
ATOM     19  C   UNL d   1      33.094  23.106 -19.618  0.00  0.00     0.142 A 
ATOM     20  C   UNL d   1      33.168  22.422 -20.075  0.00  0.00     0.118 A 
ENDBRANCH  12  15
ENDBRANCH   1  12
TORSDOF 2
ENDMDL
MODEL 4
REMARK VINA RESULT:      -2.6      4.146      6.020
REMARK  2 active torsions:
REMARK  status: ('A' for Active; 'I' for Inactive)
REMARK    1  A    between atoms: N_2  and  S_1 
REMARK    2  A    between atoms: C_3  and  S_1 
ROOT
ATOM      1  C   UNL d   1      30.457  16.850 -24.169  0.00  0.00     0.104 A 
ATOM      2  O   UNL d   1      28.386  15.530 -23.910  0.00  0.00    -0.273 OA
ATOM      3  C   UNL d   1      27.680  15.900 -23.664  0.00  0.00     0.300 A 
ATOM      4  C   UNL d   1      29.073  16.782 -23.840  0.00  0.00     0.024 A 
ATOM      5  C   UNL d   1      29.076  15.969 -23.996  0.00  0.00     0.103 A 
ATOM      6  C   UNL d   1      28.371  17.161 -23.594  0.00  0.00     0.007 A 
ATOM      7  C   UNL d   1      29.763  17.222 -23.927  0.00  0.00     0.015 A 
ATOM      8  C   UNL d   1      27.677  16.714 -23.508  0.00  0.00     0.069 A 
ATOM      9  C   UNL d   1      30.460  16.037 -24.326  0.00  0.00     0.015 A 
ATOM     10  O   UNL d   1      26.989  15.453 -23.579  0.00  0.00    -0.259 OA
ATOM     11  C   UNL d   1      29.769  15.598 -24.239  0.00  0.00     0.025 A 
ENDROOT
BRANCH   1  12
ATOM     12  S   UNL d   1      31.147  17.285 -24.257  0.00  0.00     0.272 S 
ATOM     13  O   UNL d   1      30.862  17.612 -24.959  0.00  0.00    -0.200 OA
ATOM     14  O   UNL d   1      31.441  16.964 -23.556  0.00  0.00    -0.200 OA
BRANCH  12  15
ATOM     15  N   UNL d   1      31.844  17.723 -24.344  0.00  0.00    -0.225 N 
ATOM     16  C   UNL d   1      31.949  18.206 -25.009  0.00  0.00     0.118 A 
ATOM     17  C   UNL d   1      32.641  18.642 -25.097  0.00  0.00     0.142 A 
ATOM     18  O   UNL d   1      33.237  18.604 -24.527  0.00  0.00    -0.300 OA
ATOM     19  C   UNL d   1      33.132  18.119 -23.858  0.00  0.00     0.142 A 
ATOM     20  C   UNL d   1      32.439  17.680 -23.767  0.00  0.00     0.118 A 
ENDBRANCH  12  15
ENDBRANCH   1  12
TORSDOF 2
ENDMDL
MODEL 5
REMARK VINA RESULT:      -2.4      0.851      4.432
REMARK  2 active torsions:
REMARK  status: ('A' for Active; 'I' for Inactive)
REMARK    1  A    between atoms: N_2  and  S_1 
REMARK    2  A    between atoms: C_3  and  S_1 
ROOT
ATOM      1  C   UNL d   1      33.016  19.953 -22.647  0.00  0.00     0.104 A 
ATOM      2  O   UNL d   1      33.147  18.312 -24.489  0.00  0.00    -0.273 OA
ATOM      3  C   UNL d   1      33.009  17.503 -24.340  0.00  0.00     0.300 A 
ATOM      4  C   UNL d   1      32.922  18.608 -23.107  0.00  0.00     0.024 A 
ATOM      5  C   UNL d   1      33.104  18.859 -23.876  0.00  0.00     0.103 A 
ATOM      6  C   UNL d   1      32.783  17.800 -22.950  0.00  0.00     0.007 A 
ATOM      7  C   UNL d   1      32.879  19.156 -22.494  0.00  0.00     0.015 A 
ATOM      8  C   UNL d   1      32.828  17.252 -23.572  0.00  0.00     0.069 A 
ATOM      9  C   UNL d   1      33.197  20.203 -23.415  0.00  0.00     0.015 A 
ATOM     10  O   UNL d   1      33.054  16.958 -24.961  0.00  0.00    -0.259 OA
ATOM     11  C   UNL d   1      33.241  19.656 -24.028  0.00  0.00     0.025 A 
ENDROOT
BRANCH   1  12
ATOM     12  S   UNL d   1      32.974  20.501 -22.038  0.00  0.00     0.272 S 
ATOM     13  O   UNL d   1      32.852  19.896 -21.491  0.00  0.00    -0.200 OA
ATOM     14  O   UNL d   1      33.095  21.113 -22.578  0.00  0.00    -0.200 OA
BRANCH  12  15
ATOM     15  N   UNL d   1      32.931  21.056 -21.425  0.00  0.00    -0.225 N 
ATOM     16  C   UNL d   1      32.578  21.794 -21.559  0.00  0.00     0.118 A 
ATOM     17  C   UNL d   1      32.535  22.346 -20.951  0.00  0.00     0.142 A 
ATOM     18  O   UNL d   1      32.841  22.174 -20.204  0.00  0.00    -0.300 OA
ATOM     19  C   UNL d   1      33.196  21.432 -20.069  0.00  0.00     0.142 A 
ATOM     20  C   UNL d   1      33.241  20.876 -20.677  0.00  0.00     0.118 A 
ENDBRANCH  12  15
ENDBRANCH   1  12
TORSDOF 2
ENDMDL
MODEL 6
REMARK VINA RESULT:      -2.1      2.092      4.750
REMARK  2 active torsions:
REMARK  status: ('A' for Active; 'I' for Inactive)
REMARK    1  A    between atoms: N_2  and  S_1 
REMARK    2  A    between atoms: C_3  and  S_1 
ROOT
ATOM      1  C   UNL d   1      32.803  22.652 -20.205  0.00  0.00     0.104 A 
ATOM      2  O   UNL d   1      33.020  22.064 -22.594  0.00  0.00    -0.273 OA
ATOM      3  C   UNL d   1      33.166  21.275 -22.820  0.00  0.00     0.300 A 
ATOM      4  C   UNL d   1      33.019  21.675 -21.217  0.00  0.00     0.024 A 
ATOM      5  C   UNL d   1      32.948  22.261 -21.798  0.00  0.00     0.103 A 
ATOM      6  C   UNL d   1      33.166  20.882 -21.435  0.00  0.00     0.007 A 
ATOM      7  C   UNL d   1      32.947  21.872 -20.421  0.00  0.00     0.015 A 
ATOM      8  C   UNL d   1      33.238  20.689 -22.239  0.00  0.00     0.069 A 
ATOM      9  C   UNL d   1      32.731  23.238 -20.785  0.00  0.00     0.015 A 
ATOM     10  O   UNL d   1      33.238  21.084 -23.622  0.00  0.00    -0.259 OA
ATOM     11  C   UNL d   1      32.803  23.042 -21.581  0.00  0.00     0.025 A 
ENDROOT
BRANCH   1  12
ATOM     12  S   UNL d   1      32.730  22.852 -19.412  0.00  0.00     0.272 S 
ATOM     13  O   UNL d   1      32.503  23.618 -19.618  0.00  0.00    -0.200 OA
ATOM     14  O   UNL d   1      32.956  22.089 -19.196  0.00  0.00    -0.200 OA
BRANCH  12  15
ATOM     15  N   UNL d   1      32.656  23.052 -18.613  0.00  0.00    -0.225 N 
ATOM     16  C   UNL d   1      32.004  23.495 -18.355  0.00  0.00     0.118 A 
ATOM     17  C   UNL d   1      31.930  23.694 -17.560  0.00  0.00     0.142 A 
ATOM     18  O   UNL d   1      32.501  23.458 -17.012  0.00  0.00    -0.300 OA
ATOM     19  C   UNL d   1      33.156  23.014 -17.271  0.00  0.00     0.142 A 
ATOM     20  C   UNL d   1      33.234  22.812 -18.067  0.00  0.00     0.118 A 
ENDBRANCH  12  15
ENDBRANCH   1  12
TORSDOF 2
ENDMDL
MODEL 7
REMARK VINA RESULT:      -1.4      4.723      6.126
REMARK  2 active torsions:
REMARK  status: ('A' for Active; 'I' for Inactive)
REMARK    1  A    between atoms: N_2  and  S_1 
REMARK    2  A    between atoms: C_3  and  S_1 
ROOT
ATOM      1  C   UNL d   1      29.781  17.057 -24.287  0.00  0.00     0.104 A 
ATOM      2  O   UNL d   1      31.818  18.269 -24.982  0.00  0.00    -0.273 OA
ATOM      3  C   UNL d   1      32.555  18.085 -24.636  0.00  0.00     0.300 A 
ATOM      4  C   UNL d   1      31.184  17.275 -24.172  0.00  0.00     0.024 A 
ATOM      5  C   UNL d   1      31.139  17.865 -24.751  0.00  0.00     0.103 A 
ATOM      6  C   UNL d   1      31.917  17.085 -23.820  0.00  0.00     0.007 A 
ATOM      7  C   UNL d   1      30.505  16.872 -23.941  0.00  0.00     0.015 A 
ATOM      8  C   UNL d   1      32.599  17.495 -24.057  0.00  0.00     0.069 A 
ATOM      9  C   UNL d   1      29.737  17.647 -24.865  0.00  0.00     0.015 A 
ATOM     10  O   UNL d   1      33.233  18.495 -24.873  0.00  0.00    -0.259 OA
ATOM     11  C   UNL d   1      30.416  18.051 -25.097  0.00  0.00     0.025 A 
ENDROOT
BRANCH   1  12
ATOM     12  S   UNL d   1      29.102  16.657 -24.059  0.00  0.00     0.272 S 
ATOM     13  O   UNL d   1      29.517  15.944 -24.046  0.00  0.00    -0.200 OA
ATOM     14  O   UNL d   1      28.679  17.365 -24.069  0.00  0.00    -0.200 OA
BRANCH  12  15
ATOM     15  N   UNL d   1      28.416  16.255 -23.829  0.00  0.00    -0.225 N 
ATOM     16  C   UNL d   1      28.183  16.256 -23.033  0.00  0.00     0.118 A 
ATOM     17  C   UNL d   1      27.502  15.857 -22.803  0.00  0.00     0.142 A 
ATOM     18  O   UNL d   1      27.043  15.453 -23.358  0.00  0.00    -0.300 OA
ATOM     19  C   UNL d   1      27.277  15.453 -24.157  0.00  0.00     0.142 A 
ATOM     20  C   UNL d   1      27.960  15.852 -24.392  0.00  0.00     0.118 A 
ENDBRANCH  12  15
ENDBRANCH   1  12
TORSDOF 2
ENDMDL
MODEL 8
REMARK VINA RESULT:      -0.8      5.049      6.627
REMARK  2 active torsions:
REMARK  status: ('A' for Active; 'I' for Inactive)
REMARK    1  A    between atoms: N_2  and  S_1 
REMARK    2  A    between atoms: C_3  and  S_1 
ROOT
ATOM      1  C   UNL d   1      29.806  16.296 -24.473  0.00  0.00     0.104 A 
ATOM      2  O   UNL d   1      27.503  15.482 -24.100  0.00  0.00    -0.273 OA
ATOM      3  C   UNL d   1      27.050  15.782 -23.467  0.00  0.00     0.300 A 
ATOM      4  C   UNL d   1      28.596  16.324 -23.722  0.00  0.00     0.024 A 
ATOM      5  C   UNL d   1      28.270  15.753 -24.225  0.00  0.00     0.103 A 
ATOM      6  C   UNL d   1      28.150  16.629 -23.086  0.00  0.00     0.007 A 
ATOM      7  C   UNL d   1      29.364  16.595 -23.847  0.00  0.00     0.015 A 
ATOM      8  C   UNL d   1      27.376  16.353 -22.964  0.00  0.00     0.069 A 
ATOM      9  C   UNL d   1      29.480  15.724 -24.976  0.00  0.00     0.015 A 
ATOM     10  O   UNL d   1      26.279  15.506 -23.347  0.00  0.00    -0.259 OA
ATOM     11  C   UNL d   1      28.712  15.454 -24.851  0.00  0.00     0.025 A 
ENDROOT
BRANCH   1  12
ATOM     12  S   UNL d   1      30.571  16.563 -24.601  0.00  0.00     0.272 S 
ATOM     13  O   UNL d   1      30.740  15.889 -25.046  0.00  0.00    -0.200 OA
ATOM     14  O   UNL d   1      30.411  17.240 -24.158  0.00  0.00    -0.200 OA
BRANCH  12  15
ATOM     15  N   UNL d   1      31.342  16.834 -24.729  0.00  0.00    -0.225 N 
ATOM     16  C   UNL d   1      31.982  16.313 -24.648  0.00  0.00     0.118 A 
ATOM     17  C   UNL d   1      32.750  16.581 -24.775  0.00  0.00     0.142 A 
ATOM     18  O   UNL d   1      32.892  17.367 -24.983  0.00  0.00    -0.300 OA
ATOM     19  C   UNL d   1      32.249  17.890 -25.063  0.00  0.00     0.142 A 
ATOM     20  C   UNL d   1      31.478  17.626 -24.937  0.00  0.00     0.118 A 
ENDBRANCH  12  15
ENDBRANCH   1  12
TORSDOF 2
ENDMDL
