MODEL 1
REMARK VINA RESULT:      28.7      0.000      0.000
REMARK  8 active torsions:
REMARK  status: ('A' for Active; 'I' for Inactive)
REMARK    1  A    between atoms: C_4  and  C_1 
REMARK    2  A    between atoms: C_2  and  C_15 
REMARK    3  A    between atoms: C_3  and  C_2 
REMARK    4  A    between atoms: C_16  and  C_4 
REMARK    5  A    between atoms: O_14  and  C_9 
REMARK    6  A    between atoms: S_13  and  C_16 
REMARK    7  A    between atoms: C_15  and  S_13 
REMARK    8  A    between atoms: C_17  and  O_14 
ROOT
ATOM      1  C   UNL d   1     -50.462  24.763  33.376  0.00  0.00     0.040 A 
ATOM      2  C   UNL d   1     -50.330  23.951  33.335  0.00  0.00     0.005 A 
ATOM      3  C   UNL d   1     -51.238  25.056  33.395  0.00  0.00     0.005 A 
ATOM      4  C   UNL d   1     -51.743  23.720  33.331  0.00  0.00     0.100 A 
ATOM      5  C   UNL d   1     -50.966  23.428  33.312  0.00  0.00     0.025 A 
ATOM      6  C   UNL d   1     -51.874  24.533  33.372  0.00  0.00     0.025 A 
ENDROOT
BRANCH   1   7
ATOM      7  C   UNL d   1     -49.810  25.280  33.398  0.00  0.00     0.202 C 
ATOM      8  O   UNL d   1     -49.041  24.988  33.433  0.00  0.00    -0.286 OA
BRANCH   7   9
ATOM      9  C   UNL d   1     -49.939  26.106  33.385  0.00  0.00     0.077 C 
BRANCH   9  10
ATOM     10  S   UNL d   1     -49.288  26.632  33.484  0.00  0.00    -0.082 SA
BRANCH  10  11
ATOM     11  C   UNL d   1     -49.287  27.171  34.107  0.00  0.00     0.042 C 
BRANCH  11  12
ATOM     12  C   UNL d   1     -49.118  27.963  33.963  0.00  0.00     0.077 C 
BRANCH  12  13
ATOM     13  C   UNL d   1     -48.698  28.407  34.519  0.00  0.00     0.211 C 
ATOM     14  O   UNL d   1     -47.999  28.103  34.839  0.00  0.00    -0.644 OA
ATOM     15  O   UNL d   1     -48.973  29.146  34.753  0.00  0.00    -0.644 OA
ENDBRANCH  12  13
ENDBRANCH  11  12
ENDBRANCH  10  11
ENDBRANCH   9  10
ENDBRANCH   7   9
ENDBRANCH   1   7
BRANCH   4  16
ATOM     16  O   UNL d   1     -52.399  23.188  33.308  0.00  0.00    -0.305 OA
BRANCH  16  17
ATOM     17  C   UNL d   1     -53.050  23.321  33.797  0.00  0.00     0.123 C 
ATOM     18  C   UNL d   1     -53.784  23.500  33.466  0.00  0.00     0.029 C 
ENDBRANCH  16  17
ENDBRANCH   4  16
TORSDOF 8
ENDMDL
