MODEL 1
REMARK VINA RESULT:      20.5      0.000      0.000
REMARK  4 active torsions:
REMARK  status: ('A' for Active; 'I' for Inactive)
REMARK       I    between atoms: C_2  and  N_1 
REMARK    1  A    between atoms: C_4  and  C_2 
REMARK    2  A    between atoms: S_8  and  C_3 
REMARK    3  A    between atoms: O_12  and  C_7 
REMARK    4  A    between atoms: C_15  and  O_12 
ROOT
ATOM      1  C   UNL d   1     -51.780  24.813  33.357  0.00  0.00     0.079 A 
ATOM      2  C   UNL d   1     -51.496  24.033  33.374  0.00  0.00     0.105 A 
ATOM      3  C   UNL d   1     -52.589  24.966  33.358  0.00  0.00     0.007 A 
ATOM      4  C   UNL d   1     -52.040  23.412  33.391  0.00  0.00     0.025 A 
ATOM      5  C   UNL d   1     -53.124  24.343  33.376  0.00  0.00     0.000 A 
ATOM      6  C   UNL d   1     -52.851  23.574  33.392  0.00  0.00     0.002 A 
ENDROOT
BRANCH   1   7
ATOM      7  C   UNL d   1     -51.243  25.443  33.338  0.00  0.00     0.268 C 
ATOM      8  N   UNL d   1     -51.517  26.219  33.352  0.00  0.00    -0.251 N 
ATOM      9  C   UNL d   1     -51.052  26.902  33.337  0.00  0.00     0.178 A 
ATOM     10  C   UNL d   1     -52.314  26.449  33.384  0.00  0.00     0.106 A 
ATOM     11  N   UNL d   1     -51.556  27.546  33.359  0.00  0.00    -0.219 NA
ATOM     12  C   UNL d   1     -52.332  27.276  33.388  0.00  0.00     0.120 A 
ATOM     13  O   UNL d   1     -50.433  25.288  33.307  0.00  0.00    -0.267 OA
BRANCH   9  14
ATOM     14  S   UNL d   1     -50.232  26.918  33.306  0.00  0.00    -0.076 SA
ATOM     15  C   UNL d   1     -49.812  27.554  33.627  0.00  0.00     0.077 C 
ENDBRANCH   9  14
ENDBRANCH   1   7
BRANCH   2  16
ATOM     16  O   UNL d   1     -50.687  23.884  33.372  0.00  0.00    -0.305 OA
BRANCH  16  17
ATOM     17  C   UNL d   1     -50.397  23.205  33.740  0.00  0.00     0.123 C 
ATOM     18  C   UNL d   1     -49.630  23.189  34.010  0.00  0.00     0.029 C 
ENDBRANCH  16  17
ENDBRANCH   2  16
TORSDOF 4
ENDMDL
MODEL 2
REMARK VINA RESULT:      22.8      1.569      3.633
REMARK  4 active torsions:
REMARK  status: ('A' for Active; 'I' for Inactive)
REMARK       I    between atoms: C_2  and  N_1 
REMARK    1  A    between atoms: C_4  and  C_2 
REMARK    2  A    between atoms: S_8  and  C_3 
REMARK    3  A    between atoms: O_12  and  C_7 
REMARK    4  A    between atoms: C_15  and  O_12 
ROOT
ATOM      1  C   UNL d   1     -50.628  25.736  33.306  0.00  0.00     0.079 A 
ATOM      2  C   UNL d   1     -50.672  26.566  33.306  0.00  0.00     0.105 A 
ATOM      3  C   UNL d   1     -49.900  25.354  33.306  0.00  0.00     0.007 A 
ATOM      4  C   UNL d   1     -49.969  27.001  33.306  0.00  0.00     0.025 A 
ATOM      5  C   UNL d   1     -49.205  25.792  33.306  0.00  0.00     0.000 A 
ATOM      6  C   UNL d   1     -49.241  26.608  33.306  0.00  0.00     0.002 A 
ENDROOT
BRANCH   1   7
ATOM      7  C   UNL d   1     -51.326  25.291  33.306  0.00  0.00     0.268 C 
ATOM      8  N   UNL d   1     -51.291  24.469  33.307  0.00  0.00    -0.251 N 
ATOM      9  C   UNL d   1     -51.936  23.952  33.307  0.00  0.00     0.178 A 
ATOM     10  C   UNL d   1     -50.595  24.016  33.307  0.00  0.00     0.106 A 
ATOM     11  N   UNL d   1     -51.641  23.188  33.307  0.00  0.00    -0.219 NA
ATOM     12  C   UNL d   1     -50.820  23.219  33.307  0.00  0.00     0.120 A 
ATOM     13  O   UNL d   1     -52.056  25.676  33.306  0.00  0.00    -0.267 OA
BRANCH   9  14
ATOM     14  S   UNL d   1     -52.724  24.176  33.306  0.00  0.00    -0.076 SA
ATOM     15  C   UNL d   1     -53.255  23.849  33.851  0.00  0.00     0.077 C 
ENDBRANCH   9  14
ENDBRANCH   1   7
BRANCH   2  16
ATOM     16  O   UNL d   1     -51.401  26.945  33.306  0.00  0.00    -0.305 OA
BRANCH  16  17
ATOM     17  C   UNL d   1     -51.478  27.681  33.670  0.00  0.00     0.123 C 
ATOM     18  C   UNL d   1     -51.917  28.264  33.312  0.00  0.00     0.029 C 
ENDBRANCH  16  17
ENDBRANCH   2  16
TORSDOF 4
ENDMDL
