MODEL 1
REMARK VINA RESULT:      -3.5      0.000      0.000
REMARK  3 active torsions:
REMARK  status: ('A' for Active; 'I' for Inactive)
REMARK    1  A    between atoms: C_8  and  N_1 
REMARK    2  A    between atoms: N_7  and  C_2 
REMARK    3  A    between atoms: C_16  and  C_8 
ROOT
ATOM      1  N   UNL d   1      57.657   0.473  31.520  0.00  0.00    -0.225 N 
ATOM      2  C   UNL d   1      58.761   0.056  30.373  0.00  0.00     0.158 A 
ATOM      3  C   UNL d   1      57.418   0.353  30.737  0.00  0.00     0.358 A 
ATOM      4  N   UNL d   1      57.969   0.146  30.169  0.00  0.00    -0.174 NA
ATOM      5  C   UNL d   1      58.446   0.386  31.733  0.00  0.00     0.271 A 
ATOM      6  C   UNL d   1      59.000   0.176  31.156  0.00  0.00     0.099 A 
ATOM      7  O   UNL d   1      56.620   0.444  30.531  0.00  0.00    -0.244 OA
ATOM      8  O   UNL d   1      58.685   0.505  32.516  0.00  0.00    -0.266 OA
ENDROOT
BRANCH   1   9
ATOM      9  C   UNL d   1      57.102   0.682  32.094  0.00  0.00     0.087 C 
BRANCH   9  10
ATOM     10  C   UNL d   1      56.662   0.096  32.474  0.00  0.00     0.018 A 
ATOM     11  C   UNL d   1      56.258   0.285  33.171  0.00  0.00     0.004 A 
ATOM     12  C   UNL d   1      55.818  -0.300  33.551  0.00  0.00     0.030 A 
ATOM     13  C   UNL d   1      55.788  -1.058  33.236  0.00  0.00     0.140 A 
ATOM     14  C   UNL d   1      56.188  -1.239  32.550  0.00  0.00     0.030 A 
ATOM     15  F   UNL d   1      55.344  -1.641  33.624  0.00  0.00    -0.204 F 
ATOM     16  C   UNL d   1      56.627  -0.663  32.166  0.00  0.00     0.004 A 
ENDBRANCH   9  10
ENDBRANCH   1   9
BRANCH   2  17
ATOM     17  N   UNL d   1      59.317  -0.152  29.803  0.00  0.00    -0.285 N 
ATOM     18  C   UNL d   1      59.259  -0.869  29.418  0.00  0.00     0.106 A 
ATOM     19  C   UNL d   1      59.815  -1.077  28.848  0.00  0.00     0.118 A 
ATOM     20  C   UNL d   1      59.758  -1.802  28.459  0.00  0.00     0.028 C 
ATOM     21  O   UNL d   1      60.430  -0.571  28.661  0.00  0.00    -0.304 OA
ATOM     22  C   UNL d   1      60.493   0.170  29.055  0.00  0.00     0.118 A 
ATOM     23  C   UNL d   1      59.934   0.376  29.626  0.00  0.00     0.106 A 
ATOM     24  C   UNL d   1      61.110   0.682  28.869  0.00  0.00     0.028 C 
ENDBRANCH   2  17
TORSDOF 3
ENDMDL
MODEL 2
REMARK VINA RESULT:      -3.1      1.522      1.994
REMARK  3 active torsions:
REMARK  status: ('A' for Active; 'I' for Inactive)
REMARK    1  A    between atoms: C_8  and  N_1 
REMARK    2  A    between atoms: N_7  and  C_2 
REMARK    3  A    between atoms: C_16  and  C_8 
ROOT
ATOM      1  N   UNL d   1      57.563  -0.405  30.689  0.00  0.00    -0.225 N 
ATOM      2  C   UNL d   1      58.509  -1.479  29.876  0.00  0.00     0.158 A 
ATOM      3  C   UNL d   1      57.402  -1.216  30.730  0.00  0.00     0.358 A 
ATOM      4  N   UNL d   1      57.874  -1.747  30.325  0.00  0.00    -0.174 NA
ATOM      5  C   UNL d   1      58.196  -0.128  30.242  0.00  0.00     0.271 A 
ATOM      6  C   UNL d   1      58.670  -0.669  29.834  0.00  0.00     0.099 A 
ATOM      7  O   UNL d   1      56.762  -1.487  31.183  0.00  0.00    -0.244 OA
ATOM      8  O   UNL d   1      58.357   0.682  30.201  0.00  0.00    -0.266 OA
ENDROOT
BRANCH   1   9
ATOM      9  C   UNL d   1      57.088   0.131  31.097  0.00  0.00     0.087 C 
BRANCH   9  10
ATOM     10  C   UNL d   1      57.153   0.198  31.918  0.00  0.00     0.018 A 
ATOM     11  C   UNL d   1      57.793   0.613  32.238  0.00  0.00     0.004 A 
ATOM     12  C   UNL d   1      57.859   0.680  33.057  0.00  0.00     0.030 A 
ATOM     13  C   UNL d   1      57.291   0.336  33.542  0.00  0.00     0.140 A 
ATOM     14  C   UNL d   1      56.663  -0.071  33.222  0.00  0.00     0.030 A 
ATOM     15  F   UNL d   1      57.363   0.408  34.365  0.00  0.00    -0.204 F 
ATOM     16  C   UNL d   1      56.590  -0.142  32.408  0.00  0.00     0.004 A 
ENDBRANCH   9  10
ENDBRANCH   1   9
BRANCH   2  17
ATOM     17  N   UNL d   1      58.984  -2.012  29.467  0.00  0.00    -0.285 N 
ATOM     18  C   UNL d   1      58.670  -2.712  29.190  0.00  0.00     0.106 A 
ATOM     19  C   UNL d   1      59.146  -3.245  28.781  0.00  0.00     0.118 A 
ATOM     20  C   UNL d   1      58.828  -3.952  28.500  0.00  0.00     0.028 C 
ATOM     21  O   UNL d   1      59.936  -3.081  28.648  0.00  0.00    -0.304 OA
ATOM     22  C   UNL d   1      60.265  -2.360  28.933  0.00  0.00     0.118 A 
ATOM     23  C   UNL d   1      59.785  -1.828  29.342  0.00  0.00     0.106 A 
ATOM     24  C   UNL d   1      61.059  -2.192  28.801  0.00  0.00     0.028 C 
ENDBRANCH   2  17
TORSDOF 3
ENDMDL
MODEL 3
REMARK VINA RESULT:      -1.4      1.826      4.761
REMARK  3 active torsions:
REMARK  status: ('A' for Active; 'I' for Inactive)
REMARK    1  A    between atoms: C_8  and  N_1 
REMARK    2  A    between atoms: N_7  and  C_2 
REMARK    3  A    between atoms: C_16  and  C_8 
ROOT
ATOM      1  N   UNL d   1      57.816   0.603  31.222  0.00  0.00    -0.225 N 
ATOM      2  C   UNL d   1      56.927   0.549  32.606  0.00  0.00     0.158 A 
ATOM      3  C   UNL d   1      58.193   0.587  31.958  0.00  0.00     0.358 A 
ATOM      4  N   UNL d   1      57.749   0.560  32.645  0.00  0.00    -0.174 NA
ATOM      5  C   UNL d   1      56.995   0.592  31.174  0.00  0.00     0.271 A 
ATOM      6  C   UNL d   1      56.549   0.565  31.870  0.00  0.00     0.099 A 
ATOM      7  O   UNL d   1      59.021   0.599  31.998  0.00  0.00    -0.244 OA
ATOM      8  O   UNL d   1      56.617   0.608  30.438  0.00  0.00    -0.266 OA
ENDROOT
BRANCH   1   9
ATOM      9  C   UNL d   1      58.262   0.631  30.529  0.00  0.00     0.087 C 
BRANCH   9  10
ATOM     10  C   UNL d   1      58.442  -0.068  30.127  0.00  0.00     0.018 A 
ATOM     11  C   UNL d   1      58.182  -0.789  30.437  0.00  0.00     0.004 A 
ATOM     12  C   UNL d   1      58.362  -1.487  30.036  0.00  0.00     0.030 A 
ATOM     13  C   UNL d   1      58.793  -1.456  29.338  0.00  0.00     0.140 A 
ATOM     14  C   UNL d   1      59.047  -0.744  29.036  0.00  0.00     0.030 A 
ATOM     15  F   UNL d   1      58.970  -2.162  28.939  0.00  0.00    -0.204 F 
ATOM     16  C   UNL d   1      58.872  -0.046  29.429  0.00  0.00     0.004 A 
ENDBRANCH   9  10
ENDBRANCH   1   9
BRANCH   2  17
ATOM     17  N   UNL d   1      56.478   0.522  33.295  0.00  0.00    -0.285 N 
ATOM     18  C   UNL d   1      55.672   0.403  33.255  0.00  0.00     0.106 A 
ATOM     19  C   UNL d   1      55.223   0.376  33.944  0.00  0.00     0.118 A 
ATOM     20  C   UNL d   1      54.408   0.256  33.903  0.00  0.00     0.028 C 
ATOM     21  O   UNL d   1      55.577   0.467  34.676  0.00  0.00    -0.304 OA
ATOM     22  C   UNL d   1      56.409   0.590  34.723  0.00  0.00     0.118 A 
ATOM     23  C   UNL d   1      56.855   0.617  34.030  0.00  0.00     0.106 A 
ATOM     24  C   UNL d   1      56.768   0.682  35.457  0.00  0.00     0.028 C 
ENDBRANCH   2  17
TORSDOF 3
ENDMDL
