MODEL 1
REMARK VINA RESULT:      -4.9      0.000      0.000
REMARK  4 active torsions:
REMARK  status: ('A' for Active; 'I' for Inactive)
REMARK    1  A    between atoms: C_11  and  N_4 
REMARK    2  A    between atoms: C_18  and  C_7 
REMARK    3  A    between atoms: C_19  and  C_11 
REMARK    4  A    between atoms: O_20  and  C_16 
ROOT
ATOM      1  C   UNL d   1      57.923  -0.805  30.602  0.00  0.00     0.137 A 
ATOM      2  C   UNL d   1      58.268  -0.076  30.761  0.00  0.00     0.192 A 
ATOM      3  C   UNL d   1      58.180  -1.251  29.959  0.00  0.00     0.272 A 
ATOM      4  N   UNL d   1      58.779  -0.970  29.475  0.00  0.00    -0.258 N 
ATOM      5  N   UNL d   1      58.869   0.213  30.281  0.00  0.00    -0.204 NA
ATOM      6  C   UNL d   1      57.318  -1.092  31.087  0.00  0.00     0.205 A 
ATOM      7  C   UNL d   1      59.131  -0.234  29.632  0.00  0.00     0.152 A 
ATOM      8  C   UNL d   1      57.068  -0.644  31.724  0.00  0.00     0.062 A 
ATOM      9  O   UNL d   1      58.013   0.374  31.404  0.00  0.00    -0.289 OA
ATOM     10  C   UNL d   1      57.411   0.086  31.887  0.00  0.00     0.107 A 
ATOM     11  C   UNL d   1      57.149   0.532  32.536  0.00  0.00     0.049 A 
ATOM     12  C   UNL d   1      56.462  -0.931  32.211  0.00  0.00     0.007 A 
ATOM     13  O   UNL d   1      57.832  -1.979  29.803  0.00  0.00    -0.266 OA
ATOM     14  O   UNL d   1      56.975  -1.822  30.925  0.00  0.00    -0.286 OA
ATOM     15  C   UNL d   1      56.548   0.244  33.015  0.00  0.00     0.096 A 
ATOM     16  C   UNL d   1      56.204  -0.490  32.852  0.00  0.00     0.024 A 
ENDROOT
BRANCH   4  17
ATOM     17  C   UNL d   1      59.038  -1.424  28.824  0.00  0.00     0.084 C 
BRANCH  17  18
ATOM     18  C   UNL d   1      59.517  -2.081  28.946  0.00  0.00     0.018 A 
ATOM     19  C   UNL d   1      60.296  -2.003  29.214  0.00  0.00     0.002 A 
ATOM     20  C   UNL d   1      60.771  -2.668  29.334  0.00  0.00     0.000 A 
ATOM     21  C   UNL d   1      60.458  -3.431  29.182  0.00  0.00     0.000 A 
ATOM     22  C   UNL d   1      59.675  -3.512  28.913  0.00  0.00     0.000 A 
ATOM     23  C   UNL d   1      59.209  -2.839  28.797  0.00  0.00     0.002 A 
ENDBRANCH  17  18
ENDBRANCH   4  17
BRANCH   7  24
ATOM     24  C   UNL d   1      59.730   0.047  29.148  0.00  0.00     0.038 C 
ATOM     25  C   UNL d   1      60.193   0.682  29.392  0.00  0.00     0.003 C 
ENDBRANCH   7  24
BRANCH  15  26
ATOM     26  O   UNL d   1      56.288   0.682  33.657  0.00  0.00    -0.328 OA
ATOM     27  C   UNL d   1      55.547   0.533  33.979  0.00  0.00     0.181 C 
ENDBRANCH  15  26
TORSDOF 4
ENDMDL
MODEL 2
REMARK VINA RESULT:      -4.6      1.011      2.123
REMARK  4 active torsions:
REMARK  status: ('A' for Active; 'I' for Inactive)
REMARK    1  A    between atoms: C_11  and  N_4 
REMARK    2  A    between atoms: C_18  and  C_7 
REMARK    3  A    between atoms: C_19  and  C_11 
REMARK    4  A    between atoms: O_20  and  C_16 
ROOT
ATOM      1  C   UNL d   1      57.766  -0.714  30.433  0.00  0.00     0.137 A 
ATOM      2  C   UNL d   1      57.644  -1.495  30.658  0.00  0.00     0.192 A 
ATOM      3  C   UNL d   1      58.237  -0.541  29.779  0.00  0.00     0.272 A 
ATOM      4  N   UNL d   1      58.585  -1.147  29.350  0.00  0.00    -0.258 N 
ATOM      5  N   UNL d   1      57.990  -2.108  30.234  0.00  0.00    -0.204 NA
ATOM      6  C   UNL d   1      57.416  -0.099  30.863  0.00  0.00     0.205 A 
ATOM      7  C   UNL d   1      58.465  -1.938  29.574  0.00  0.00     0.152 A 
ATOM      8  C   UNL d   1      56.951  -0.277  31.511  0.00  0.00     0.062 A 
ATOM      9  O   UNL d   1      57.174  -1.671  31.312  0.00  0.00    -0.289 OA
ATOM     10  C   UNL d   1      56.826  -1.058  31.739  0.00  0.00     0.107 A 
ATOM     11  C   UNL d   1      56.351  -1.227  32.398  0.00  0.00     0.049 A 
ATOM     12  C   UNL d   1      56.600   0.337  31.941  0.00  0.00     0.007 A 
ATOM     13  O   UNL d   1      58.355   0.242  29.558  0.00  0.00    -0.266 OA
ATOM     14  O   UNL d   1      57.540   0.682  30.634  0.00  0.00    -0.286 OA
ATOM     15  C   UNL d   1      56.006  -0.615  32.822  0.00  0.00     0.096 A 
ATOM     16  C   UNL d   1      56.131   0.169  32.593  0.00  0.00     0.024 A 
ENDROOT
BRANCH   4  17
ATOM     17  C   UNL d   1      59.061  -0.970  28.689  0.00  0.00     0.084 C 
BRANCH  17  18
ATOM     18  C   UNL d   1      59.752  -0.534  28.785  0.00  0.00     0.018 A 
ATOM     19  C   UNL d   1      60.400  -0.838  29.202  0.00  0.00     0.002 A 
ATOM     20  C   UNL d   1      61.090  -0.394  29.295  0.00  0.00     0.000 A 
ATOM     21  C   UNL d   1      61.133   0.375  28.961  0.00  0.00     0.000 A 
ATOM     22  C   UNL d   1      60.485   0.682  28.541  0.00  0.00     0.000 A 
ATOM     23  C   UNL d   1      59.799   0.228  28.455  0.00  0.00     0.002 A 
ENDBRANCH  17  18
ENDBRANCH   4  17
BRANCH   7  24
ATOM     24  C   UNL d   1      58.814  -2.544  29.145  0.00  0.00     0.038 C 
ATOM     25  C   UNL d   1      58.385  -3.224  28.971  0.00  0.00     0.003 C 
ENDBRANCH   7  24
BRANCH  15  26
ATOM     26  O   UNL d   1      55.537  -0.779  33.473  0.00  0.00    -0.328 OA
ATOM     27  C   UNL d   1      55.113  -0.174  33.834  0.00  0.00     0.181 C 
ENDBRANCH  15  26
TORSDOF 4
ENDMDL
