MODEL 1
REMARK VINA RESULT:     110.1      0.000      0.000
REMARK  3 active torsions:
REMARK  status: ('A' for Active; 'I' for Inactive)
REMARK    1  A    between atoms: C_5  and  N_1 
REMARK    2  A    between atoms: C_13  and  C_6 
REMARK    3  A    between atoms: O_24  and  C_19 
ROOT
ATOM      1  N   UNL d   1     -49.236  26.958  33.957  0.00  0.00    -0.256 N 
ATOM      2  C   UNL d   1     -50.227  26.067  33.798  0.00  0.00     0.083 A 
ATOM      3  C   UNL d   1     -49.510  25.664  33.761  0.00  0.00     0.161 A 
ATOM      4  C   UNL d   1     -48.894  26.211  33.859  0.00  0.00     0.289 A 
ATOM      5  C   UNL d   1     -50.061  26.868  33.920  0.00  0.00     0.075 A 
ATOM      6  C   UNL d   1     -50.939  25.660  33.718  0.00  0.00     0.201 A 
ATOM      7  O   UNL d   1     -49.506  24.841  33.641  0.00  0.00    -0.302 OA
ATOM      8  C   UNL d   1     -50.931  24.844  33.599  0.00  0.00     0.063 A 
ATOM      9  C   UNL d   1     -50.216  24.438  33.561  0.00  0.00     0.103 A 
ATOM     10  O   UNL d   1     -48.092  26.045  33.858  0.00  0.00    -0.264 OA
ATOM     11  O   UNL d   1     -51.655  26.062  33.755  0.00  0.00    -0.286 OA
ATOM     12  C   UNL d   1     -51.645  24.433  33.518  0.00  0.00     0.017 A 
ATOM     13  C   UNL d   1     -50.216  23.612  33.441  0.00  0.00     0.026 A 
ATOM     14  C   UNL d   1     -51.644  23.622  33.400  0.00  0.00     0.058 A 
ATOM     15  C   UNL d   1     -50.927  23.210  33.362  0.00  0.00     0.013 A 
ATOM     16 CL   UNL d   1     -52.350  23.215  33.320  0.00  0.00    -0.082 Cl
ENDROOT
BRANCH   5  17
ATOM     17  C   UNL d   1     -50.776  27.274  33.958  0.00  0.00     0.039 A 
ATOM     18  C   UNL d   1     -51.239  27.247  34.642  0.00  0.00     0.096 A 
ATOM     19  C   UNL d   1     -51.953  27.654  34.676  0.00  0.00     0.024 A 
ATOM     20  C   UNL d   1     -52.214  28.096  34.022  0.00  0.00     0.002 A 
ATOM     21  C   UNL d   1     -51.751  28.124  33.336  0.00  0.00     0.000 A 
ATOM     22  C   UNL d   1     -51.030  27.711  33.306  0.00  0.00     0.003 A 
BRANCH  18  23
ATOM     23  O   UNL d   1     -50.977  26.808  35.288  0.00  0.00    -0.328 OA
ATOM     24  C   UNL d   1     -51.524  26.498  35.820  0.00  0.00     0.181 C 
ENDBRANCH  18  23
ENDBRANCH   5  17
BRANCH   1  25
ATOM     25  C   UNL d   1     -48.832  27.666  34.072  0.00  0.00     0.179 A 
ATOM     26  N   UNL d   1     -48.571  28.175  33.486  0.00  0.00    -0.108 NA
ATOM     27  O   UNL d   1     -48.196  28.813  33.846  0.00  0.00    -0.210 OA
ATOM     28  C   UNL d   1     -48.227  28.697  34.661  0.00  0.00     0.128 A 
ATOM     29  C   UNL d   1     -48.620  27.988  34.805  0.00  0.00     0.067 A 
ATOM     30  C   UNL d   1     -47.919  29.202  35.236  0.00  0.00     0.029 C 
ENDBRANCH   1  25
TORSDOF 3
ENDMDL
