MODEL 1
REMARK VINA RESULT:       6.0      0.000      0.000
REMARK  0 active torsions:
REMARK  status: ('A' for Active; 'I' for Inactive)
ROOT
ATOM      1  N   UNL d   1     -51.907  25.541  33.311  0.00  0.00    -0.270 NA
ATOM      2  C   UNL d   1     -50.863  24.260  33.307  0.00  0.00    -0.001 A 
ATOM      3  C   UNL d   1     -50.570  25.031  33.309  0.00  0.00    -0.004 A 
ATOM      4  C   UNL d   1     -52.193  24.776  33.310  0.00  0.00     0.076 A 
ATOM      5  C   UNL d   1     -51.092  25.672  33.311  0.00  0.00     0.103 A 
ATOM      6  C   UNL d   1     -51.671  24.135  33.308  0.00  0.00     0.017 A 
ATOM      7  C   UNL d   1     -50.341  23.618  33.306  0.00  0.00    -0.000 C 
ATOM      8  C   UNL d   1     -53.008  24.645  33.310  0.00  0.00     0.019 A 
ATOM      9  C   UNL d   1     -50.277  25.802  33.310  0.00  0.00     0.029 C 
ATOM     10  C   UNL d   1     -51.615  26.313  33.313  0.00  0.00     0.029 C 
ATOM     11  C   UNL d   1     -51.960  23.366  33.306  0.00  0.00     0.002 A 
ATOM     12  C   UNL d   1     -53.297  23.877  33.308  0.00  0.00     0.002 A 
ATOM     13  C   UNL d   1     -52.779  23.233  33.307  0.00  0.00     0.000 A 
ENDROOT
TORSDOF 0
ENDMDL
MODEL 2
REMARK VINA RESULT:       6.1      0.497      2.211
REMARK  0 active torsions:
REMARK  status: ('A' for Active; 'I' for Inactive)
ROOT
ATOM      1  N   UNL d   1     -52.705  24.847  33.313  0.00  0.00    -0.270 NA
ATOM      2  C   UNL d   1     -51.324  23.938  33.310  0.00  0.00    -0.001 A 
ATOM      3  C   UNL d   1     -52.062  23.569  33.313  0.00  0.00    -0.004 A 
ATOM      4  C   UNL d   1     -51.972  25.209  33.311  0.00  0.00     0.076 A 
ATOM      5  C   UNL d   1     -52.752  24.024  33.314  0.00  0.00     0.103 A 
ATOM      6  C   UNL d   1     -51.281  24.754  33.309  0.00  0.00     0.017 A 
ATOM      7  C   UNL d   1     -50.633  23.483  33.309  0.00  0.00    -0.000 C 
ATOM      8  C   UNL d   1     -51.923  26.033  33.310  0.00  0.00     0.019 A 
ATOM      9  C   UNL d   1     -52.799  23.200  33.315  0.00  0.00     0.029 C 
ATOM     10  C   UNL d   1     -53.443  24.478  33.315  0.00  0.00     0.029 C 
ATOM     11  C   UNL d   1     -50.546  25.120  33.307  0.00  0.00     0.002 A 
ATOM     12  C   UNL d   1     -51.189  26.398  33.307  0.00  0.00     0.002 A 
ATOM     13  C   UNL d   1     -50.495  25.947  33.306  0.00  0.00     0.000 A 
ENDROOT
TORSDOF 0
ENDMDL
MODEL 3
REMARK VINA RESULT:       8.7      0.612      1.573
REMARK  0 active torsions:
REMARK  status: ('A' for Active; 'I' for Inactive)
ROOT
ATOM      1  N   UNL d   1     -50.838  24.186  33.405  0.00  0.00    -0.270 NA
ATOM      2  C   UNL d   1     -51.858  25.485  33.340  0.00  0.00    -0.001 A 
ATOM      3  C   UNL d   1     -51.042  25.601  33.367  0.00  0.00    -0.004 A 
ATOM      4  C   UNL d   1     -51.648  24.075  33.379  0.00  0.00     0.076 A 
ATOM      5  C   UNL d   1     -50.532  24.951  33.400  0.00  0.00     0.103 A 
ATOM      6  C   UNL d   1     -52.158  24.725  33.346  0.00  0.00     0.017 A 
ATOM      7  C   UNL d   1     -52.369  26.135  33.308  0.00  0.00    -0.000 C 
ATOM      8  C   UNL d   1     -51.955  23.308  33.384  0.00  0.00     0.019 A 
ATOM      9  C   UNL d   1     -50.226  25.718  33.394  0.00  0.00     0.029 C 
ATOM     10  C   UNL d   1     -50.022  24.301  33.432  0.00  0.00     0.029 C 
ATOM     11  C   UNL d   1     -52.971  24.611  33.319  0.00  0.00     0.002 A 
ATOM     12  C   UNL d   1     -52.767  23.195  33.357  0.00  0.00     0.002 A 
ATOM     13  C   UNL d   1     -53.281  23.842  33.325  0.00  0.00     0.000 A 
ENDROOT
TORSDOF 0
ENDMDL
