MODEL 1
REMARK VINA RESULT:      19.9      0.000      0.000
REMARK  5 active torsions:
REMARK  status: ('A' for Active; 'I' for Inactive)
REMARK    1  A    between atoms: N_2  and  S_1 
REMARK    2  A    between atoms: C_4  and  S_1 
REMARK    3  A    between atoms: C_3  and  N_2 
REMARK    4  A    between atoms: N_7  and  C_3 
REMARK    5  A    between atoms: C_15  and  N_7 
ROOT
ATOM      1  S   UNL d   1     -56.632 -98.767 -44.408  0.00  0.00     0.287 S 
ATOM      2  O   UNL d   1     -56.674 -98.777 -45.240  0.00  0.00    -0.198 OA
ATOM      3  O   UNL d   1     -56.610 -98.757 -43.584  0.00  0.00    -0.198 OA
ENDROOT
BRANCH   1   4
ATOM      4  N   UNL d   1     -55.806 -98.762 -44.440  0.00  0.00    -0.128 NA
BRANCH   4   5
ATOM      5  C   UNL d   1     -55.073 -99.081 -44.194  0.00  0.00     0.232 C 
ATOM      6  S   UNL d   1     -54.717 -98.806 -43.509  0.00  0.00    -0.036 SA
BRANCH   5   7
ATOM      7  N   UNL d   1     -54.718 -99.672 -44.648  0.00  0.00    -0.217 NA
BRANCH   7   8
ATOM      8  C   UNL d   1     -54.780-100.461 -44.409  0.00  0.00     0.084 A 
ATOM      9  C   UNL d   1     -54.909-101.048 -44.968  0.00  0.00     0.019 A 
ATOM     10  C   UNL d   1     -54.971-101.830 -44.735  0.00  0.00     0.002 A 
ATOM     11  C   UNL d   1     -54.905-102.033 -43.944  0.00  0.00     0.000 A 
ATOM     12  C   UNL d   1     -54.776-101.445 -43.379  0.00  0.00     0.002 A 
ATOM     13  C   UNL d   1     -54.713-100.659 -43.611  0.00  0.00     0.019 A 
ENDBRANCH   7   8
ENDBRANCH   5   7
ENDBRANCH   4   5
ENDBRANCH   1   4
BRANCH   1  14
ATOM     14  C   UNL d   1     -57.463 -98.771 -44.376  0.00  0.00     0.105 A 
ATOM     15  C   UNL d   1     -57.852 -98.788 -43.639  0.00  0.00     0.014 A 
ATOM     16  C   UNL d   1     -58.671 -98.793 -43.607  0.00  0.00     0.012 A 
ATOM     17  C   UNL d   1     -59.113 -98.781 -44.304  0.00  0.00     0.058 A 
ATOM     18  C   UNL d   1     -58.732 -98.764 -45.039  0.00  0.00     0.012 A 
ATOM     19 CL   UNL d   1     -59.932 -98.785 -44.273  0.00  0.00    -0.082 Cl
ATOM     20  C   UNL d   1     -57.907 -98.759 -45.070  0.00  0.00     0.014 A 
ENDBRANCH   1  14
TORSDOF 5
ENDMDL
