MODEL 1
REMARK VINA RESULT:      80.3      0.000      0.000
REMARK  6 active torsions:
REMARK  status: ('A' for Active; 'I' for Inactive)
REMARK    1  A    between atoms: N_3  and  C_1 
REMARK       I    between atoms: C_7  and  N_3 
REMARK    2  A    between atoms: S_13  and  C_4 
REMARK    3  A    between atoms: C_20  and  C_7 
REMARK    4  A    between atoms: C_10  and  C_21 
REMARK       I    between atoms: N_12  and  C_10 
REMARK    5  A    between atoms: C_14  and  N_12 
REMARK    6  A    between atoms: C_21  and  S_13 
ROOT
ATOM      1  C   UNL d   1      61.530  47.421  49.955  0.00  0.00     0.286 C 
ATOM      2  N   UNL d   1      61.473  46.870  49.341  0.00  0.00    -0.207 NA
ATOM      3  O   UNL d   1      61.823  47.196  50.694  0.00  0.00    -0.265 OA
ENDROOT
BRANCH   1   4
ATOM      4  C   UNL d   1      61.290  48.196  49.822  0.00  0.00     0.100 C 
BRANCH   4   5
ATOM      5  S   UNL d   1      61.263  48.735  50.452  0.00  0.00    -0.054 SA
BRANCH   5   6
ATOM      6  C   UNL d   1      60.541  49.071  50.665  0.00  0.00     0.165 A 
ATOM      7  S   UNL d   1      59.862  49.078  50.207  0.00  0.00    -0.019 SA
ATOM      8  C   UNL d   1      59.267  49.466  50.621  0.00  0.00     0.219 A 
ATOM      9  N   UNL d   1      59.586  49.702  51.347  0.00  0.00    -0.120 NA
ATOM     10  N   UNL d   1      60.371  49.458  51.374  0.00  0.00    -0.133 NA
BRANCH   8  11
ATOM     11  N   UNL d   1      58.494  49.595  50.355  0.00  0.00    -0.181 NA
ATOM     12  C   UNL d   1      57.901  49.056  50.562  0.00  0.00     0.281 C 
ATOM     13  O   UNL d   1      58.079  48.402  51.026  0.00  0.00    -0.265 OA
BRANCH  12  14
ATOM     14  C   UNL d   1      57.128  49.180  50.300  0.00  0.00     0.058 C 
ATOM     15  C   UNL d   1      56.994  49.661  49.640  0.00  0.00     0.005 C 
ATOM     16  C   UNL d   1      56.502  48.828  50.693  0.00  0.00     0.005 C 
ENDBRANCH  12  14
ENDBRANCH   8  11
ENDBRANCH   5   6
ENDBRANCH   4   5
ENDBRANCH   1   4
BRANCH   2  17
ATOM     17  C   UNL d   1      61.714  46.091  49.474  0.00  0.00     0.087 A 
ATOM     18  C   UNL d   1      61.370  45.660  50.086  0.00  0.00     0.046 A 
ATOM     19  C   UNL d   1      61.601  44.888  50.227  0.00  0.00     0.124 A 
ATOM     20  O   UNL d   1      61.254  44.456  50.842  0.00  0.00    -0.301 OA
ATOM     21  C   UNL d   1      62.182  44.538  49.753  0.00  0.00     0.123 A 
ATOM     22  C   UNL d   1      61.494  43.674  50.977  0.00  0.00     0.149 A 
ATOM     23  C   UNL d   1      62.076  43.325  50.502  0.00  0.00     0.149 A 
ATOM     24  O   UNL d   1      62.421  43.768  49.884  0.00  0.00    -0.301 OA
ATOM     25  C   UNL d   1      62.526  44.973  49.139  0.00  0.00     0.028 A 
ATOM     26  C   UNL d   1      62.291  45.751  49.000  0.00  0.00     0.021 A 
ENDBRANCH   2  17
TORSDOF 6
ENDMDL
