MODEL 1
REMARK VINA RESULT:      -3.0      0.000      0.000
REMARK  6 active torsions:
REMARK  status: ('A' for Active; 'I' for Inactive)
REMARK    1  A    between atoms: N_14  and  C_6 
REMARK    2  A    between atoms: C_20  and  N_14 
REMARK    3  A    between atoms: O_19  and  C_22 
REMARK    4  A    between atoms: C_23  and  O_19 
REMARK    5  A    between atoms: C_22  and  C_20 
REMARK    6  A    between atoms: C_21  and  C_23 
ROOT
ATOM      1  N   UNL d   1      33.173  22.000 -21.371  0.00  0.00    -0.193 N 
ATOM      2  C   UNL d   1      33.195  21.659 -22.128  0.00  0.00     0.168 A 
ATOM      3  C   UNL d   1      33.207  20.846 -22.219  0.00  0.00     0.073 A 
ATOM      4  C   UNL d   1      33.196  20.376 -21.551  0.00  0.00     0.185 A 
ATOM      5  N   UNL d   1      33.173  20.717 -20.794  0.00  0.00    -0.143 NA
ATOM      6  C   UNL d   1      33.162  22.814 -21.300  0.00  0.00     0.167 A 
ATOM      7  N   UNL d   1      33.206  22.142 -22.792  0.00  0.00    -0.227 NA
ATOM      8  C   UNL d   1      33.229  20.510 -22.968  0.00  0.00     0.007 A 
ATOM      9  N   UNL d   1      33.207  19.551 -21.627  0.00  0.00    -0.225 NA
ATOM     10  C   UNL d   1      33.172  23.296 -21.954  0.00  0.00     0.058 A 
ATOM     11  C   UNL d   1      33.241  19.698 -23.059  0.00  0.00     0.019 A 
ATOM     12  C   UNL d   1      33.195  22.955 -22.711  0.00  0.00     0.086 A 
ATOM     13  C   UNL d   1      33.230  19.211 -22.384  0.00  0.00     0.083 A 
ATOM     14  C   UNL d   1      33.240  20.996 -23.635  0.00  0.00     0.000 C 
ATOM     15  C   UNL d   1      33.206  23.460 -23.399  0.00  0.00     0.021 C 
ATOM     16  C   UNL d   1      33.241  18.401 -22.468  0.00  0.00     0.021 C 
ENDROOT
BRANCH   6  17
ATOM     17  N   UNL d   1      33.138  23.156 -20.516  0.00  0.00    -0.223 NA
BRANCH  17  18
ATOM     18  C   UNL d   1      32.795  23.606 -19.889  0.00  0.00     0.127 C 
BRANCH  18  19
ATOM     19  C   UNL d   1      33.150  23.591 -19.113  0.00  0.00     0.143 C 
BRANCH  19  20
ATOM     20  O   UNL d   1      32.672  23.456 -18.424  0.00  0.00    -0.298 OA
BRANCH  20  21
ATOM     21  C   UNL d   1      33.031  23.420 -17.650  0.00  0.00     0.168 C 
BRANCH  21  22
ATOM     22  C   UNL d   1      32.593  23.098 -16.992  0.00  0.00     0.261 C 
ATOM     23  O   UNL d   1      33.003  22.891 -16.270  0.00  0.00    -0.281 OA
ENDBRANCH  21  22
ENDBRANCH  20  21
ENDBRANCH  19  20
ENDBRANCH  18  19
ENDBRANCH  17  18
ENDBRANCH   6  17
TORSDOF 6
ENDMDL
MODEL 2
REMARK VINA RESULT:      -1.6      3.293      5.507
REMARK  6 active torsions:
REMARK  status: ('A' for Active; 'I' for Inactive)
REMARK    1  A    between atoms: N_14  and  C_6 
REMARK    2  A    between atoms: C_20  and  N_14 
REMARK    3  A    between atoms: O_19  and  C_22 
REMARK    4  A    between atoms: C_23  and  O_19 
REMARK    5  A    between atoms: C_22  and  C_20 
REMARK    6  A    between atoms: C_21  and  C_23 
ROOT
ATOM      1  N   UNL d   1      33.228  20.199 -23.244  0.00  0.00    -0.193 N 
ATOM      2  C   UNL d   1      33.223  20.935 -22.861  0.00  0.00     0.168 A 
ATOM      3  C   UNL d   1      33.227  21.630 -23.294  0.00  0.00     0.073 A 
ATOM      4  C   UNL d   1      33.235  21.584 -24.110  0.00  0.00     0.185 A 
ATOM      5  N   UNL d   1      33.240  20.847 -24.492  0.00  0.00    -0.143 NA
ATOM      6  C   UNL d   1      33.225  19.516 -22.795  0.00  0.00     0.167 A 
ATOM      7  N   UNL d   1      33.215  20.969 -22.040  0.00  0.00    -0.227 NA
ATOM      8  C   UNL d   1      33.222  22.358 -22.916  0.00  0.00     0.007 A 
ATOM      9  N   UNL d   1      33.238  22.278 -24.562  0.00  0.00    -0.225 NA
ATOM     10  C   UNL d   1      33.216  19.544 -21.982  0.00  0.00     0.058 A 
ATOM     11  C   UNL d   1      33.225  23.052 -23.347  0.00  0.00     0.019 A 
ATOM     12  C   UNL d   1      33.212  20.281 -21.600  0.00  0.00     0.086 A 
ATOM     13  C   UNL d   1      33.234  23.015 -24.179  0.00  0.00     0.083 A 
ATOM     14  C   UNL d   1      33.214  22.391 -22.091  0.00  0.00     0.000 C 
ATOM     15  C   UNL d   1      33.203  20.312 -20.747  0.00  0.00     0.021 C 
ATOM     16  C   UNL d   1      33.237  23.702 -24.616  0.00  0.00     0.021 C 
ENDROOT
BRANCH   6  17
ATOM     17  N   UNL d   1      33.230  18.760 -23.197  0.00  0.00    -0.223 NA
BRANCH  17  18
ATOM     18  C   UNL d   1      32.917  18.165 -23.708  0.00  0.00     0.127 C 
BRANCH  18  19
ATOM     19  C   UNL d   1      32.740  17.391 -23.397  0.00  0.00     0.143 C 
BRANCH  19  20
ATOM     20  O   UNL d   1      32.479  16.769 -23.914  0.00  0.00    -0.298 OA
BRANCH  20  21
ATOM     21  C   UNL d   1      31.736  16.373 -23.773  0.00  0.00     0.168 C 
BRANCH  21  22
ATOM     22  C   UNL d   1      31.565  15.636 -24.167  0.00  0.00     0.261 C 
ATOM     23  O   UNL d   1      30.767  15.472 -24.431  0.00  0.00    -0.281 OA
ENDBRANCH  21  22
ENDBRANCH  20  21
ENDBRANCH  19  20
ENDBRANCH  18  19
ENDBRANCH  17  18
ENDBRANCH   6  17
TORSDOF 6
ENDMDL
MODEL 3
REMARK VINA RESULT:      -1.4      1.481      2.523
REMARK  6 active torsions:
REMARK  status: ('A' for Active; 'I' for Inactive)
REMARK    1  A    between atoms: N_14  and  C_6 
REMARK    2  A    between atoms: C_20  and  N_14 
REMARK    3  A    between atoms: O_19  and  C_22 
REMARK    4  A    between atoms: C_23  and  O_19 
REMARK    5  A    between atoms: C_22  and  C_20 
REMARK    6  A    between atoms: C_21  and  C_23 
ROOT
ATOM      1  N   UNL d   1      33.110  19.960 -22.880  0.00  0.00    -0.193 N 
ATOM      2  C   UNL d   1      33.066  19.516 -23.580  0.00  0.00     0.168 A 
ATOM      3  C   UNL d   1      32.979  18.703 -23.553  0.00  0.00     0.073 A 
ATOM      4  C   UNL d   1      32.937  18.336 -22.824  0.00  0.00     0.185 A 
ATOM      5  N   UNL d   1      32.981  18.780 -22.124  0.00  0.00    -0.143 NA
ATOM      6  C   UNL d   1      33.196  20.771 -22.926  0.00  0.00     0.167 A 
ATOM      7  N   UNL d   1      33.109  19.896 -24.307  0.00  0.00    -0.227 NA
ATOM      8  C   UNL d   1      32.935  18.264 -24.246  0.00  0.00     0.007 A 
ATOM      9  N   UNL d   1      32.849  17.514 -22.781  0.00  0.00    -0.225 NA
ATOM     10  C   UNL d   1      33.240  21.151 -23.643  0.00  0.00     0.058 A 
ATOM     11  C   UNL d   1      32.849  17.452 -24.220  0.00  0.00     0.019 A 
ATOM     12  C   UNL d   1      33.195  20.708 -24.343  0.00  0.00     0.086 A 
ATOM     13  C   UNL d   1      32.805  17.070 -23.481  0.00  0.00     0.083 A 
ATOM     14  C   UNL d   1      32.979  18.647 -24.976  0.00  0.00     0.000 C 
ATOM     15  C   UNL d   1      33.241  21.106 -25.097  0.00  0.00     0.021 C 
ATOM     16  C   UNL d   1      32.719  16.261 -23.448  0.00  0.00     0.021 C 
ENDROOT
BRANCH   6  17
ATOM     17  N   UNL d   1      33.241  21.221 -22.199  0.00  0.00    -0.223 NA
BRANCH  17  18
ATOM     18  C   UNL d   1      33.063  21.384 -21.389  0.00  0.00     0.127 C 
BRANCH  18  19
ATOM     19  C   UNL d   1      32.967  22.192 -21.132  0.00  0.00     0.143 C 
BRANCH  19  20
ATOM     20  O   UNL d   1      32.590  22.366 -20.391  0.00  0.00    -0.298 OA
BRANCH  20  21
ATOM     21  C   UNL d   1      33.059  22.558 -19.703  0.00  0.00     0.168 C 
BRANCH  21  22
ATOM     22  C   UNL d   1      32.812  23.189 -19.184  0.00  0.00     0.261 C 
ATOM     23  O   UNL d   1      33.187  23.279 -18.420  0.00  0.00    -0.281 OA
ENDBRANCH  21  22
ENDBRANCH  20  21
ENDBRANCH  19  20
ENDBRANCH  18  19
ENDBRANCH  17  18
ENDBRANCH   6  17
TORSDOF 6
ENDMDL
MODEL 4
REMARK VINA RESULT:      -0.4      0.957      2.431
REMARK  6 active torsions:
REMARK  status: ('A' for Active; 'I' for Inactive)
REMARK    1  A    between atoms: N_14  and  C_6 
REMARK    2  A    between atoms: C_20  and  N_14 
REMARK    3  A    between atoms: O_19  and  C_22 
REMARK    4  A    between atoms: C_23  and  O_19 
REMARK    5  A    between atoms: C_22  and  C_20 
REMARK    6  A    between atoms: C_21  and  C_23 
ROOT
ATOM      1  N   UNL d   1      33.232  21.875 -21.554  0.00  0.00    -0.193 N 
ATOM      2  C   UNL d   1      33.224  21.471 -22.279  0.00  0.00     0.168 A 
ATOM      3  C   UNL d   1      33.223  21.882 -22.986  0.00  0.00     0.073 A 
ATOM      4  C   UNL d   1      33.232  22.699 -22.964  0.00  0.00     0.185 A 
ATOM      5  N   UNL d   1      33.240  23.104 -22.239  0.00  0.00    -0.143 NA
ATOM      6  C   UNL d   1      33.232  21.447 -20.858  0.00  0.00     0.167 A 
ATOM      7  N   UNL d   1      33.216  20.649 -22.287  0.00  0.00    -0.227 NA
ATOM      8  C   UNL d   1      33.215  21.482 -23.703  0.00  0.00     0.007 A 
ATOM      9  N   UNL d   1      33.232  23.130 -23.672  0.00  0.00    -0.225 NA
ATOM     10  C   UNL d   1      33.224  20.634 -20.861  0.00  0.00     0.058 A 
ATOM     11  C   UNL d   1      33.215  21.893 -24.409  0.00  0.00     0.019 A 
ATOM     12  C   UNL d   1      33.216  20.230 -21.586  0.00  0.00     0.086 A 
ATOM     13  C   UNL d   1      33.223  22.726 -24.397  0.00  0.00     0.083 A 
ATOM     14  C   UNL d   1      33.207  20.657 -23.710  0.00  0.00     0.000 C 
ATOM     15  C   UNL d   1      33.207  19.376 -21.592  0.00  0.00     0.021 C 
ATOM     16  C   UNL d   1      33.223  23.141 -25.097  0.00  0.00     0.021 C 
ENDROOT
BRANCH   6  17
ATOM     17  N   UNL d   1      33.241  21.872 -20.115  0.00  0.00    -0.223 NA
BRANCH  17  18
ATOM     18  C   UNL d   1      33.179  22.559 -19.627  0.00  0.00     0.127 C 
BRANCH  18  19
ATOM     19  C   UNL d   1      32.640  22.561 -18.966  0.00  0.00     0.143 C 
BRANCH  19  20
ATOM     20  O   UNL d   1      32.934  22.508 -18.170  0.00  0.00    -0.298 OA
BRANCH  20  21
ATOM     21  C   UNL d   1      32.674  23.064 -17.576  0.00  0.00     0.168 C 
BRANCH  21  22
ATOM     22  C   UNL d   1      32.853  22.921 -16.754  0.00  0.00     0.261 C 
ATOM     23  O   UNL d   1      32.301  23.175 -16.151  0.00  0.00    -0.281 OA
ENDBRANCH  21  22
ENDBRANCH  20  21
ENDBRANCH  19  20
ENDBRANCH  18  19
ENDBRANCH  17  18
ENDBRANCH   6  17
TORSDOF 6
ENDMDL
