MODEL 1
REMARK VINA RESULT:      64.8      0.000      0.000
REMARK  4 active torsions:
REMARK  status: ('A' for Active; 'I' for Inactive)
REMARK    1  A    between atoms: N_7  and  C_1 
REMARK    2  A    between atoms: S_2  and  C_8 
REMARK    3  A    between atoms: C_10  and  S_2 
REMARK       I    between atoms: C_9  and  N_7 
REMARK    4  A    between atoms: C_8  and  C_9 
ROOT
ATOM      1  N   UNL d   1     -49.847  28.154  33.349  0.00  0.00    -0.182 NA
ATOM      2  C   UNL d   1     -49.329  28.347  33.958  0.00  0.00     0.293 C 
ATOM      3  O   UNL d   1     -49.174  27.809  34.566  0.00  0.00    -0.264 OA
ENDROOT
BRANCH   2   4
ATOM      4  C   UNL d   1     -48.956  29.074  33.978  0.00  0.00     0.161 C 
BRANCH   4   5
ATOM      5  S   UNL d   1     -48.505  29.283  34.657  0.00  0.00     0.215 S 
ATOM      6  O   UNL d   1     -48.166  28.519  34.669  0.00  0.00    -0.217 OA
ATOM      7  O   UNL d   1     -48.843  30.038  34.643  0.00  0.00    -0.217 OA
BRANCH   5   8
ATOM      8  C   UNL d   1     -48.058  29.487  35.329  0.00  0.00     0.088 A 
ATOM      9  C   UNL d   1     -47.454  30.043  35.266  0.00  0.00     0.012 A 
ATOM     10  C   UNL d   1     -47.015  30.243  35.928  0.00  0.00     0.012 A 
ATOM     11  C   UNL d   1     -47.180  29.889  36.654  0.00  0.00     0.058 A 
ATOM     12  C   UNL d   1     -47.778  29.337  36.721  0.00  0.00     0.012 A 
ATOM     13 CL   UNL d   1     -46.736  30.093  37.320  0.00  0.00    -0.082 Cl
ATOM     14  C   UNL d   1     -48.220  29.136  36.052  0.00  0.00     0.012 A 
ENDBRANCH   5   8
ENDBRANCH   4   5
ENDBRANCH   2   4
BRANCH   1  15
ATOM     15  C   UNL d   1     -50.203  27.448  33.340  0.00  0.00     0.197 A 
ATOM     16  N   UNL d   1     -49.808  26.704  33.330  0.00  0.00    -0.221 NA
ATOM     17  C   UNL d   1     -50.389  26.105  33.322  0.00  0.00     0.090 A 
ATOM     18  C   UNL d   1     -50.333  25.280  33.312  0.00  0.00     0.018 A 
ATOM     19  C   UNL d   1     -51.138  26.478  33.328  0.00  0.00     0.060 A 
ATOM     20  C   UNL d   1     -51.027  24.818  33.306  0.00  0.00     0.002 A 
ATOM     21  C   UNL d   1     -49.623  24.932  33.306  0.00  0.00     0.002 C 
ATOM     22  C   UNL d   1     -51.790  25.184  33.312  0.00  0.00     0.012 A 
ATOM     23  C   UNL d   1     -51.836  26.017  33.323  0.00  0.00     0.065 A 
ATOM     24 CL   UNL d   1     -52.569  26.386  33.329  0.00  0.00    -0.082 Cl
ATOM     25  S   UNL d   1     -51.013  27.310  33.339  0.00  0.00    -0.046 SA
ENDBRANCH   1  15
TORSDOF 4
ENDMDL
MODEL 2
REMARK VINA RESULT:      65.8      1.275      1.533
REMARK  4 active torsions:
REMARK  status: ('A' for Active; 'I' for Inactive)
REMARK    1  A    between atoms: N_7  and  C_1 
REMARK    2  A    between atoms: S_2  and  C_8 
REMARK    3  A    between atoms: C_10  and  S_2 
REMARK       I    between atoms: C_9  and  N_7 
REMARK    4  A    between atoms: C_8  and  C_9 
ROOT
ATOM      1  N   UNL d   1     -48.495  27.645  34.367  0.00  0.00    -0.182 NA
ATOM      2  C   UNL d   1     -48.465  27.992  35.112  0.00  0.00     0.293 C 
ATOM      3  O   UNL d   1     -49.115  27.955  35.621  0.00  0.00    -0.264 OA
ENDROOT
BRANCH   2   4
ATOM      4  C   UNL d   1     -47.793  28.380  35.368  0.00  0.00     0.161 C 
BRANCH   4   5
ATOM      5  S   UNL d   1     -47.742  29.214  35.273  0.00  0.00     0.215 S 
ATOM      6  O   UNL d   1     -47.153  29.113  34.688  0.00  0.00    -0.217 OA
ATOM      7  O   UNL d   1     -48.325  29.310  35.852  0.00  0.00    -0.217 OA
BRANCH   5   8
ATOM      8  C   UNL d   1     -47.691  30.039  35.177  0.00  0.00     0.088 A 
ATOM      9  C   UNL d   1     -47.960  30.390  34.482  0.00  0.00     0.012 A 
ATOM     10  C   UNL d   1     -47.908  31.202  34.390  0.00  0.00     0.012 A 
ATOM     11  C   UNL d   1     -47.588  31.665  34.992  0.00  0.00     0.058 A 
ATOM     12  C   UNL d   1     -47.320  31.322  35.682  0.00  0.00     0.012 A 
ATOM     13 CL   UNL d   1     -47.537  32.484  34.895  0.00  0.00    -0.082 Cl
ATOM     14  C   UNL d   1     -47.372  30.503  35.774  0.00  0.00     0.012 A 
ENDBRANCH   5   8
ENDBRANCH   4   5
ENDBRANCH   2   4
BRANCH   1  15
ATOM     15  C   UNL d   1     -49.151  27.272  34.130  0.00  0.00     0.197 A 
ATOM     16  N   UNL d   1     -49.211  26.448  33.969  0.00  0.00    -0.221 NA
ATOM     17  C   UNL d   1     -49.997  26.288  33.736  0.00  0.00     0.090 A 
ATOM     18  C   UNL d   1     -50.376  25.588  33.514  0.00  0.00     0.018 A 
ATOM     19  C   UNL d   1     -50.419  27.011  33.753  0.00  0.00     0.060 A 
ATOM     20  C   UNL d   1     -51.184  25.603  33.306  0.00  0.00     0.002 A 
ATOM     21  C   UNL d   1     -49.974  24.907  33.499  0.00  0.00     0.002 C 
ATOM     22  C   UNL d   1     -51.620  26.327  33.319  0.00  0.00     0.012 A 
ATOM     23  C   UNL d   1     -51.228  27.029  33.545  0.00  0.00     0.065 A 
ATOM     24 CL   UNL d   1     -51.639  27.740  33.562  0.00  0.00    -0.082 Cl
ATOM     25  S   UNL d   1     -49.886  27.615  33.998  0.00  0.00    -0.046 SA
ENDBRANCH   1  15
TORSDOF 4
ENDMDL
