MODEL 1
REMARK VINA RESULT:      -6.1      0.000      0.000
REMARK  5 active torsions:
REMARK  status: ('A' for Active; 'I' for Inactive)
REMARK    1  A    between atoms: N_6  and  S_1 
REMARK    2  A    between atoms: C_7  and  S_1 
REMARK    3  A    between atoms: C_9  and  C_2 
REMARK       I    between atoms: N_16  and  C_9 
REMARK    4  A    between atoms: C_26  and  N_16 
REMARK    5  A    between atoms: C_18  and  C_26 
ROOT
ATOM      1  C   UNL d   1     -44.971  13.112  22.249  0.00  0.00     0.158 A 
ATOM      2  C   UNL d   1     -45.628  12.623  22.369  0.00  0.00     0.029 A 
ATOM      3  O   UNL d   1     -45.224  13.890  22.305  0.00  0.00    -0.302 OA
ATOM      4  C   UNL d   1     -46.265  13.114  22.495  0.00  0.00     0.026 A 
ATOM      5  C   UNL d   1     -47.620  13.525  22.757  0.00  0.00     0.104 A 
ATOM      6  C   UNL d   1     -46.027  13.901  22.458  0.00  0.00     0.100 A 
ATOM      7  C   UNL d   1     -47.069  12.923  22.646  0.00  0.00     0.015 A 
ATOM      8  C   UNL d   1     -47.372  14.321  22.717  0.00  0.00     0.015 A 
ATOM      9  C   UNL d   1     -46.577  14.497  22.568  0.00  0.00     0.025 A 
ATOM     10  C   UNL d   1     -45.621  11.799  22.360  0.00  0.00     0.002 C 
ENDROOT
BRANCH   1  11
ATOM     11  C   UNL d   1     -44.232  12.779  22.106  0.00  0.00     0.302 C 
ATOM     12  N   UNL d   1     -43.683  13.184  21.641  0.00  0.00    -0.203 NA
ATOM     13  O   UNL d   1     -44.029  12.047  22.417  0.00  0.00    -0.263 OA
BRANCH  12  14
ATOM     14  C   UNL d   1     -42.938  12.858  21.490  0.00  0.00     0.129 C 
BRANCH  14  15
ATOM     15  C   UNL d   1     -42.360  13.293  21.075  0.00  0.00     0.144 A 
ATOM     16  O   UNL d   1     -41.763  13.699  21.494  0.00  0.00    -0.301 OA
ATOM     17  C   UNL d   1     -41.196  14.125  21.083  0.00  0.00     0.123 A 
ATOM     18  C   UNL d   1     -40.599  14.533  21.487  0.00  0.00     0.027 A 
ATOM     19  C   UNL d   1     -41.209  14.157  20.262  0.00  0.00     0.123 A 
ATOM     20  C   UNL d   1     -40.026  14.963  21.084  0.00  0.00     0.002 A 
ATOM     21  C   UNL d   1     -40.053  14.985  20.256  0.00  0.00     0.002 A 
ATOM     22  C   UNL d   1     -40.639  14.585  19.844  0.00  0.00     0.027 A 
ATOM     23  O   UNL d   1     -41.811  13.745  19.855  0.00  0.00    -0.301 OA
ATOM     24  C   UNL d   1     -42.381  13.318  20.251  0.00  0.00     0.149 A 
ENDBRANCH  14  15
ENDBRANCH  12  14
ENDBRANCH   1  11
BRANCH   5  25
ATOM     25  S   UNL d   1     -48.414  13.336  22.906  0.00  0.00     0.272 S 
ATOM     26  O   UNL d   1     -48.227  13.176  23.698  0.00  0.00    -0.200 OA
ATOM     27  O   UNL d   1     -48.606  13.496  22.104  0.00  0.00    -0.200 OA
BRANCH  25  28
ATOM     28  N   UNL d   1     -49.217  13.144  23.058  0.00  0.00    -0.225 N 
ATOM     29  C   UNL d   1     -49.491  12.398  22.853  0.00  0.00     0.118 A 
ATOM     30  C   UNL d   1     -50.280  12.196  22.997  0.00  0.00     0.142 A 
ATOM     31  O   UNL d   1     -50.799  12.764  23.357  0.00  0.00    -0.300 OA
ATOM     32  C   UNL d   1     -50.505  13.509  23.557  0.00  0.00     0.142 A 
ATOM     33  C   UNL d   1     -49.717  13.696  23.407  0.00  0.00     0.118 A 
ENDBRANCH  25  28
ENDBRANCH   5  25
TORSDOF 5
ENDMDL
MODEL 2
REMARK VINA RESULT:      -4.5      2.478      7.584
REMARK  5 active torsions:
REMARK  status: ('A' for Active; 'I' for Inactive)
REMARK    1  A    between atoms: N_6  and  S_1 
REMARK    2  A    between atoms: C_7  and  S_1 
REMARK    3  A    between atoms: C_9  and  C_2 
REMARK       I    between atoms: N_16  and  C_9 
REMARK    4  A    between atoms: C_26  and  N_16 
REMARK    5  A    between atoms: C_18  and  C_26 
ROOT
ATOM      1  C   UNL d   1     -42.376  13.718  21.253  0.00  0.00     0.158 A 
ATOM      2  C   UNL d   1     -41.932  13.608  20.563  0.00  0.00     0.029 A 
ATOM      3  O   UNL d   1     -42.170  14.444  21.572  0.00  0.00    -0.302 OA
ATOM      4  C   UNL d   1     -41.466  14.270  20.478  0.00  0.00     0.026 A 
ATOM      5  C   UNL d   1     -40.497  15.174  19.913  0.00  0.00     0.104 A 
ATOM      6  C   UNL d   1     -41.604  14.795  21.096  0.00  0.00     0.100 A 
ATOM      7  C   UNL d   1     -40.907  14.461  19.880  0.00  0.00     0.015 A 
ATOM      8  C   UNL d   1     -40.642  15.701  20.544  0.00  0.00     0.015 A 
ATOM      9  C   UNL d   1     -41.195  15.503  21.127  0.00  0.00     0.025 A 
ATOM     10  C   UNL d   1     -41.968  12.950  20.069  0.00  0.00     0.002 C 
ENDROOT
BRANCH   1  11
ATOM     11  C   UNL d   1     -42.909  13.138  21.495  0.00  0.00     0.302 C 
ATOM     12  N   UNL d   1     -43.688  13.346  21.674  0.00  0.00    -0.203 NA
ATOM     13  O   UNL d   1     -42.680  12.354  21.562  0.00  0.00    -0.263 OA
BRANCH  12  14
ATOM     14  C   UNL d   1     -44.230  12.771  21.917  0.00  0.00     0.129 C 
BRANCH  14  15
ATOM     15  C   UNL d   1     -44.984  12.991  22.199  0.00  0.00     0.144 A 
ATOM     16  O   UNL d   1     -45.424  12.461  22.671  0.00  0.00    -0.301 OA
ATOM     17  C   UNL d   1     -46.164  12.680  22.947  0.00  0.00     0.123 A 
ATOM     18  C   UNL d   1     -46.610  12.163  23.415  0.00  0.00     0.027 A 
ATOM     19  C   UNL d   1     -46.478  13.417  22.763  0.00  0.00     0.123 A 
ATOM     20  C   UNL d   1     -47.353  12.373  23.697  0.00  0.00     0.002 A 
ATOM     21  C   UNL d   1     -47.656  13.120  23.502  0.00  0.00     0.002 A 
ATOM     22  C   UNL d   1     -47.224  13.641  23.039  0.00  0.00     0.027 A 
ATOM     23  O   UNL d   1     -46.028  13.937  22.290  0.00  0.00    -0.301 OA
ATOM     24  C   UNL d   1     -45.291  13.733  22.009  0.00  0.00     0.149 A 
ENDBRANCH  14  15
ENDBRANCH  12  14
ENDBRANCH   1  11
BRANCH   5  25
ATOM     25  S   UNL d   1     -39.946  15.361  19.323  0.00  0.00     0.272 S 
ATOM     26  O   UNL d   1     -39.384  14.878  19.695  0.00  0.00    -0.200 OA
ATOM     27  O   UNL d   1     -40.513  15.851  18.944  0.00  0.00    -0.200 OA
BRANCH  25  28
ATOM     28  N   UNL d   1     -39.387  15.549  18.725  0.00  0.00    -0.225 N 
ATOM     29  C   UNL d   1     -38.612  15.709  18.945  0.00  0.00     0.118 A 
ATOM     30  C   UNL d   1     -38.051  15.896  18.367  0.00  0.00     0.142 A 
ATOM     31  O   UNL d   1     -38.283  15.921  17.550  0.00  0.00    -0.300 OA
ATOM     32  C   UNL d   1     -39.068  15.758  17.349  0.00  0.00     0.142 A 
ATOM     33  C   UNL d   1     -39.614  15.573  17.936  0.00  0.00     0.118 A 
ENDBRANCH  25  28
ENDBRANCH   5  25
TORSDOF 5
ENDMDL
