MODEL 1
REMARK VINA RESULT:      49.9      0.000      0.000
REMARK  5 active torsions:
REMARK  status: ('A' for Active; 'I' for Inactive)
REMARK    1  A    between atoms: C_5  and  C_1 
REMARK    2  A    between atoms: O_8  and  C_5 
REMARK    3  A    between atoms: C_15  and  O_8 
REMARK       I    between atoms: C_9  and  N_11 
REMARK    4  A    between atoms: N_11  and  C_16 
REMARK    5  A    between atoms: O_21  and  C_13 
ROOT
ATOM      1  C   UNL d   1     -50.800  26.191  33.489  0.00  0.00     0.127 A 
ATOM      2  C   UNL d   1     -51.608  26.016  33.473  0.00  0.00     0.305 A 
ATOM      3  O   UNL d   1     -51.858  25.224  33.422  0.00  0.00    -0.271 OA
ATOM      4  C   UNL d   1     -50.244  25.582  33.455  0.00  0.00     0.013 A 
ATOM      5  C   UNL d   1     -51.303  24.614  33.389  0.00  0.00     0.125 A 
ATOM      6  C   UNL d   1     -50.497  24.798  33.405  0.00  0.00     0.025 A 
ATOM      7  O   UNL d   1     -52.169  26.615  33.506  0.00  0.00    -0.259 OA
ATOM      8  C   UNL d   1     -51.554  23.840  33.339  0.00  0.00     0.117 A 
ATOM      9  C   UNL d   1     -49.937  24.189  33.372  0.00  0.00     0.002 A 
ATOM     10  C   UNL d   1     -50.195  23.409  33.322  0.00  0.00     0.002 A 
ATOM     11  C   UNL d   1     -51.004  23.234  33.306  0.00  0.00     0.026 A 
ENDROOT
BRANCH   1  12
ATOM     12  C   UNL d   1     -50.556  26.977  33.539  0.00  0.00     0.305 C 
ATOM     13  O   UNL d   1     -51.073  27.578  33.306  0.00  0.00    -0.259 OA
BRANCH  12  14
ATOM     14  O   UNL d   1     -49.801  27.162  33.820  0.00  0.00    -0.273 OA
BRANCH  14  15
ATOM     15  C   UNL d   1     -49.314  27.609  34.318  0.00  0.00     0.103 A 
ATOM     16  C   UNL d   1     -49.076  27.293  35.035  0.00  0.00     0.026 A 
ATOM     17  C   UNL d   1     -48.590  27.736  35.535  0.00  0.00     0.021 A 
ATOM     18  C   UNL d   1     -48.347  28.495  35.304  0.00  0.00     0.085 A 
ATOM     19  C   UNL d   1     -48.592  28.800  34.582  0.00  0.00     0.021 A 
ATOM     20  C   UNL d   1     -49.074  28.361  34.087  0.00  0.00     0.026 A 
BRANCH  18  21
ATOM     21  N   UNL d   1     -47.861  28.938  35.804  0.00  0.00    -0.208 NA
ATOM     22  C   UNL d   1     -47.661  29.712  35.601  0.00  0.00     0.279 C 
ATOM     23  O   UNL d   1     -47.949  30.043  34.898  0.00  0.00    -0.265 OA
ATOM     24  C   UNL d   1     -47.175  30.158  36.098  0.00  0.00     0.068 C 
ENDBRANCH  18  21
ENDBRANCH  14  15
ENDBRANCH  12  14
ENDBRANCH   1  12
BRANCH   8  25
ATOM     25  O   UNL d   1     -52.354  23.672  33.323  0.00  0.00    -0.326 OA
ATOM     26  C   UNL d   1     -52.843  23.915  33.941  0.00  0.00     0.181 C 
ENDBRANCH   8  25
TORSDOF 5
ENDMDL
