MODEL 1
REMARK VINA RESULT:     -10.2      0.000      0.000
REMARK  6 active torsions:
REMARK  status: ('A' for Active; 'I' for Inactive)
REMARK    1  A    between atoms: S_9  and  C_3 
REMARK    2  A    between atoms: C_11  and  C_4 
REMARK    3  A    between atoms: C_20  and  S_9 
REMARK    4  A    between atoms: C_12  and  C_20 
REMARK       I    between atoms: N_17  and  C_12 
REMARK    5  A    between atoms: C_25  and  N_17 
REMARK    6  A    between atoms: C_24  and  C_25 
ROOT
ATOM      1  N   UNL d   1      53.064  31.637  53.307  0.00  0.00    -0.263 N 
ATOM      2  C   UNL d   1      52.942  30.861  53.063  0.00  0.00     0.202 A 
ATOM      3  C   UNL d   1      52.465  32.101  52.984  0.00  0.00     0.202 A 
ATOM      4  C   UNL d   1      53.739  31.648  53.780  0.00  0.00     0.074 A 
ATOM      5  N   UNL d   1      52.275  30.838  52.593  0.00  0.00    -0.121 NA
ATOM      6  N   UNL d   1      51.970  31.604  52.537  0.00  0.00    -0.121 NA
ATOM      7  S   UNL d   1      53.540  30.393  53.384  0.00  0.00    -0.046 SA
ATOM      8  C   UNL d   1      54.032  30.874  53.826  0.00  0.00     0.056 A 
ENDROOT
BRANCH   3   9
ATOM      9  S   UNL d   1      52.438  32.912  53.131  0.00  0.00    -0.043 SA
BRANCH   9  10
ATOM     10  C   UNL d   1      52.022  33.417  52.624  0.00  0.00     0.101 C 
BRANCH  10  11
ATOM     11  C   UNL d   1      51.525  33.995  52.936  0.00  0.00     0.286 C 
ATOM     12  N   UNL d   1      50.774  34.119  52.603  0.00  0.00    -0.206 NA
ATOM     13  O   UNL d   1      51.774  34.448  53.578  0.00  0.00    -0.265 OA
BRANCH  12  14
ATOM     14  C   UNL d   1      50.272  34.699  52.915  0.00  0.00     0.102 C 
BRANCH  14  15
ATOM     15  C   UNL d   1      49.558  34.885  52.529  0.00  0.00     0.021 A 
ATOM     16  C   UNL d   1      48.994  35.381  52.878  0.00  0.00     0.028 A 
ATOM     17  C   UNL d   1      48.300  35.551  52.482  0.00  0.00     0.119 A 
ATOM     18  O   UNL d   1      47.651  36.010  52.676  0.00  0.00    -0.300 OA
ATOM     19  C   UNL d   1      48.163  35.231  51.739  0.00  0.00     0.119 A 
ATOM     20  C   UNL d   1      47.119  35.984  52.078  0.00  0.00     0.304 A 
ATOM     21  O   UNL d   1      47.433  35.496  51.485  0.00  0.00    -0.300 OA
ATOM     22  C   UNL d   1      48.722  34.742  51.397  0.00  0.00     0.026 A 
ATOM     23  C   UNL d   1      49.426  34.571  51.802  0.00  0.00     0.004 A 
ENDBRANCH  14  15
ENDBRANCH  12  14
ENDBRANCH  10  11
ENDBRANCH   9  10
ENDBRANCH   3   9
BRANCH   4  24
ATOM     24  C   UNL d   1      54.096  32.289  54.160  0.00  0.00     0.017 A 
ATOM     25  C   UNL d   1      54.650  32.747  53.768  0.00  0.00     0.002 A 
ATOM     26  C   UNL d   1      55.006  33.382  54.143  0.00  0.00     0.011 A 
ATOM     27  C   UNL d   1      54.800  33.560  54.929  0.00  0.00     0.058 A 
ATOM     28  C   UNL d   1      54.241  33.099  55.327  0.00  0.00     0.011 A 
ATOM     29 CL   UNL d   1      55.152  34.200  55.318  0.00  0.00    -0.082 Cl
ATOM     30  C   UNL d   1      53.888  32.461  54.941  0.00  0.00     0.002 A 
ENDBRANCH   4  24
TORSDOF 6
ENDMDL
MODEL 2
REMARK VINA RESULT:     -10.2      1.690      2.320
REMARK  6 active torsions:
REMARK  status: ('A' for Active; 'I' for Inactive)
REMARK    1  A    between atoms: S_9  and  C_3 
REMARK    2  A    between atoms: C_11  and  C_4 
REMARK    3  A    between atoms: C_20  and  S_9 
REMARK    4  A    between atoms: C_12  and  C_20 
REMARK       I    between atoms: N_17  and  C_12 
REMARK    5  A    between atoms: C_25  and  N_17 
REMARK    6  A    between atoms: C_24  and  C_25 
ROOT
ATOM      1  N   UNL d   1      53.653  33.768  54.484  0.00  0.00    -0.263 N 
ATOM      2  C   UNL d   1      54.042  34.221  55.050  0.00  0.00     0.202 A 
ATOM      3  C   UNL d   1      53.130  34.261  54.081  0.00  0.00     0.202 A 
ATOM      4  C   UNL d   1      53.938  32.997  54.540  0.00  0.00     0.074 A 
ATOM      5  N   UNL d   1      53.767  34.988  55.004  0.00  0.00    -0.121 NA
ATOM      6  N   UNL d   1      53.200  35.024  54.404  0.00  0.00    -0.121 NA
ATOM      7  S   UNL d   1      54.567  33.730  55.456  0.00  0.00    -0.046 SA
ATOM      8  C   UNL d   1      54.506  32.977  55.145  0.00  0.00     0.056 A 
ENDROOT
BRANCH   3   9
ATOM      9  S   UNL d   1      52.657  33.963  53.475  0.00  0.00    -0.043 SA
BRANCH   9  10
ATOM     10  C   UNL d   1      52.237  34.477  52.979  0.00  0.00     0.101 C 
BRANCH  10  11
ATOM     11  C   UNL d   1      51.571  34.207  52.578  0.00  0.00     0.286 C 
ATOM     12  N   UNL d   1      50.823  34.520  52.762  0.00  0.00    -0.206 NA
ATOM     13  O   UNL d   1      51.647  33.628  51.997  0.00  0.00    -0.265 OA
BRANCH  12  14
ATOM     14  C   UNL d   1      50.151  34.250  52.359  0.00  0.00     0.102 C 
BRANCH  14  15
ATOM     15  C   UNL d   1      49.456  34.710  52.353  0.00  0.00     0.021 A 
ATOM     16  C   UNL d   1      49.224  35.150  53.016  0.00  0.00     0.028 A 
ATOM     17  C   UNL d   1      48.539  35.595  52.990  0.00  0.00     0.119 A 
ATOM     18  O   UNL d   1      48.171  36.076  53.540  0.00  0.00    -0.300 OA
ATOM     19  C   UNL d   1      48.082  35.605  52.307  0.00  0.00     0.119 A 
ATOM     20  C   UNL d   1      47.504  36.382  53.220  0.00  0.00     0.304 A 
ATOM     21  O   UNL d   1      47.440  36.092  52.446  0.00  0.00    -0.300 OA
ATOM     22  C   UNL d   1      48.315  35.170  51.656  0.00  0.00     0.026 A 
ATOM     23  C   UNL d   1      49.011  34.719  51.686  0.00  0.00     0.004 A 
ENDBRANCH  14  15
ENDBRANCH  12  14
ENDBRANCH  10  11
ENDBRANCH   9  10
ENDBRANCH   3   9
BRANCH   4  24
ATOM     24  C   UNL d   1      53.728  32.331  54.097  0.00  0.00     0.017 A 
ATOM     25  C   UNL d   1      54.124  32.155  53.403  0.00  0.00     0.002 A 
ATOM     26  C   UNL d   1      53.917  31.496  52.962  0.00  0.00     0.011 A 
ATOM     27  C   UNL d   1      53.300  31.004  53.226  0.00  0.00     0.058 A 
ATOM     28  C   UNL d   1      52.900  31.181  53.928  0.00  0.00     0.011 A 
ATOM     29 CL   UNL d   1      53.083  30.336  52.790  0.00  0.00    -0.082 Cl
ATOM     30  C   UNL d   1      53.115  31.847  54.364  0.00  0.00     0.002 A 
ENDBRANCH   4  24
TORSDOF 6
ENDMDL
MODEL 3
REMARK VINA RESULT:      -7.2      3.141      5.630
REMARK  6 active torsions:
REMARK  status: ('A' for Active; 'I' for Inactive)
REMARK    1  A    between atoms: S_9  and  C_3 
REMARK    2  A    between atoms: C_11  and  C_4 
REMARK    3  A    between atoms: C_20  and  S_9 
REMARK    4  A    between atoms: C_12  and  C_20 
REMARK       I    between atoms: N_17  and  C_12 
REMARK    5  A    between atoms: C_25  and  N_17 
REMARK    6  A    between atoms: C_24  and  C_25 
ROOT
ATOM      1  N   UNL d   1      53.300  34.868  54.545  0.00  0.00    -0.263 N 
ATOM      2  C   UNL d   1      53.472  35.434  55.116  0.00  0.00     0.202 A 
ATOM      3  C   UNL d   1      53.886  34.290  54.577  0.00  0.00     0.202 A 
ATOM      4  C   UNL d   1      52.607  35.100  54.162  0.00  0.00     0.074 A 
ATOM      5  N   UNL d   1      54.156  35.216  55.502  0.00  0.00    -0.121 NA
ATOM      6  N   UNL d   1      54.423  34.505  55.175  0.00  0.00    -0.121 NA
ATOM      7  S   UNL d   1      52.886  36.016  55.087  0.00  0.00    -0.046 SA
ATOM      8  C   UNL d   1      52.354  35.813  54.501  0.00  0.00     0.056 A 
ENDROOT
BRANCH   3   9
ATOM      9  S   UNL d   1      53.864  33.643  54.066  0.00  0.00    -0.043 SA
BRANCH   9  10
ATOM     10  C   UNL d   1      54.467  33.076  54.081  0.00  0.00     0.101 C 
BRANCH  10  11
ATOM     11  C   UNL d   1      54.441  32.435  53.566  0.00  0.00     0.286 C 
ATOM     12  N   UNL d   1      53.978  31.771  53.754  0.00  0.00    -0.206 NA
ATOM     13  O   UNL d   1      54.874  32.453  52.865  0.00  0.00    -0.265 OA
BRANCH  12  14
ATOM     14  C   UNL d   1      53.950  31.124  53.236  0.00  0.00     0.102 C 
BRANCH  14  15
ATOM     15  C   UNL d   1      53.570  30.421  53.469  0.00  0.00     0.021 A 
ATOM     16  C   UNL d   1      53.862  29.956  54.089  0.00  0.00     0.028 A 
ATOM     17  C   UNL d   1      53.474  29.269  54.302  0.00  0.00     0.119 A 
ATOM     18  O   UNL d   1      53.622  28.707  54.876  0.00  0.00    -0.300 OA
ATOM     19  C   UNL d   1      52.795  29.041  53.900  0.00  0.00     0.119 A 
ATOM     20  C   UNL d   1      53.058  28.139  54.843  0.00  0.00     0.304 A 
ATOM     21  O   UNL d   1      52.534  28.341  54.232  0.00  0.00    -0.300 OA
ATOM     22  C   UNL d   1      52.510  29.502  53.289  0.00  0.00     0.026 A 
ATOM     23  C   UNL d   1      52.906  30.199  53.075  0.00  0.00     0.004 A 
ENDBRANCH  14  15
ENDBRANCH  12  14
ENDBRANCH  10  11
ENDBRANCH   9  10
ENDBRANCH   3   9
BRANCH   4  24
ATOM     24  C   UNL d   1      52.202  34.723  53.547  0.00  0.00     0.017 A 
ATOM     25  C   UNL d   1      52.416  34.855  52.769  0.00  0.00     0.002 A 
ATOM     26  C   UNL d   1      52.017  34.484  52.158  0.00  0.00     0.011 A 
ATOM     27  C   UNL d   1      51.388  33.968  52.335  0.00  0.00     0.058 A 
ATOM     28  C   UNL d   1      51.170  33.834  53.122  0.00  0.00     0.011 A 
ATOM     29 CL   UNL d   1      50.977  33.587  51.727  0.00  0.00    -0.082 Cl
ATOM     30  C   UNL d   1      51.579  34.213  53.729  0.00  0.00     0.002 A 
ENDBRANCH   4  24
TORSDOF 6
ENDMDL
