MODEL 1
REMARK VINA RESULT:      60.2      0.000      0.000
REMARK  5 active torsions:
REMARK  status: ('A' for Active; 'I' for Inactive)
REMARK    1  A    between atoms: C_2  and  S_1 
REMARK    2  A    between atoms: N_3  and  S_1 
REMARK    3  A    between atoms: C_5  and  N_3 
REMARK    4  A    between atoms: C_14  and  C_9 
REMARK    5  A    between atoms: O_18  and  C_10 
ROOT
ATOM      1  C   UNL d   1     -50.975  26.037  33.764  0.00  0.00     0.128 A 
ATOM      2  C   UNL d   1     -50.377  25.464  33.730  0.00  0.00     0.015 A 
ATOM      3  C   UNL d   1     -50.559  24.693  33.500  0.00  0.00     0.001 A 
ATOM      4  C   UNL d   1     -51.753  25.829  33.567  0.00  0.00     0.106 A 
ATOM      5  C   UNL d   1     -51.328  24.491  33.306  0.00  0.00     0.002 A 
ATOM      6  C   UNL d   1     -51.928  25.056  33.339  0.00  0.00     0.025 A 
ENDROOT
BRANCH   1   7
ATOM      7  S   UNL d   1     -50.800  26.810  33.993  0.00  0.00     0.288 S 
ATOM      8  O   UNL d   1     -50.441  26.525  34.679  0.00  0.00    -0.198 OA
ATOM      9  O   UNL d   1     -51.161  27.087  33.306  0.00  0.00    -0.198 OA
BRANCH   7  10
ATOM     10  N   UNL d   1     -50.629  27.585  34.216  0.00  0.00    -0.139 NA
BRANCH  10  11
ATOM     11  C   UNL d   1     -49.859  27.783  34.433  0.00  0.00     0.175 A 
ATOM     12  N   UNL d   1     -49.297  27.953  33.854  0.00  0.00    -0.224 NA
ATOM     13  C   UNL d   1     -48.531  28.150  34.064  0.00  0.00     0.112 A 
ATOM     14  C   UNL d   1     -48.314  28.181  34.860  0.00  0.00     0.077 A 
ATOM     15  C   UNL d   1     -48.876  28.011  35.440  0.00  0.00     0.016 A 
ATOM     16 CL   UNL d   1     -47.548  28.378  35.076  0.00  0.00    -0.081 Cl
ATOM     17  C   UNL d   1     -49.645  27.812  35.233  0.00  0.00     0.041 A 
ENDBRANCH  10  11
ENDBRANCH   7  10
ENDBRANCH   1   7
BRANCH   4  18
ATOM     18  O   UNL d   1     -52.345  26.395  33.602  0.00  0.00    -0.327 OA
ATOM     19  C   UNL d   1     -53.115  26.203  33.375  0.00  0.00     0.181 C 
ENDBRANCH   4  18
BRANCH   3  20
ATOM     20  C   UNL d   1     -49.956  24.124  33.467  0.00  0.00     0.000 C 
ATOM     21  C   UNL d   1     -49.171  24.355  33.398  0.00  0.00     0.000 C 
ATOM     22  C   UNL d   1     -50.148  23.323  33.504  0.00  0.00     0.000 C 
ENDBRANCH   3  20
TORSDOF 5
ENDMDL
MODEL 2
REMARK VINA RESULT:      62.2      1.050      2.306
REMARK  5 active torsions:
REMARK  status: ('A' for Active; 'I' for Inactive)
REMARK    1  A    between atoms: C_2  and  S_1 
REMARK    2  A    between atoms: N_3  and  S_1 
REMARK    3  A    between atoms: C_5  and  N_3 
REMARK    4  A    between atoms: C_14  and  C_9 
REMARK    5  A    between atoms: O_18  and  C_10 
ROOT
ATOM      1  C   UNL d   1     -50.495  26.674  33.376  0.00  0.00     0.128 A 
ATOM      2  C   UNL d   1     -51.296  26.887  33.369  0.00  0.00     0.015 A 
ATOM      3  C   UNL d   1     -51.876  26.301  33.334  0.00  0.00     0.001 A 
ATOM      4  C   UNL d   1     -50.283  25.873  33.349  0.00  0.00     0.106 A 
ATOM      5  C   UNL d   1     -51.664  25.512  33.306  0.00  0.00     0.002 A 
ATOM      6  C   UNL d   1     -50.869  25.292  33.314  0.00  0.00     0.025 A 
ENDROOT
BRANCH   1   7
ATOM      7  S   UNL d   1     -49.909  27.254  33.411  0.00  0.00     0.288 S 
ATOM      8  O   UNL d   1     -50.482  27.838  33.306  0.00  0.00    -0.198 OA
ATOM      9  O   UNL d   1     -49.343  26.664  33.516  0.00  0.00    -0.198 OA
BRANCH   7  10
ATOM     10  N   UNL d   1     -49.319  27.828  33.447  0.00  0.00    -0.139 NA
BRANCH  10  11
ATOM     11  C   UNL d   1     -49.030  28.067  34.181  0.00  0.00     0.175 A 
ATOM     12  N   UNL d   1     -49.505  28.007  34.851  0.00  0.00    -0.224 NA
ATOM     13  C   UNL d   1     -49.224  28.242  35.583  0.00  0.00     0.112 A 
ATOM     14  C   UNL d   1     -48.458  28.543  35.655  0.00  0.00     0.077 A 
ATOM     15  C   UNL d   1     -47.982  28.603  34.984  0.00  0.00     0.016 A 
ATOM     16 CL   UNL d   1     -48.171  28.780  36.386  0.00  0.00    -0.081 Cl
ATOM     17  C   UNL d   1     -48.261  28.368  34.249  0.00  0.00     0.041 A 
ENDBRANCH  10  11
ENDBRANCH   7  10
ENDBRANCH   1   7
BRANCH   4  18
ATOM     18  O   UNL d   1     -49.492  25.662  33.356  0.00  0.00    -0.327 OA
ATOM     19  C   UNL d   1     -49.272  24.882  33.514  0.00  0.00     0.181 C 
ENDBRANCH   4  18
BRANCH   3  20
ATOM     20  C   UNL d   1     -52.676  26.520  33.326  0.00  0.00     0.000 C 
ATOM     21  C   UNL d   1     -53.264  25.946  33.327  0.00  0.00     0.000 C 
ATOM     22  C   UNL d   1     -52.881  27.319  33.319  0.00  0.00     0.000 C 
ENDBRANCH   3  20
TORSDOF 5
ENDMDL
