MODEL 1
REMARK VINA RESULT:      -8.7      0.000      0.000
REMARK  5 active torsions:
REMARK  status: ('A' for Active; 'I' for Inactive)
REMARK    1  A    between atoms: C_10  and  N_3 
REMARK    2  A    between atoms: C_12  and  N_6 
REMARK    3  A    between atoms: C_11  and  C_10 
REMARK    4  A    between atoms: O_18  and  C_11 
REMARK    5  A    between atoms: C_23  and  O_18 
ROOT
ATOM      1  C   UNL d   1      52.441  32.642  53.108  0.00  0.00     0.172 A 
ATOM      2  C   UNL d   1      53.176  32.599  53.482  0.00  0.00     0.113 A 
ATOM      3  N   UNL d   1      53.208  31.190  53.256  0.00  0.00    -0.252 N 
ATOM      4  C   UNL d   1      53.559  31.878  53.556  0.00  0.00     0.271 A 
ATOM      5  N   UNL d   1      52.090  31.963  52.810  0.00  0.00    -0.206 NA
ATOM      6  N   UNL d   1      52.203  33.437  53.121  0.00  0.00    -0.212 N 
ATOM      7  N   UNL d   1      52.788  33.867  53.498  0.00  0.00    -0.162 NA
ATOM      8  C   UNL d   1      52.473  31.233  52.883  0.00  0.00     0.187 A 
ATOM      9  C   UNL d   1      53.378  33.368  53.718  0.00  0.00     0.129 A 
ATOM     10  O   UNL d   1      54.293  31.835  53.929  0.00  0.00    -0.266 OA
ENDROOT
BRANCH   3  11
ATOM     11  C   UNL d   1      53.591  30.452  53.328  0.00  0.00     0.132 C 
ATOM     12  C   UNL d   1      54.362  30.364  53.048  0.00  0.00     0.025 C 
BRANCH  11  13
ATOM     13  C   UNL d   1      53.197  29.811  53.680  0.00  0.00     0.317 C 
ATOM     14  O   UNL d   1      52.624  29.406  53.260  0.00  0.00    -0.257 OA
BRANCH  13  15
ATOM     15  O   UNL d   1      53.393  29.595  54.452  0.00  0.00    -0.270 OA
BRANCH  15  16
ATOM     16  C   UNL d   1      53.246  28.816  54.702  0.00  0.00     0.126 C 
ATOM     17  C   UNL d   1      53.337  28.634  55.494  0.00  0.00     0.029 C 
ENDBRANCH  15  16
ENDBRANCH  13  15
ENDBRANCH  11  13
ENDBRANCH   3  11
BRANCH   6  18
ATOM     18  C   UNL d   1      51.521  33.769  52.825  0.00  0.00     0.085 A 
ATOM     19  C   UNL d   1      50.847  33.823  53.300  0.00  0.00     0.020 A 
ATOM     20  C   UNL d   1      50.160  34.160  52.998  0.00  0.00     0.013 A 
ATOM     21  C   UNL d   1      50.128  34.443  52.238  0.00  0.00     0.058 A 
ATOM     22  C   UNL d   1      50.814  34.389  51.752  0.00  0.00     0.013 A 
ATOM     23 CL   UNL d   1      49.418  34.783  51.948  0.00  0.00    -0.082 Cl
ATOM     24  C   UNL d   1      51.502  34.056  52.043  0.00  0.00     0.020 A 
ENDBRANCH   6  18
TORSDOF 5
ENDMDL
MODEL 2
REMARK VINA RESULT:      -7.5      2.350      4.607
REMARK  5 active torsions:
REMARK  status: ('A' for Active; 'I' for Inactive)
REMARK    1  A    between atoms: C_10  and  N_3 
REMARK    2  A    between atoms: C_12  and  N_6 
REMARK    3  A    between atoms: C_11  and  C_10 
REMARK    4  A    between atoms: O_18  and  C_11 
REMARK    5  A    between atoms: C_23  and  O_18 
ROOT
ATOM      1  C   UNL d   1      52.877  32.347  53.459  0.00  0.00     0.172 A 
ATOM      2  C   UNL d   1      53.225  33.086  53.347  0.00  0.00     0.113 A 
ATOM      3  N   UNL d   1      51.937  33.659  53.122  0.00  0.00    -0.252 N 
ATOM      4  C   UNL d   1      52.759  33.740  53.180  0.00  0.00     0.271 A 
ATOM      5  N   UNL d   1      52.063  32.261  53.403  0.00  0.00    -0.206 NA
ATOM      6  N   UNL d   1      53.487  31.807  53.618  0.00  0.00    -0.212 N 
ATOM      7  N   UNL d   1      54.194  32.218  53.601  0.00  0.00    -0.162 NA
ATOM      8  C   UNL d   1      51.589  32.919  53.234  0.00  0.00     0.187 A 
ATOM      9  C   UNL d   1      54.044  32.990  53.439  0.00  0.00     0.129 A 
ATOM     10  O   UNL d   1      53.107  34.480  53.068  0.00  0.00    -0.266 OA
ENDROOT
BRANCH   3  11
ATOM     11  C   UNL d   1      51.456  34.319  52.952  0.00  0.00     0.132 C 
ATOM     12  C   UNL d   1      51.481  34.979  53.446  0.00  0.00     0.025 C 
BRANCH  11  13
ATOM     13  C   UNL d   1      50.956  34.310  52.288  0.00  0.00     0.317 C 
ATOM     14  O   UNL d   1      51.276  34.256  51.539  0.00  0.00    -0.257 OA
BRANCH  13  15
ATOM     15  O   UNL d   1      50.140  34.355  52.402  0.00  0.00    -0.270 OA
BRANCH  15  16
ATOM     16  C   UNL d   1      49.652  34.537  51.754  0.00  0.00     0.126 C 
ATOM     17  C   UNL d   1      48.846  34.602  51.875  0.00  0.00     0.029 C 
ENDBRANCH  15  16
ENDBRANCH  13  15
ENDBRANCH  11  13
ENDBRANCH   3  11
BRANCH   6  18
ATOM     18  C   UNL d   1      53.435  31.008  53.767  0.00  0.00     0.085 A 
ATOM     19  C   UNL d   1      53.431  30.733  54.546  0.00  0.00     0.020 A 
ATOM     20  C   UNL d   1      53.378  29.925  54.694  0.00  0.00     0.013 A 
ATOM     21  C   UNL d   1      53.330  29.388  54.087  0.00  0.00     0.058 A 
ATOM     22  C   UNL d   1      53.334  29.666  53.292  0.00  0.00     0.013 A 
ATOM     23 CL   UNL d   1      53.277  28.568  54.258  0.00  0.00    -0.082 Cl
ATOM     24  C   UNL d   1      53.386  30.467  53.135  0.00  0.00     0.020 A 
ENDBRANCH   6  18
TORSDOF 5
ENDMDL
MODEL 3
REMARK VINA RESULT:      -7.0      1.739      2.008
REMARK  5 active torsions:
REMARK  status: ('A' for Active; 'I' for Inactive)
REMARK    1  A    between atoms: C_10  and  N_3 
REMARK    2  A    between atoms: C_12  and  N_6 
REMARK    3  A    between atoms: C_11  and  C_10 
REMARK    4  A    between atoms: O_18  and  C_11 
REMARK    5  A    between atoms: C_23  and  O_18 
ROOT
ATOM      1  C   UNL d   1      53.507  32.601  53.638  0.00  0.00     0.172 A 
ATOM      2  C   UNL d   1      54.105  32.088  53.395  0.00  0.00     0.113 A 
ATOM      3  N   UNL d   1      53.151  31.034  53.270  0.00  0.00    -0.252 N 
ATOM      4  C   UNL d   1      53.930  31.308  53.211  0.00  0.00     0.271 A 
ATOM      5  N   UNL d   1      52.733  32.335  53.698  0.00  0.00    -0.206 NA
ATOM      6  N   UNL d   1      53.857  33.340  53.780  0.00  0.00    -0.212 N 
ATOM      7  N   UNL d   1      54.657  33.272  53.624  0.00  0.00    -0.162 NA
ATOM      8  C   UNL d   1      52.552  31.548  53.514  0.00  0.00     0.187 A 
ATOM      9  C   UNL d   1      54.814  32.519  53.391  0.00  0.00     0.129 A 
ATOM     10  O   UNL d   1      54.528  30.795  52.968  0.00  0.00    -0.266 OA
ENDROOT
BRANCH   3  11
ATOM     11  C   UNL d   1      52.964  30.242  53.085  0.00  0.00     0.132 C 
ATOM     12  C   UNL d   1      53.048  29.975  52.309  0.00  0.00     0.025 C 
BRANCH  11  13
ATOM     13  C   UNL d   1      52.695  29.728  53.680  0.00  0.00     0.317 C 
ATOM     14  O   UNL d   1      51.893  29.609  53.783  0.00  0.00    -0.257 OA
BRANCH  13  15
ATOM     15  O   UNL d   1      53.248  29.346  54.159  0.00  0.00    -0.270 OA
BRANCH  15  16
ATOM     16  C   UNL d   1      52.984  28.780  54.707  0.00  0.00     0.126 C 
ATOM     17  C   UNL d   1      53.535  28.408  55.185  0.00  0.00     0.029 C 
ENDBRANCH  15  16
ENDBRANCH  13  15
ENDBRANCH  11  13
ENDBRANCH   3  11
BRANCH   6  18
ATOM     18  C   UNL d   1      53.506  34.031  54.030  0.00  0.00     0.085 A 
ATOM     19  C   UNL d   1      53.542  34.249  54.826  0.00  0.00     0.020 A 
ATOM     20  C   UNL d   1      53.187  34.948  55.075  0.00  0.00     0.013 A 
ATOM     21  C   UNL d   1      52.797  35.432  54.553  0.00  0.00     0.058 A 
ATOM     22  C   UNL d   1      52.759  35.212  53.741  0.00  0.00     0.013 A 
ATOM     23 CL   UNL d   1      52.441  36.141  54.826  0.00  0.00    -0.082 Cl
ATOM     24  C   UNL d   1      53.109  34.519  53.483  0.00  0.00     0.020 A 
ENDBRANCH   6  18
TORSDOF 5
ENDMDL
MODEL 4
REMARK VINA RESULT:      -6.4      2.704      4.932
REMARK  5 active torsions:
REMARK  status: ('A' for Active; 'I' for Inactive)
REMARK    1  A    between atoms: C_10  and  N_3 
REMARK    2  A    between atoms: C_12  and  N_6 
REMARK    3  A    between atoms: C_11  and  C_10 
REMARK    4  A    between atoms: O_18  and  C_11 
REMARK    5  A    between atoms: C_23  and  O_18 
ROOT
ATOM      1  C   UNL d   1      52.344  33.451  53.521  0.00  0.00     0.172 A 
ATOM      2  C   UNL d   1      51.740  32.960  53.249  0.00  0.00     0.113 A 
ATOM      3  N   UNL d   1      50.992  34.105  52.843  0.00  0.00    -0.252 N 
ATOM      4  C   UNL d   1      51.066  33.283  52.911  0.00  0.00     0.271 A 
ATOM      5  N   UNL d   1      52.275  34.266  53.455  0.00  0.00    -0.206 NA
ATOM      6  N   UNL d   1      52.941  32.963  53.828  0.00  0.00    -0.212 N 
ATOM      7  N   UNL d   1      52.698  32.187  53.742  0.00  0.00    -0.162 NA
ATOM      8  C   UNL d   1      51.596  34.596  53.115  0.00  0.00     0.187 A 
ATOM      9  C   UNL d   1      51.974  32.177  53.393  0.00  0.00     0.129 A 
ATOM     10  O   UNL d   1      50.462  32.792  52.640  0.00  0.00    -0.266 OA
ENDROOT
BRANCH   3  11
ATOM     11  C   UNL d   1      50.309  34.442  52.500  0.00  0.00     0.132 C 
ATOM     12  C   UNL d   1      50.127  34.280  51.712  0.00  0.00     0.025 C 
BRANCH  11  13
ATOM     13  C   UNL d   1      49.818  34.937  52.952  0.00  0.00     0.317 C 
ATOM     14  O   UNL d   1      50.105  35.280  53.635  0.00  0.00    -0.257 OA
BRANCH  13  15
ATOM     15  O   UNL d   1      49.045  35.073  52.698  0.00  0.00    -0.270 OA
BRANCH  15  16
ATOM     16  C   UNL d   1      48.586  35.643  53.092  0.00  0.00     0.126 C 
ATOM     17  C   UNL d   1      47.855  35.842  52.783  0.00  0.00     0.029 C 
ENDBRANCH  15  16
ENDBRANCH  13  15
ENDBRANCH  11  13
ENDBRANCH   3  11
BRANCH   6  18
ATOM     18  C   UNL d   1      53.652  33.176  54.163  0.00  0.00     0.085 A 
ATOM     19  C   UNL d   1      53.682  33.418  54.952  0.00  0.00     0.020 A 
ATOM     20  C   UNL d   1      54.402  33.633  55.287  0.00  0.00     0.013 A 
ATOM     21  C   UNL d   1      55.090  33.613  54.857  0.00  0.00     0.058 A 
ATOM     22  C   UNL d   1      55.062  33.366  54.052  0.00  0.00     0.013 A 
ATOM     23 CL   UNL d   1      55.815  33.835  55.216  0.00  0.00    -0.082 Cl
ATOM     24  C   UNL d   1      54.351  33.151  53.710  0.00  0.00     0.020 A 
ENDBRANCH   6  18
TORSDOF 5
ENDMDL
MODEL 5
REMARK VINA RESULT:      -6.4      3.988      6.274
REMARK  5 active torsions:
REMARK  status: ('A' for Active; 'I' for Inactive)
REMARK    1  A    between atoms: C_10  and  N_3 
REMARK    2  A    between atoms: C_12  and  N_6 
REMARK    3  A    between atoms: C_11  and  C_10 
REMARK    4  A    between atoms: O_18  and  C_11 
REMARK    5  A    between atoms: C_23  and  O_18 
ROOT
ATOM      1  C   UNL d   1      49.510  34.874  52.638  0.00  0.00     0.172 A 
ATOM      2  C   UNL d   1      48.933  34.935  52.052  0.00  0.00     0.113 A 
ATOM      3  N   UNL d   1      48.149  35.762  52.911  0.00  0.00    -0.252 N 
ATOM      4  C   UNL d   1      48.255  35.377  52.186  0.00  0.00     0.271 A 
ATOM      5  N   UNL d   1      49.410  35.254  53.358  0.00  0.00    -0.206 NA
ATOM      6  N   UNL d   1      50.119  34.396  52.337  0.00  0.00    -0.212 N 
ATOM      7  N   UNL d   1      49.909  34.172  51.579  0.00  0.00    -0.162 NA
ATOM      8  C   UNL d   1      48.727  35.701  53.497  0.00  0.00     0.187 A 
ATOM      9  C   UNL d   1      49.195  34.494  51.400  0.00  0.00     0.129 A 
ATOM     10  O   UNL d   1      47.678  35.438  51.600  0.00  0.00    -0.266 OA
ENDROOT
BRANCH   3  11
ATOM     11  C   UNL d   1      47.462  36.214  53.055  0.00  0.00     0.132 C 
ATOM     12  C   UNL d   1      47.169  36.709  52.464  0.00  0.00     0.025 C 
BRANCH  11  13
ATOM     13  C   UNL d   1      47.078  36.164  53.790  0.00  0.00     0.317 C 
ATOM     14  O   UNL d   1      47.383  36.561  54.436  0.00  0.00    -0.257 OA
BRANCH  13  15
ATOM     15  O   UNL d   1      46.391  35.711  53.852  0.00  0.00    -0.270 OA
BRANCH  15  16
ATOM     16  C   UNL d   1      45.902  35.810  54.516  0.00  0.00     0.126 C 
ATOM     17  C   UNL d   1      45.237  35.339  54.588  0.00  0.00     0.029 C 
ENDBRANCH  15  16
ENDBRANCH  13  15
ENDBRANCH  11  13
ENDBRANCH   3  11
BRANCH   6  18
ATOM     18  C   UNL d   1      50.813  34.167  52.697  0.00  0.00     0.085 A 
ATOM     19  C   UNL d   1      51.502  34.608  52.582  0.00  0.00     0.020 A 
ATOM     20  C   UNL d   1      52.202  34.374  52.947  0.00  0.00     0.013 A 
ATOM     21  C   UNL d   1      52.231  33.715  53.421  0.00  0.00     0.058 A 
ATOM     22  C   UNL d   1      51.529  33.265  53.539  0.00  0.00     0.013 A 
ATOM     23 CL   UNL d   1      52.954  33.493  53.785  0.00  0.00    -0.082 Cl
ATOM     24  C   UNL d   1      50.828  33.489  53.181  0.00  0.00     0.020 A 
ENDBRANCH   6  18
TORSDOF 5
ENDMDL
