MODEL 1
REMARK VINA RESULT:     167.3      0.000      0.000
REMARK  6 active torsions:
REMARK  status: ('A' for Active; 'I' for Inactive)
REMARK    1  A    between atoms: C_6  and  N_1 
REMARK    2  A    between atoms: C_13  and  C_6 
REMARK    3  A    between atoms: C_8  and  C_9 
REMARK    4  A    between atoms: C_16  and  C_13 
REMARK    5  A    between atoms: O_14  and  C_16 
REMARK    6  A    between atoms: C_15  and  O_14 
ROOT
ATOM      1  C   UNL d   1     -56.459-102.187 -41.233  0.00  0.00     0.237 C 
ATOM      2  O   UNL d   1     -56.625-102.459 -42.003  0.00  0.00    -0.283 OA
ENDROOT
BRANCH   1   3
ATOM      3  C   UNL d   1     -57.056-101.820 -40.787  0.00  0.00     0.117 C 
BRANCH   3   4
ATOM      4  N   UNL d   1     -57.031-101.841 -39.960  0.00  0.00    -0.344 N 
ATOM      5  C   UNL d   1     -57.689-101.584 -39.518  0.00  0.00     0.086 A 
ATOM      6  C   UNL d   1     -57.665-101.603 -38.696  0.00  0.00     0.035 A 
ATOM      7  C   UNL d   1     -58.342-101.328 -39.084  0.00  0.00     0.027 C 
ATOM      8  C   UNL d   1     -57.715-101.563 -40.344  0.00  0.00     0.027 C 
ATOM      9  C   UNL d   1     -56.987-101.879 -38.304  0.00  0.00     0.191 A 
ATOM     10  C   UNL d   1     -56.330-102.136 -38.746  0.00  0.00     0.035 A 
ATOM     11  O   UNL d   1     -56.963-101.899 -37.481  0.00  0.00    -0.287 OA
ATOM     12  C   UNL d   1     -56.357-102.115 -39.577  0.00  0.00     0.086 A 
ATOM     13  C   UNL d   1     -56.380-102.095 -40.399  0.00  0.00     0.027 C 
ATOM     14  C   UNL d   1     -55.683-102.389 -39.191  0.00  0.00     0.027 C 
ENDBRANCH   3   4
ENDBRANCH   1   3
BRANCH   1  15
ATOM     15  C   UNL d   1     -55.713-102.278 -40.911  0.00  0.00     0.166 C 
BRANCH  15  16
ATOM     16  O   UNL d   1     -55.097-101.769 -41.133  0.00  0.00    -0.302 OA
BRANCH  16  17
ATOM     17  C   UNL d   1     -55.178-101.273 -41.803  0.00  0.00     0.100 A 
ATOM     18  C   UNL d   1     -55.720-101.458 -42.397  0.00  0.00     0.025 A 
ATOM     19  C   UNL d   1     -55.795-100.968 -43.053  0.00  0.00     0.005 A 
ATOM     20  C   UNL d   1     -55.331-100.289 -43.121  0.00  0.00     0.039 A 
ATOM     21  C   UNL d   1     -54.787-100.103 -42.524  0.00  0.00     0.005 A 
ATOM     22  C   UNL d   1     -54.712-100.598 -41.865  0.00  0.00     0.025 A 
BRANCH  20  23
ATOM     23  C   UNL d   1     -55.414 -99.804 -43.781  0.00  0.00     0.196 C 
ATOM     24  O   UNL d   1     -56.113 -99.803 -44.219  0.00  0.00    -0.287 OA
ATOM     25  C   UNL d   1     -54.786 -99.313 -44.004  0.00  0.00     0.045 C 
ENDBRANCH  20  23
ENDBRANCH  16  17
ENDBRANCH  15  16
ENDBRANCH   1  15
TORSDOF 6
ENDMDL
