MODEL 1
REMARK VINA RESULT:      41.9      0.000      0.000
REMARK  5 active torsions:
REMARK  status: ('A' for Active; 'I' for Inactive)
REMARK    1  A    between atoms: C_2  and  C_1 
REMARK       I    between atoms: N_5  and  C_2 
REMARK    2  A    between atoms: C_10  and  N_5 
REMARK    3  A    between atoms: C_11  and  C_6 
REMARK    4  A    between atoms: S_9  and  C_11 
REMARK    5  A    between atoms: C_13  and  S_9 
ROOT
ATOM      1  C   UNL d   1      13.321  13.209  -3.933  0.00  0.00     0.158 A 
ATOM      2  O   UNL d   1      14.030  13.629  -3.919  0.00  0.00    -0.302 OA
ATOM      3  C   UNL d   1      12.769  13.642  -3.491  0.00  0.00     0.032 A 
ATOM      4  C   UNL d   1      13.923  14.308  -3.479  0.00  0.00     0.107 A 
ATOM      5  C   UNL d   1      13.141  14.322  -3.210  0.00  0.00     0.027 A 
ENDROOT
BRANCH   1   6
ATOM      6  C   UNL d   1      13.178  12.489  -4.313  0.00  0.00     0.302 C 
ATOM      7  N   UNL d   1      13.255  11.779  -3.905  0.00  0.00    -0.206 NA
ATOM      8  O   UNL d   1      12.957  12.491  -5.104  0.00  0.00    -0.263 OA
BRANCH   7   9
ATOM      9  C   UNL d   1      13.478  11.785  -3.104  0.00  0.00     0.085 A 
ATOM     10  C   UNL d   1      12.908  11.779  -2.519  0.00  0.00     0.021 A 
ATOM     11  C   UNL d   1      13.118  11.785  -1.730  0.00  0.00     0.031 A 
ATOM     12  C   UNL d   1      13.924  11.796  -1.516  0.00  0.00     0.140 A 
ATOM     13  C   UNL d   1      14.498  11.802  -2.106  0.00  0.00     0.031 A 
ATOM     14  F   UNL d   1      14.143  11.802  -0.728  0.00  0.00    -0.204 F 
ATOM     15  C   UNL d   1      14.279  11.796  -2.902  0.00  0.00     0.021 A 
ENDBRANCH   7   9
ENDBRANCH   1   6
BRANCH   4  16
ATOM     16  C   UNL d   1      14.491  14.889  -3.322  0.00  0.00     0.060 C 
BRANCH  16  17
ATOM     17  S   UNL d   1      14.723  15.036  -2.547  0.00  0.00    -0.084 SA
BRANCH  17  18
ATOM     18  C   UNL d   1      14.881  15.802  -2.297  0.00  0.00     0.029 A 
ATOM     19  C   UNL d   1      14.967  16.408  -2.845  0.00  0.00     0.006 A 
ATOM     20  C   UNL d   1      15.126  17.174  -2.596  0.00  0.00     0.001 A 
ATOM     21  C   UNL d   1      15.199  17.330  -1.785  0.00  0.00     0.000 A 
ATOM     22  C   UNL d   1      15.112  16.720  -1.239  0.00  0.00     0.001 A 
ATOM     23  C   UNL d   1      14.953  15.954  -1.489  0.00  0.00     0.006 A 
ENDBRANCH  17  18
ENDBRANCH  16  17
ENDBRANCH   4  16
TORSDOF 5
ENDMDL
MODEL 2
REMARK VINA RESULT:      44.0      9.548     10.310
REMARK  5 active torsions:
REMARK  status: ('A' for Active; 'I' for Inactive)
REMARK    1  A    between atoms: C_2  and  C_1 
REMARK       I    between atoms: N_5  and  C_2 
REMARK    2  A    between atoms: C_10  and  N_5 
REMARK    3  A    between atoms: C_11  and  C_6 
REMARK    4  A    between atoms: S_9  and  C_11 
REMARK    5  A    between atoms: C_13  and  S_9 
ROOT
ATOM      1  C   UNL d   1      24.200  12.778  -1.359  0.00  0.00     0.158 A 
ATOM      2  O   UNL d   1      24.160  12.994  -2.154  0.00  0.00    -0.302 OA
ATOM      3  C   UNL d   1      24.547  12.026  -1.324  0.00  0.00     0.032 A 
ATOM      4  C   UNL d   1      24.476  12.390  -2.604  0.00  0.00     0.107 A 
ATOM      5  C   UNL d   1      24.718  11.786  -2.094  0.00  0.00     0.027 A 
ENDROOT
BRANCH   1   6
ATOM      6  C   UNL d   1      23.943  13.222  -0.711  0.00  0.00     0.302 C 
ATOM      7  N   UNL d   1      23.171  13.506  -0.679  0.00  0.00    -0.206 NA
ATOM      8  O   UNL d   1      24.467  13.378  -0.098  0.00  0.00    -0.263 OA
BRANCH   7   9
ATOM      9  C   UNL d   1      22.646  13.345  -1.303  0.00  0.00     0.085 A 
ATOM     10  C   UNL d   1      22.341  13.956  -1.752  0.00  0.00     0.021 A 
ATOM     11  C   UNL d   1      21.825  13.808  -2.366  0.00  0.00     0.031 A 
ATOM     12  C   UNL d   1      21.603  13.023  -2.540  0.00  0.00     0.140 A 
ATOM     13  C   UNL d   1      21.909  12.407  -2.088  0.00  0.00     0.031 A 
ATOM     14  F   UNL d   1      21.086  12.865  -3.154  0.00  0.00    -0.204 F 
ATOM     15  C   UNL d   1      22.432  12.565  -1.467  0.00  0.00     0.021 A 
ENDBRANCH   7   9
ENDBRANCH   1   6
BRANCH   4  16
ATOM     16  C   UNL d   1      24.546  12.375  -3.428  0.00  0.00     0.060 C 
BRANCH  16  17
ATOM     17  S   UNL d   1      24.746  13.062  -3.835  0.00  0.00    -0.084 SA
BRANCH  17  18
ATOM     18  C   UNL d   1      24.645  13.111  -4.647  0.00  0.00     0.029 A 
ATOM     19  C   UNL d   1      24.724  12.440  -5.116  0.00  0.00     0.006 A 
ATOM     20  C   UNL d   1      24.623  12.488  -5.930  0.00  0.00     0.001 A 
ATOM     21  C   UNL d   1      24.440  13.219  -6.274  0.00  0.00     0.000 A 
ATOM     22  C   UNL d   1      24.361  13.889  -5.801  0.00  0.00     0.001 A 
ATOM     23  C   UNL d   1      24.463  13.840  -4.987  0.00  0.00     0.006 A 
ENDBRANCH  17  18
ENDBRANCH  16  17
ENDBRANCH   4  16
TORSDOF 5
ENDMDL
