MODEL 1
REMARK VINA RESULT:      28.2      0.000      0.000
REMARK  4 active torsions:
REMARK  status: ('A' for Active; 'I' for Inactive)
REMARK    1  A    between atoms: N_7  and  C_1 
REMARK    2  A    between atoms: C_8  and  C_4 
REMARK    3  A    between atoms: C_10  and  N_7 
REMARK    4  A    between atoms: C_12  and  C_8 
ROOT
ATOM      1  C   UNL d   1      46.142 -17.842  44.209  0.00  0.00     0.184 A 
ATOM      2  N   UNL d   1      46.157 -17.434  43.486  0.00  0.00    -0.129 NA
ATOM      3  N   UNL d   1      46.324 -17.841  42.786  0.00  0.00    -0.147 NA
ATOM      4  C   UNL d   1      46.476 -18.643  42.800  0.00  0.00     0.103 A 
ATOM      5  C   UNL d   1      46.296 -18.650  44.214  0.00  0.00     0.039 A 
ATOM      6  C   UNL d   1      46.463 -19.057  43.514  0.00  0.00     0.022 A 
ATOM      7  C   UNL d   1      46.279 -19.053  44.946  0.00  0.00     0.003 A 
ATOM      8  C   UNL d   1      46.616 -19.873  43.537  0.00  0.00     0.002 A 
ATOM      9  C   UNL d   1      46.600 -20.268  44.251  0.00  0.00     0.000 A 
ATOM     10  C   UNL d   1      46.432 -19.861  44.951  0.00  0.00     0.000 A 
ENDROOT
BRANCH   1  11
ATOM     11  N   UNL d   1      45.977 -17.440  44.900  0.00  0.00    -0.225 NA
BRANCH  11  12
ATOM     12  C   UNL d   1      45.780 -16.647  44.880  0.00  0.00     0.083 A 
ATOM     13  C   UNL d   1      46.368 -16.075  44.820  0.00  0.00     0.020 A 
ATOM     14  C   UNL d   1      46.169 -15.287  44.800  0.00  0.00     0.013 A 
ATOM     15  C   UNL d   1      45.386 -15.044  44.839  0.00  0.00     0.058 A 
ATOM     16  C   UNL d   1      44.795 -15.619  44.899  0.00  0.00     0.013 A 
ATOM     17 CL   UNL d   1      45.177 -14.265  44.820  0.00  0.00    -0.082 Cl
ATOM     18  C   UNL d   1      44.988 -16.423  44.920  0.00  0.00     0.020 A 
ENDBRANCH  11  12
ENDBRANCH   1  11
BRANCH   4  19
ATOM     19  C   UNL d   1      46.643 -19.050  42.100  0.00  0.00     0.021 C 
BRANCH  19  20
ATOM     20  C   UNL d   1      46.230 -18.864  41.405  0.00  0.00     0.005 A 
ATOM     21  C   UNL d   1      45.418 -18.945  41.383  0.00  0.00     0.021 A 
ATOM     22  C   UNL d   1      45.013 -18.760  40.693  0.00  0.00     0.099 A 
ATOM     23  N   UNL d   1      45.423 -18.495  40.031  0.00  0.00    -0.242 NA
ATOM     24  C   UNL d   1      46.240 -18.415  40.056  0.00  0.00     0.099 A 
ATOM     25  C   UNL d   1      46.643 -18.604  40.757  0.00  0.00     0.021 A 
ENDBRANCH  19  20
ENDBRANCH   4  19
TORSDOF 4
ENDMDL
