MODEL 1
REMARK VINA RESULT:      -7.8      0.000      0.000
REMARK  3 active torsions:
REMARK  status: ('A' for Active; 'I' for Inactive)
REMARK    1  A    between atoms: C_10  and  N_1 
REMARK    2  A    between atoms: C_11  and  C_14 
REMARK    3  A    between atoms: O_20  and  C_11 
ROOT
ATOM      1  N   UNL d   1      53.148  32.343  53.741  0.00  0.00    -0.242 N 
ATOM      2  C   UNL d   1      52.887  31.936  53.093  0.00  0.00     0.267 A 
ATOM      3  C   UNL d   1      53.409  31.824  54.325  0.00  0.00     0.267 A 
ATOM      4  C   UNL d   1      52.985  31.124  53.268  0.00  0.00     0.061 A 
ATOM      5  C   UNL d   1      53.302  31.056  54.016  0.00  0.00     0.061 A 
ATOM      6  C   UNL d   1      53.462  30.311  54.341  0.00  0.00     0.005 A 
ATOM      7  C   UNL d   1      52.817  30.449  52.822  0.00  0.00     0.005 A 
ATOM      8  C   UNL d   1      53.292  29.645  53.892  0.00  0.00     0.000 A 
ATOM      9  C   UNL d   1      52.975  29.713  53.144  0.00  0.00     0.000 A 
ATOM     10  O   UNL d   1      52.587  32.289  52.409  0.00  0.00    -0.267 OA
ATOM     11  O   UNL d   1      53.723  32.018  55.083  0.00  0.00    -0.267 OA
ATOM     12  C   UNL d   1      53.458  28.880  54.232  0.00  0.00     0.000 C 
ATOM     13  C   UNL d   1      52.798  29.021  52.675  0.00  0.00     0.000 C 
ENDROOT
BRANCH   1  14
ATOM     14  C   UNL d   1      53.180  33.153  53.876  0.00  0.00     0.070 A 
ATOM     15  C   UNL d   1      52.480  33.594  53.936  0.00  0.00     0.018 A 
ATOM     16  C   UNL d   1      52.498  34.401  54.070  0.00  0.00     0.007 A 
ATOM     17  C   UNL d   1      53.230  34.766  54.145  0.00  0.00     0.063 A 
ATOM     18  C   UNL d   1      53.936  34.330  54.086  0.00  0.00     0.007 A 
ATOM     19  C   UNL d   1      53.894  33.525  53.951  0.00  0.00     0.018 A 
BRANCH  17  20
ATOM     20  C   UNL d   1      53.266  35.598  54.283  0.00  0.00     0.296 C 
ATOM     21  O   UNL d   1      53.731  36.071  53.819  0.00  0.00    -0.259 OA
BRANCH  20  22
ATOM     22  O   UNL d   1      52.821  35.913  54.896  0.00  0.00    -0.296 OA
ATOM     23  C   UNL d   1      52.883  36.709  55.075  0.00  0.00     0.185 C 
ENDBRANCH  20  22
ENDBRANCH  17  20
ENDBRANCH   1  14
TORSDOF 3
ENDMDL
MODEL 2
REMARK VINA RESULT:      -7.8      3.787      5.647
REMARK  3 active torsions:
REMARK  status: ('A' for Active; 'I' for Inactive)
REMARK    1  A    between atoms: C_10  and  N_1 
REMARK    2  A    between atoms: C_11  and  C_14 
REMARK    3  A    between atoms: O_20  and  C_11 
ROOT
ATOM      1  N   UNL d   1      49.726  34.623  52.490  0.00  0.00    -0.242 N 
ATOM      2  C   UNL d   1      49.222  34.575  51.860  0.00  0.00     0.267 A 
ATOM      3  C   UNL d   1      49.436  35.148  53.055  0.00  0.00     0.267 A 
ATOM      4  C   UNL d   1      48.584  35.088  52.026  0.00  0.00     0.061 A 
ATOM      5  C   UNL d   1      48.714  35.436  52.751  0.00  0.00     0.061 A 
ATOM      6  C   UNL d   1      48.169  35.977  53.064  0.00  0.00     0.005 A 
ATOM      7  C   UNL d   1      47.906  35.269  51.590  0.00  0.00     0.005 A 
ATOM      8  C   UNL d   1      47.497  36.151  52.625  0.00  0.00     0.000 A 
ATOM      9  C   UNL d   1      47.368  35.803  51.900  0.00  0.00     0.000 A 
ATOM     10  O   UNL d   1      49.348  34.097  51.196  0.00  0.00    -0.267 OA
ATOM     11  O   UNL d   1      49.788  35.359  53.791  0.00  0.00    -0.267 OA
ATOM     12  C   UNL d   1      46.939  36.708  52.953  0.00  0.00     0.000 C 
ATOM     13  C   UNL d   1      46.670  35.983  51.442  0.00  0.00     0.000 C 
ENDROOT
BRANCH   1  14
ATOM     14  C   UNL d   1      50.440  34.240  52.624  0.00  0.00     0.070 A 
ATOM     15  C   UNL d   1      50.468  33.570  53.114  0.00  0.00     0.018 A 
ATOM     16  C   UNL d   1      51.173  33.179  53.256  0.00  0.00     0.007 A 
ATOM     17  C   UNL d   1      51.855  33.466  52.900  0.00  0.00     0.063 A 
ATOM     18  C   UNL d   1      51.835  34.136  52.408  0.00  0.00     0.007 A 
ATOM     19  C   UNL d   1      51.120  34.512  52.280  0.00  0.00     0.018 A 
BRANCH  17  20
ATOM     20  C   UNL d   1      52.591  33.073  53.037  0.00  0.00     0.296 C 
ATOM     21  O   UNL d   1      52.817  32.453  52.568  0.00  0.00    -0.259 OA
BRANCH  20  22
ATOM     22  O   UNL d   1      53.066  33.333  53.653  0.00  0.00    -0.296 OA
ATOM     23  C   UNL d   1      53.782  32.964  53.796  0.00  0.00     0.185 C 
ENDBRANCH  20  22
ENDBRANCH  17  20
ENDBRANCH   1  14
TORSDOF 3
ENDMDL
MODEL 3
REMARK VINA RESULT:      -7.5      3.019      4.769
REMARK  3 active torsions:
REMARK  status: ('A' for Active; 'I' for Inactive)
REMARK    1  A    between atoms: C_10  and  N_1 
REMARK    2  A    between atoms: C_11  and  C_14 
REMARK    3  A    between atoms: O_20  and  C_11 
ROOT
ATOM      1  N   UNL d   1      50.860  34.331  52.777  0.00  0.00    -0.242 N 
ATOM      2  C   UNL d   1      50.281  34.751  53.155  0.00  0.00     0.267 A 
ATOM      3  C   UNL d   1      50.629  34.141  52.009  0.00  0.00     0.267 A 
ATOM      4  C   UNL d   1      49.654  34.833  52.609  0.00  0.00     0.061 A 
ATOM      5  C   UNL d   1      49.865  34.464  51.914  0.00  0.00     0.061 A 
ATOM      6  C   UNL d   1      49.349  34.455  51.265  0.00  0.00     0.005 A 
ATOM      7  C   UNL d   1      48.920  35.206  52.678  0.00  0.00     0.005 A 
ATOM      8  C   UNL d   1      48.621  34.828  51.342  0.00  0.00     0.000 A 
ATOM      9  C   UNL d   1      48.410  35.198  52.037  0.00  0.00     0.000 A 
ATOM     10  O   UNL d   1      50.336  35.027  53.932  0.00  0.00    -0.267 OA
ATOM     11  O   UNL d   1      51.066  33.711  51.432  0.00  0.00    -0.267 OA
ATOM     12  C   UNL d   1      48.093  34.816  50.672  0.00  0.00     0.000 C 
ATOM     13  C   UNL d   1      47.654  35.586  52.119  0.00  0.00     0.000 C 
ENDROOT
BRANCH   1  14
ATOM     14  C   UNL d   1      51.597  34.089  53.049  0.00  0.00     0.070 A 
ATOM     15  C   UNL d   1      51.702  33.320  53.341  0.00  0.00     0.018 A 
ATOM     16  C   UNL d   1      52.430  33.066  53.615  0.00  0.00     0.007 A 
ATOM     17  C   UNL d   1      53.059  33.595  53.592  0.00  0.00     0.063 A 
ATOM     18  C   UNL d   1      52.962  34.367  53.300  0.00  0.00     0.007 A 
ATOM     19  C   UNL d   1      52.225  34.599  53.032  0.00  0.00     0.018 A 
BRANCH  17  20
ATOM     20  C   UNL d   1      53.818  33.348  53.870  0.00  0.00     0.296 C 
ATOM     21  O   UNL d   1      54.305  32.908  53.396  0.00  0.00    -0.259 OA
BRANCH  20  22
ATOM     22  O   UNL d   1      54.046  33.563  54.628  0.00  0.00    -0.296 OA
ATOM     23  C   UNL d   1      54.789  33.356  54.901  0.00  0.00     0.185 C 
ENDBRANCH  20  22
ENDBRANCH  17  20
ENDBRANCH   1  14
TORSDOF 3
ENDMDL
MODEL 4
REMARK VINA RESULT:      -6.3      1.301      4.658
REMARK  3 active torsions:
REMARK  status: ('A' for Active; 'I' for Inactive)
REMARK    1  A    between atoms: C_10  and  N_1 
REMARK    2  A    between atoms: C_11  and  C_14 
REMARK    3  A    between atoms: O_20  and  C_11 
ROOT
ATOM      1  N   UNL d   1      53.074  32.209  53.698  0.00  0.00    -0.242 N 
ATOM      2  C   UNL d   1      52.789  32.659  53.090  0.00  0.00     0.267 A 
ATOM      3  C   UNL d   1      53.329  32.687  54.319  0.00  0.00     0.267 A 
ATOM      4  C   UNL d   1      52.864  33.456  53.330  0.00  0.00     0.061 A 
ATOM      5  C   UNL d   1      53.192  33.473  54.076  0.00  0.00     0.061 A 
ATOM      6  C   UNL d   1      53.333  34.194  54.459  0.00  0.00     0.005 A 
ATOM      7  C   UNL d   1      52.667  34.160  52.944  0.00  0.00     0.005 A 
ATOM      8  C   UNL d   1      53.134  34.889  54.069  0.00  0.00     0.000 A 
ATOM      9  C   UNL d   1      52.806  34.872  53.323  0.00  0.00     0.000 A 
ATOM     10  O   UNL d   1      52.489  32.354  52.383  0.00  0.00    -0.267 OA
ATOM     11  O   UNL d   1      53.662  32.441  55.053  0.00  0.00    -0.267 OA
ATOM     12  C   UNL d   1      53.282  35.628  54.469  0.00  0.00     0.000 C 
ATOM     13  C   UNL d   1      52.599  35.593  52.916  0.00  0.00     0.000 C 
ENDROOT
BRANCH   1  14
ATOM     14  C   UNL d   1      53.135  31.392  53.765  0.00  0.00     0.070 A 
ATOM     15  C   UNL d   1      52.459  30.935  53.913  0.00  0.00     0.018 A 
ATOM     16  C   UNL d   1      52.505  30.121  53.982  0.00  0.00     0.007 A 
ATOM     17  C   UNL d   1      53.242  29.765  53.900  0.00  0.00     0.063 A 
ATOM     18  C   UNL d   1      53.924  30.218  53.752  0.00  0.00     0.007 A 
ATOM     19  C   UNL d   1      53.854  31.029  53.687  0.00  0.00     0.018 A 
BRANCH  17  20
ATOM     20  C   UNL d   1      53.306  28.926  53.969  0.00  0.00     0.296 C 
ATOM     21  O   UNL d   1      53.041  28.445  53.373  0.00  0.00    -0.259 OA
BRANCH  20  22
ATOM     22  O   UNL d   1      53.642  28.612  54.648  0.00  0.00    -0.296 OA
ATOM     23  C   UNL d   1      53.568  27.813  54.805  0.00  0.00     0.185 C 
ENDBRANCH  20  22
ENDBRANCH  17  20
ENDBRANCH   1  14
TORSDOF 3
ENDMDL
