MODEL 1
REMARK VINA RESULT:      -8.3      0.000      0.000
REMARK  1 active torsions:
REMARK  status: ('A' for Active; 'I' for Inactive)
REMARK    1  A    between atoms: O_15  and  C_11 
ROOT
ATOM      1  C   UNL d   1     -47.184  12.622  22.996  0.00  0.00     0.139 A 
ATOM      2  N   UNL d   1     -47.729  11.991  22.874  0.00  0.00    -0.241 NA
ATOM      3  C   UNL d   1     -47.513  13.298  22.673  0.00  0.00     0.025 A 
ATOM      4  C   UNL d   1     -48.251  13.111  22.351  0.00  0.00     0.021 A 
ATOM      5  C   UNL d   1     -48.375  12.309  22.478  0.00  0.00     0.082 A 
ATOM      6  C   UNL d   1     -46.424  12.635  23.371  0.00  0.00     0.297 A 
ATOM      7  N   UNL d   1     -46.012  13.345  23.408  0.00  0.00    -0.205 NA
ATOM      8  C   UNL d   1     -48.819  13.554  21.964  0.00  0.00     0.026 A 
ATOM      9  O   UNL d   1     -46.099  11.932  23.698  0.00  0.00    -0.264 OA
ATOM     10  C   UNL d   1     -49.066  11.946  22.220  0.00  0.00     0.021 A 
ATOM     11  C   UNL d   1     -49.514  13.189  21.705  0.00  0.00     0.094 A 
ATOM     12  C   UNL d   1     -47.078  14.033  22.716  0.00  0.00     0.022 A 
ATOM     13  C   UNL d   1     -46.337  14.048  23.081  0.00  0.00     0.102 A 
ATOM     14  C   UNL d   1     -49.641  12.411  21.824  0.00  0.00     0.026 A 
ENDROOT
BRANCH  11  15
ATOM     15  O   UNL d   1     -50.109  13.610  21.309  0.00  0.00    -0.328 OA
ATOM     16  C   UNL d   1     -50.769  13.912  21.724  0.00  0.00     0.181 C 
ENDBRANCH  11  15
TORSDOF 1
ENDMDL
MODEL 2
REMARK VINA RESULT:      -8.2      1.330      2.028
REMARK  1 active torsions:
REMARK  status: ('A' for Active; 'I' for Inactive)
REMARK    1  A    between atoms: O_15  and  C_11 
ROOT
ATOM      1  C   UNL d   1     -46.732  12.814  23.190  0.00  0.00     0.139 A 
ATOM      2  N   UNL d   1     -46.487  13.575  22.923  0.00  0.00    -0.241 NA
ATOM      3  C   UNL d   1     -47.548  12.820  23.240  0.00  0.00     0.025 A 
ATOM      4  C   UNL d   1     -47.827  13.564  23.011  0.00  0.00     0.021 A 
ATOM      5  C   UNL d   1     -47.171  14.019  22.819  0.00  0.00     0.082 A 
ATOM      6  C   UNL d   1     -46.281  12.125  23.391  0.00  0.00     0.297 A 
ATOM      7  N   UNL d   1     -46.678  11.449  23.639  0.00  0.00    -0.205 NA
ATOM      8  C   UNL d   1     -48.576  13.885  22.951  0.00  0.00     0.026 A 
ATOM      9  O   UNL d   1     -45.442  12.134  23.335  0.00  0.00    -0.264 OA
ATOM     10  C   UNL d   1     -47.260  14.797  22.567  0.00  0.00     0.021 A 
ATOM     11  C   UNL d   1     -48.666  14.666  22.698  0.00  0.00     0.094 A 
ATOM     12  C   UNL d   1     -47.954  12.113  23.499  0.00  0.00     0.022 A 
ATOM     13  C   UNL d   1     -47.517  11.440  23.694  0.00  0.00     0.102 A 
ATOM     14  C   UNL d   1     -48.035  15.114  22.510  0.00  0.00     0.026 A 
ENDROOT
BRANCH  11  15
ATOM     15  O   UNL d   1     -49.413  15.021  22.627  0.00  0.00    -0.328 OA
ATOM     16  C   UNL d   1     -49.723  15.496  23.241  0.00  0.00     0.181 C 
ENDBRANCH  11  15
TORSDOF 1
ENDMDL
MODEL 3
REMARK VINA RESULT:      -8.1      1.565      3.234
REMARK  1 active torsions:
REMARK  status: ('A' for Active; 'I' for Inactive)
REMARK    1  A    between atoms: O_15  and  C_11 
ROOT
ATOM      1  C   UNL d   1     -49.075  11.858  23.414  0.00  0.00     0.139 A 
ATOM      2  N   UNL d   1     -48.446  11.362  23.676  0.00  0.00    -0.241 NA
ATOM      3  C   UNL d   1     -48.743  12.551  23.135  0.00  0.00     0.025 A 
ATOM      4  C   UNL d   1     -47.921  12.507  23.214  0.00  0.00     0.021 A 
ATOM      5  C   UNL d   1     -47.749  11.776  23.546  0.00  0.00     0.082 A 
ATOM      6  C   UNL d   1     -49.913  11.735  23.407  0.00  0.00     0.297 A 
ATOM      7  N   UNL d   1     -50.400  12.328  23.112  0.00  0.00    -0.205 NA
ATOM      8  C   UNL d   1     -47.314  13.024  23.033  0.00  0.00     0.026 A 
ATOM      9  O   UNL d   1     -50.241  11.016  23.697  0.00  0.00    -0.264 OA
ATOM     10  C   UNL d   1     -46.970  11.558  23.698  0.00  0.00     0.021 A 
ATOM     11  C   UNL d   1     -46.532  12.805  23.185  0.00  0.00     0.094 A 
ATOM     12  C   UNL d   1     -49.256  13.164  22.830  0.00  0.00     0.022 A 
ATOM     13  C   UNL d   1     -50.072  13.046  22.823  0.00  0.00     0.102 A 
ATOM     14  C   UNL d   1     -46.357  12.098  23.507  0.00  0.00     0.026 A 
ENDROOT
BRANCH  11  15
ATOM     15  O   UNL d   1     -45.895  13.307  23.012  0.00  0.00    -0.328 OA
ATOM     16  C   UNL d   1     -45.526  13.291  22.262  0.00  0.00     0.181 C 
ENDBRANCH  11  15
TORSDOF 1
ENDMDL
MODEL 4
REMARK VINA RESULT:      -7.8      1.581      3.229
REMARK  1 active torsions:
REMARK  status: ('A' for Active; 'I' for Inactive)
REMARK    1  A    between atoms: O_15  and  C_11 
ROOT
ATOM      1  C   UNL d   1     -48.985  13.847  23.029  0.00  0.00     0.139 A 
ATOM      2  N   UNL d   1     -48.700  13.084  23.244  0.00  0.00    -0.241 NA
ATOM      3  C   UNL d   1     -48.340  14.299  22.810  0.00  0.00     0.025 A 
ATOM      4  C   UNL d   1     -47.654  13.843  22.881  0.00  0.00     0.021 A 
ATOM      5  C   UNL d   1     -47.884  13.101  23.147  0.00  0.00     0.082 A 
ATOM      6  C   UNL d   1     -49.772  14.162  23.014  0.00  0.00     0.297 A 
ATOM      7  N   UNL d   1     -49.884  14.940  22.774  0.00  0.00    -0.205 NA
ATOM      8  C   UNL d   1     -46.863  13.999  22.743  0.00  0.00     0.026 A 
ATOM      9  O   UNL d   1     -50.426  13.684  23.242  0.00  0.00    -0.264 OA
ATOM     10  C   UNL d   1     -47.325  12.511  23.276  0.00  0.00     0.021 A 
ATOM     11  C   UNL d   1     -46.303  13.406  22.872  0.00  0.00     0.094 A 
ATOM     12  C   UNL d   1     -48.465  15.109  22.562  0.00  0.00     0.022 A 
ATOM     13  C   UNL d   1     -49.231  15.417  22.547  0.00  0.00     0.102 A 
ATOM     14  C   UNL d   1     -46.517  12.684  23.130  0.00  0.00     0.026 A 
ENDROOT
BRANCH  11  15
ATOM     15  O   UNL d   1     -45.493  13.533  22.741  0.00  0.00    -0.328 OA
ATOM     16  C   UNL d   1     -45.111  13.212  22.070  0.00  0.00     0.181 C 
ENDBRANCH  11  15
TORSDOF 1
ENDMDL
MODEL 5
REMARK VINA RESULT:      -6.5      1.995      2.652
REMARK  1 active torsions:
REMARK  status: ('A' for Active; 'I' for Inactive)
REMARK    1  A    between atoms: O_15  and  C_11 
ROOT
ATOM      1  C   UNL d   1     -48.231  14.406  22.784  0.00  0.00     0.139 A 
ATOM      2  N   UNL d   1     -47.626  13.823  22.858  0.00  0.00    -0.241 NA
ATOM      3  C   UNL d   1     -48.945  14.043  22.953  0.00  0.00     0.025 A 
ATOM      4  C   UNL d   1     -48.808  13.248  23.132  0.00  0.00     0.021 A 
ATOM      5  C   UNL d   1     -47.998  13.123  23.072  0.00  0.00     0.082 A 
ATOM      6  C   UNL d   1     -48.189  15.227  22.578  0.00  0.00     0.297 A 
ATOM      7  N   UNL d   1     -48.884  15.665  22.549  0.00  0.00    -0.205 NA
ATOM      8  C   UNL d   1     -49.301  12.630  23.339  0.00  0.00     0.026 A 
ATOM      9  O   UNL d   1     -47.448  15.585  22.407  0.00  0.00    -0.264 OA
ATOM     10  C   UNL d   1     -47.678  12.379  23.218  0.00  0.00     0.021 A 
ATOM     11  C   UNL d   1     -48.979  11.883  23.486  0.00  0.00     0.094 A 
ATOM     12  C   UNL d   1     -49.664  14.507  22.921  0.00  0.00     0.022 A 
ATOM     13  C   UNL d   1     -49.625  15.306  22.721  0.00  0.00     0.102 A 
ATOM     14  C   UNL d   1     -48.195  11.753  23.429  0.00  0.00     0.026 A 
ENDROOT
BRANCH  11  15
ATOM     15  O   UNL d   1     -49.453  11.236  23.698  0.00  0.00    -0.328 OA
ATOM     16  C   UNL d   1     -50.281  11.256  23.591  0.00  0.00     0.181 C 
ENDBRANCH  11  15
TORSDOF 1
ENDMDL
MODEL 6
REMARK VINA RESULT:      -5.9      1.597      2.168
REMARK  1 active torsions:
REMARK  status: ('A' for Active; 'I' for Inactive)
REMARK    1  A    between atoms: O_15  and  C_11 
ROOT
ATOM      1  C   UNL d   1     -45.332  12.145  22.820  0.00  0.00     0.139 A 
ATOM      2  N   UNL d   1     -45.875  11.744  23.324  0.00  0.00    -0.241 NA
ATOM      3  C   UNL d   1     -45.714  12.801  22.516  0.00  0.00     0.025 A 
ATOM      4  C   UNL d   1     -46.484  12.826  22.815  0.00  0.00     0.021 A 
ATOM      5  C   UNL d   1     -46.574  12.176  23.309  0.00  0.00     0.082 A 
ATOM      6  C   UNL d   1     -44.529  11.966  22.615  0.00  0.00     0.297 A 
ATOM      7  N   UNL d   1     -44.130  12.467  22.099  0.00  0.00    -0.205 NA
ATOM      8  C   UNL d   1     -47.108  13.344  22.708  0.00  0.00     0.026 A 
ATOM      9  O   UNL d   1     -44.149  11.288  22.935  0.00  0.00    -0.264 OA
ATOM     10  C   UNL d   1     -47.286  12.040  23.697  0.00  0.00     0.021 A 
ATOM     11  C   UNL d   1     -47.823  13.207  23.098  0.00  0.00     0.094 A 
ATOM     12  C   UNL d   1     -45.292  13.317  21.980  0.00  0.00     0.022 A 
ATOM     13  C   UNL d   1     -44.510  13.145  21.779  0.00  0.00     0.102 A 
ATOM     14  C   UNL d   1     -47.918  12.579  23.579  0.00  0.00     0.026 A 
ENDROOT
BRANCH  11  15
ATOM     15  O   UNL d   1     -48.475  13.714  23.011  0.00  0.00    -0.328 OA
ATOM     16  C   UNL d   1     -48.457  14.346  22.463  0.00  0.00     0.181 C 
ENDBRANCH  11  15
TORSDOF 1
ENDMDL
MODEL 7
REMARK VINA RESULT:      -5.8      8.267      8.798
REMARK  1 active torsions:
REMARK  status: ('A' for Active; 'I' for Inactive)
REMARK    1  A    between atoms: O_15  and  C_11 
ROOT
ATOM      1  C   UNL d   1     -39.800  14.790  20.355  0.00  0.00     0.139 A 
ATOM      2  N   UNL d   1     -39.426  14.259  19.818  0.00  0.00    -0.241 NA
ATOM      3  C   UNL d   1     -40.380  15.192  19.940  0.00  0.00     0.025 A 
ATOM      4  C   UNL d   1     -40.382  14.930  19.156  0.00  0.00     0.021 A 
ATOM      5  C   UNL d   1     -39.795  14.359  19.091  0.00  0.00     0.082 A 
ATOM      6  C   UNL d   1     -39.661  14.938  21.177  0.00  0.00     0.297 A 
ATOM      7  N   UNL d   1     -40.122  15.499  21.564  0.00  0.00    -0.205 NA
ATOM      8  C   UNL d   1     -40.831  15.129  18.503  0.00  0.00     0.026 A 
ATOM      9  O   UNL d   1     -39.062  14.516  21.590  0.00  0.00    -0.264 OA
ATOM     10  C   UNL d   1     -39.655  13.985  18.372  0.00  0.00     0.021 A 
ATOM     11  C   UNL d   1     -40.689  14.753  17.781  0.00  0.00     0.094 A 
ATOM     12  C   UNL d   1     -40.855  15.775  20.350  0.00  0.00     0.022 A 
ATOM     13  C   UNL d   1     -40.721  15.920  21.151  0.00  0.00     0.102 A 
ATOM     14  C   UNL d   1     -40.122  14.198  17.709  0.00  0.00     0.026 A 
ENDROOT
BRANCH  11  15
ATOM     15  O   UNL d   1     -41.127  14.933  17.099  0.00  0.00    -0.328 OA
ATOM     16  C   UNL d   1     -40.978  15.631  16.665  0.00  0.00     0.181 C 
ENDBRANCH  11  15
TORSDOF 1
ENDMDL
MODEL 8
REMARK VINA RESULT:      -5.7      1.429      1.900
REMARK  1 active torsions:
REMARK  status: ('A' for Active; 'I' for Inactive)
REMARK    1  A    between atoms: O_15  and  C_11 
ROOT
ATOM      1  C   UNL d   1     -47.687  14.292  22.743  0.00  0.00     0.139 A 
ATOM      2  N   UNL d   1     -48.266  14.883  22.907  0.00  0.00    -0.241 NA
ATOM      3  C   UNL d   1     -48.085  13.607  22.537  0.00  0.00     0.025 A 
ATOM      4  C   UNL d   1     -48.898  13.749  22.566  0.00  0.00     0.021 A 
ATOM      5  C   UNL d   1     -49.000  14.532  22.793  0.00  0.00     0.082 A 
ATOM      6  C   UNL d   1     -46.841  14.323  22.765  0.00  0.00     0.297 A 
ATOM      7  N   UNL d   1     -46.413  13.648  22.574  0.00  0.00    -0.205 NA
ATOM      8  C   UNL d   1     -49.552  13.280  22.419  0.00  0.00     0.026 A 
ATOM      9  O   UNL d   1     -46.446  15.035  22.979  0.00  0.00    -0.264 OA
ATOM     10  C   UNL d   1     -49.755  14.849  22.874  0.00  0.00     0.021 A 
ATOM     11  C   UNL d   1     -50.309  13.599  22.501  0.00  0.00     0.094 A 
ATOM     12  C   UNL d   1     -47.632  12.908  22.340  0.00  0.00     0.022 A 
ATOM     13  C   UNL d   1     -46.808  12.937  22.361  0.00  0.00     0.102 A 
ATOM     14  C   UNL d   1     -50.416  14.357  22.720  0.00  0.00     0.026 A 
ENDROOT
BRANCH  11  15
ATOM     15  O   UNL d   1     -50.992  13.149  22.359  0.00  0.00    -0.328 OA
ATOM     16  C   UNL d   1     -50.974  12.491  21.843  0.00  0.00     0.181 C 
ENDBRANCH  11  15
TORSDOF 1
ENDMDL
MODEL 9
REMARK VINA RESULT:      -5.4      9.139      9.815
REMARK  1 active torsions:
REMARK  status: ('A' for Active; 'I' for Inactive)
REMARK    1  A    between atoms: O_15  and  C_11 
ROOT
ATOM      1  C   UNL d   1     -39.081  13.912  18.455  0.00  0.00     0.139 A 
ATOM      2  N   UNL d   1     -39.509  14.498  18.883  0.00  0.00    -0.241 NA
ATOM      3  C   UNL d   1     -39.282  13.987  17.665  0.00  0.00     0.025 A 
ATOM      4  C   UNL d   1     -39.826  14.604  17.583  0.00  0.00     0.021 A 
ATOM      5  C   UNL d   1     -39.959  14.911  18.333  0.00  0.00     0.082 A 
ATOM      6  C   UNL d   1     -38.531  13.323  18.718  0.00  0.00     0.297 A 
ATOM      7  N   UNL d   1     -38.195  12.818  18.164  0.00  0.00    -0.205 NA
ATOM      8  C   UNL d   1     -40.212  14.924  16.938  0.00  0.00     0.026 A 
ATOM      9  O   UNL d   1     -38.334  13.259  19.533  0.00  0.00    -0.264 OA
ATOM     10  C   UNL d   1     -40.478  15.540  18.442  0.00  0.00     0.021 A 
ATOM     11  C   UNL d   1     -40.734  15.555  17.047  0.00  0.00     0.094 A 
ATOM     12  C   UNL d   1     -38.928  13.457  17.095  0.00  0.00     0.022 A 
ATOM     13  C   UNL d   1     -38.392  12.883  17.349  0.00  0.00     0.102 A 
ATOM     14  C   UNL d   1     -40.869  15.859  17.771  0.00  0.00     0.026 A 
ENDROOT
BRANCH  11  15
ATOM     15  O   UNL d   1     -41.142  15.902  16.413  0.00  0.00    -0.328 OA
ATOM     16  C   UNL d   1     -41.977  15.922  16.399  0.00  0.00     0.181 C 
ENDBRANCH  11  15
TORSDOF 1
ENDMDL
