MODEL 1
REMARK VINA RESULT:      -7.0      0.000      0.000
REMARK  7 active torsions:
REMARK  status: ('A' for Active; 'I' for Inactive)
REMARK    1  A    between atoms: C_8  and  C_1 
REMARK    2  A    between atoms: N_7  and  C_2 
REMARK    3  A    between atoms: C_5  and  N_7 
REMARK    4  A    between atoms: N_9  and  C_5 
REMARK    5  A    between atoms: O_12  and  C_8 
REMARK    6  A    between atoms: C_13  and  N_9 
REMARK    7  A    between atoms: C_16  and  O_12 
ROOT
ATOM      1  C   UNL d   1     -46.836  12.680  23.080  0.00  0.00     0.162 A 
ATOM      2  C   UNL d   1     -47.603  12.939  23.196  0.00  0.00     0.108 A 
ATOM      3  N   UNL d   1     -46.820  11.861  23.183  0.00  0.00    -0.239 NA
ATOM      4  C   UNL d   1     -48.070  12.287  23.371  0.00  0.00     0.037 A 
ATOM      5  C   UNL d   1     -47.591  11.617  23.365  0.00  0.00     0.083 A 
ATOM      6  C   UNL d   1     -48.875  12.214  23.538  0.00  0.00     0.003 A 
ATOM      7  C   UNL d   1     -47.912  10.872  23.524  0.00  0.00     0.019 A 
ATOM      8  C   UNL d   1     -49.204  11.475  23.697  0.00  0.00     0.000 A 
ATOM      9  C   UNL d   1     -48.713  10.803  23.689  0.00  0.00     0.002 A 
ENDROOT
BRANCH   2  10
ATOM     10  N   UNL d   1     -47.870  13.729  23.145  0.00  0.00    -0.216 NA
BRANCH  10  11
ATOM     11  C   UNL d   1     -48.243  13.989  22.454  0.00  0.00     0.221 C 
ATOM     12  S   UNL d   1     -48.438  13.455  21.851  0.00  0.00    -0.037 SA
BRANCH  11  13
ATOM     13  N   UNL d   1     -48.421  14.794  22.370  0.00  0.00    -0.217 NA
BRANCH  13  14
ATOM     14  C   UNL d   1     -49.162  15.072  22.602  0.00  0.00     0.084 A 
ATOM     15  C   UNL d   1     -49.820  14.936  22.125  0.00  0.00     0.019 A 
ATOM     16  C   UNL d   1     -50.570  15.213  22.352  0.00  0.00     0.002 A 
ATOM     17  C   UNL d   1     -50.650  15.628  23.065  0.00  0.00     0.000 A 
ATOM     18  C   UNL d   1     -49.993  15.769  23.549  0.00  0.00     0.002 A 
ATOM     19  C   UNL d   1     -49.256  15.490  23.313  0.00  0.00     0.019 A 
ENDBRANCH  13  14
ENDBRANCH  11  13
ENDBRANCH  10  11
ENDBRANCH   2  10
BRANCH   1  20
ATOM     20  C   UNL d   1     -46.186  13.155  22.892  0.00  0.00     0.320 C 
ATOM     21  O   UNL d   1     -46.075  13.873  23.289  0.00  0.00    -0.257 OA
BRANCH  20  22
ATOM     22  O   UNL d   1     -45.647  12.926  22.316  0.00  0.00    -0.270 OA
BRANCH  22  23
ATOM     23  C   UNL d   1     -44.970  13.385  22.187  0.00  0.00     0.126 C 
ATOM     24  C   UNL d   1     -44.409  13.139  21.641  0.00  0.00     0.029 C 
ENDBRANCH  22  23
ENDBRANCH  20  22
ENDBRANCH   1  20
TORSDOF 7
ENDMDL
MODEL 2
REMARK VINA RESULT:      -6.8      1.562      4.038
REMARK  7 active torsions:
REMARK  status: ('A' for Active; 'I' for Inactive)
REMARK    1  A    between atoms: C_8  and  C_1 
REMARK    2  A    between atoms: N_7  and  C_2 
REMARK    3  A    between atoms: C_5  and  N_7 
REMARK    4  A    between atoms: N_9  and  C_5 
REMARK    5  A    between atoms: O_12  and  C_8 
REMARK    6  A    between atoms: C_13  and  N_9 
REMARK    7  A    between atoms: C_16  and  O_12 
ROOT
ATOM      1  C   UNL d   1     -49.870  13.252  22.865  0.00  0.00     0.162 A 
ATOM      2  C   UNL d   1     -49.324  13.806  23.116  0.00  0.00     0.108 A 
ATOM      3  N   UNL d   1     -50.598  13.630  22.769  0.00  0.00    -0.239 NA
ATOM      4  C   UNL d   1     -49.703  14.531  23.180  0.00  0.00     0.037 A 
ATOM      5  C   UNL d   1     -50.492  14.428  22.966  0.00  0.00     0.083 A 
ATOM      6  C   UNL d   1     -49.434  15.277  23.405  0.00  0.00     0.003 A 
ATOM      7  C   UNL d   1     -51.015  15.069  22.977  0.00  0.00     0.019 A 
ATOM      8  C   UNL d   1     -49.948  15.922  23.419  0.00  0.00     0.000 A 
ATOM      9  C   UNL d   1     -50.743  15.810  23.202  0.00  0.00     0.002 A 
ENDROOT
BRANCH   2  10
ATOM     10  N   UNL d   1     -48.517  13.664  23.281  0.00  0.00    -0.216 NA
BRANCH  10  11
ATOM     11  C   UNL d   1     -47.937  13.989  22.788  0.00  0.00     0.221 C 
ATOM     12  S   UNL d   1     -48.095  14.133  21.987  0.00  0.00    -0.037 SA
BRANCH  11  13
ATOM     13  N   UNL d   1     -47.193  14.170  23.105  0.00  0.00    -0.217 NA
BRANCH  13  14
ATOM     14  C   UNL d   1     -46.543  13.700  22.907  0.00  0.00     0.084 A 
ATOM     15  C   UNL d   1     -46.365  13.035  23.358  0.00  0.00     0.019 A 
ATOM     16  C   UNL d   1     -45.713  12.557  23.165  0.00  0.00     0.002 A 
ATOM     17  C   UNL d   1     -45.242  12.758  22.513  0.00  0.00     0.000 A 
ATOM     18  C   UNL d   1     -45.416  13.426  22.056  0.00  0.00     0.002 A 
ATOM     19  C   UNL d   1     -46.065  13.891  22.258  0.00  0.00     0.019 A 
ENDBRANCH  13  14
ENDBRANCH  11  13
ENDBRANCH  10  11
ENDBRANCH   2  10
BRANCH   1  20
ATOM     20  C   UNL d   1     -49.722  12.450  22.728  0.00  0.00     0.320 C 
ATOM     21  O   UNL d   1     -49.657  12.172  21.951  0.00  0.00    -0.257 OA
BRANCH  20  22
ATOM     22  O   UNL d   1     -49.638  11.923  23.352  0.00  0.00    -0.270 OA
BRANCH  22  23
ATOM     23  C   UNL d   1     -49.546  11.116  23.193  0.00  0.00     0.126 C 
ATOM     24  C   UNL d   1     -49.093  10.651  23.694  0.00  0.00     0.029 C 
ENDBRANCH  22  23
ENDBRANCH  20  22
ENDBRANCH   1  20
TORSDOF 7
ENDMDL
MODEL 3
REMARK VINA RESULT:      -6.4      8.798      9.688
REMARK  7 active torsions:
REMARK  status: ('A' for Active; 'I' for Inactive)
REMARK    1  A    between atoms: C_8  and  C_1 
REMARK    2  A    between atoms: N_7  and  C_2 
REMARK    3  A    between atoms: C_5  and  N_7 
REMARK    4  A    between atoms: N_9  and  C_5 
REMARK    5  A    between atoms: O_12  and  C_8 
REMARK    6  A    between atoms: C_13  and  N_9 
REMARK    7  A    between atoms: C_16  and  O_12 
ROOT
ATOM      1  C   UNL d   1     -39.377  14.286  17.800  0.00  0.00     0.162 A 
ATOM      2  C   UNL d   1     -39.762  14.791  18.315  0.00  0.00     0.108 A 
ATOM      3  N   UNL d   1     -39.781  14.292  17.080  0.00  0.00    -0.239 NA
ATOM      4  C   UNL d   1     -40.407  15.114  17.924  0.00  0.00     0.037 A 
ATOM      5  C   UNL d   1     -40.424  14.809  17.160  0.00  0.00     0.083 A 
ATOM      6  C   UNL d   1     -40.986  15.651  18.165  0.00  0.00     0.003 A 
ATOM      7  C   UNL d   1     -41.018  15.037  16.631  0.00  0.00     0.019 A 
ATOM      8  C   UNL d   1     -41.582  15.884  17.645  0.00  0.00     0.000 A 
ATOM      9  C   UNL d   1     -41.593  15.572  16.874  0.00  0.00     0.002 A 
ENDROOT
BRANCH   2  10
ATOM     10  N   UNL d   1     -39.541  14.952  19.105  0.00  0.00    -0.216 NA
BRANCH  10  11
ATOM     11  C   UNL d   1     -40.074  14.792  19.718  0.00  0.00     0.221 C 
ATOM     12  S   UNL d   1     -40.484  14.072  19.745  0.00  0.00    -0.037 SA
BRANCH  11  13
ATOM     13  N   UNL d   1     -40.194  15.363  20.307  0.00  0.00    -0.217 NA
BRANCH  13  14
ATOM     14  C   UNL d   1     -39.838  15.265  21.045  0.00  0.00     0.084 A 
ATOM     15  C   UNL d   1     -39.682  15.922  21.516  0.00  0.00     0.019 A 
ATOM     16  C   UNL d   1     -39.324  15.832  22.261  0.00  0.00     0.002 A 
ATOM     17  C   UNL d   1     -39.125  15.071  22.524  0.00  0.00     0.000 A 
ATOM     18  C   UNL d   1     -39.279  14.407  22.055  0.00  0.00     0.002 A 
ATOM     19  C   UNL d   1     -39.634  14.510  21.320  0.00  0.00     0.019 A 
ENDBRANCH  13  14
ENDBRANCH  11  13
ENDBRANCH  10  11
ENDBRANCH   2  10
BRANCH   1  20
ATOM     20  C   UNL d   1     -38.698  13.844  17.968  0.00  0.00     0.320 C 
ATOM     21  O   UNL d   1     -38.009  14.231  18.214  0.00  0.00    -0.257 OA
BRANCH  20  22
ATOM     22  O   UNL d   1     -38.696  13.026  17.894  0.00  0.00    -0.270 OA
BRANCH  22  23
ATOM     23  C   UNL d   1     -37.974  12.622  17.865  0.00  0.00     0.126 C 
ATOM     24  C   UNL d   1     -37.965  11.817  17.708  0.00  0.00     0.029 C 
ENDBRANCH  22  23
ENDBRANCH  20  22
ENDBRANCH   1  20
TORSDOF 7
ENDMDL
MODEL 4
REMARK VINA RESULT:      -6.1      1.681      2.868
REMARK  7 active torsions:
REMARK  status: ('A' for Active; 'I' for Inactive)
REMARK    1  A    between atoms: C_8  and  C_1 
REMARK    2  A    between atoms: N_7  and  C_2 
REMARK    3  A    between atoms: C_5  and  N_7 
REMARK    4  A    between atoms: N_9  and  C_5 
REMARK    5  A    between atoms: O_12  and  C_8 
REMARK    6  A    between atoms: C_13  and  N_9 
REMARK    7  A    between atoms: C_16  and  O_12 
ROOT
ATOM      1  C   UNL d   1     -46.044  12.324  23.028  0.00  0.00     0.162 A 
ATOM      2  C   UNL d   1     -46.681  12.785  23.255  0.00  0.00     0.108 A 
ATOM      3  N   UNL d   1     -45.514  12.802  22.612  0.00  0.00    -0.239 NA
ATOM      4  C   UNL d   1     -46.555  13.549  22.984  0.00  0.00     0.037 A 
ATOM      5  C   UNL d   1     -45.835  13.565  22.585  0.00  0.00     0.083 A 
ATOM      6  C   UNL d   1     -47.004  14.238  23.048  0.00  0.00     0.003 A 
ATOM      7  C   UNL d   1     -45.559  14.269  22.249  0.00  0.00     0.019 A 
ATOM      8  C   UNL d   1     -46.738  14.944  22.716  0.00  0.00     0.000 A 
ATOM      9  C   UNL d   1     -46.009  14.953  22.315  0.00  0.00     0.002 A 
ENDROOT
BRANCH   2  10
ATOM     10  N   UNL d   1     -47.347  12.526  23.688  0.00  0.00    -0.216 NA
BRANCH  10  11
ATOM     11  C   UNL d   1     -48.075  12.440  23.303  0.00  0.00     0.221 C 
ATOM     12  S   UNL d   1     -48.197  11.827  22.760  0.00  0.00    -0.037 SA
BRANCH  11  13
ATOM     13  N   UNL d   1     -48.683  12.978  23.468  0.00  0.00    -0.217 NA
BRANCH  13  14
ATOM     14  C   UNL d   1     -49.469  12.735  23.399  0.00  0.00     0.084 A 
ATOM     15  C   UNL d   1     -50.022  13.229  23.042  0.00  0.00     0.019 A 
ATOM     16  C   UNL d   1     -50.816  12.991  22.969  0.00  0.00     0.002 A 
ATOM     17  C   UNL d   1     -51.044  12.249  23.261  0.00  0.00     0.000 A 
ATOM     18  C   UNL d   1     -50.492  11.748  23.621  0.00  0.00     0.002 A 
ATOM     19  C   UNL d   1     -49.711  11.996  23.687  0.00  0.00     0.019 A 
ENDBRANCH  13  14
ENDBRANCH  11  13
ENDBRANCH  10  11
ENDBRANCH   2  10
BRANCH   1  20
ATOM     20  C   UNL d   1     -45.945  11.519  23.186  0.00  0.00     0.320 C 
ATOM     21  O   UNL d   1     -46.523  10.979  22.941  0.00  0.00    -0.257 OA
BRANCH  20  22
ATOM     22  O   UNL d   1     -45.281  11.244  23.584  0.00  0.00    -0.270 OA
BRANCH  22  23
ATOM     23  C   UNL d   1     -45.143  10.429  23.630  0.00  0.00     0.126 C 
ATOM     24  C   UNL d   1     -44.375  10.149  23.698  0.00  0.00     0.029 C 
ENDBRANCH  22  23
ENDBRANCH  20  22
ENDBRANCH   1  20
TORSDOF 7
ENDMDL
MODEL 5
REMARK VINA RESULT:      -5.8      8.784     10.125
REMARK  7 active torsions:
REMARK  status: ('A' for Active; 'I' for Inactive)
REMARK    1  A    between atoms: C_8  and  C_1 
REMARK    2  A    between atoms: N_7  and  C_2 
REMARK    3  A    between atoms: C_5  and  N_7 
REMARK    4  A    between atoms: N_9  and  C_5 
REMARK    5  A    between atoms: O_12  and  C_8 
REMARK    6  A    between atoms: C_13  and  N_9 
REMARK    7  A    between atoms: C_16  and  O_12 
ROOT
ATOM      1  C   UNL d   1     -39.306  14.344  17.167  0.00  0.00     0.162 A 
ATOM      2  C   UNL d   1     -38.876  14.201  17.848  0.00  0.00     0.108 A 
ATOM      3  N   UNL d   1     -39.300  13.659  16.707  0.00  0.00    -0.239 NA
ATOM      4  C   UNL d   1     -38.598  13.429  17.819  0.00  0.00     0.037 A 
ATOM      5  C   UNL d   1     -38.858  13.089  17.115  0.00  0.00     0.083 A 
ATOM      6  C   UNL d   1     -38.140  12.988  18.344  0.00  0.00     0.003 A 
ATOM      7  C   UNL d   1     -38.661  12.306  16.932  0.00  0.00     0.019 A 
ATOM      8  C   UNL d   1     -37.940  12.207  18.170  0.00  0.00     0.000 A 
ATOM      9  C   UNL d   1     -38.205  11.870  17.458  0.00  0.00     0.002 A 
ENDROOT
BRANCH   2  10
ATOM     10  N   UNL d   1     -38.739  14.744  18.468  0.00  0.00    -0.216 NA
BRANCH  10  11
ATOM     11  C   UNL d   1     -38.900  14.519  19.249  0.00  0.00     0.221 C 
ATOM     12  S   UNL d   1     -38.289  14.278  19.754  0.00  0.00    -0.037 SA
BRANCH  11  13
ATOM     13  N   UNL d   1     -39.683  14.538  19.520  0.00  0.00    -0.217 NA
BRANCH  13  14
ATOM     14  C   UNL d   1     -39.846  14.855  20.265  0.00  0.00     0.084 A 
ATOM     15  C   UNL d   1     -39.656  14.428  20.943  0.00  0.00     0.019 A 
ATOM     16  C   UNL d   1     -39.817  14.741  21.697  0.00  0.00     0.002 A 
ATOM     17  C   UNL d   1     -40.171  15.488  21.758  0.00  0.00     0.000 A 
ATOM     18  C   UNL d   1     -40.364  15.921  21.080  0.00  0.00     0.002 A 
ATOM     19  C   UNL d   1     -40.200  15.601  20.340  0.00  0.00     0.019 A 
ENDBRANCH  13  14
ENDBRANCH  11  13
ENDBRANCH  10  11
ENDBRANCH   2  10
BRANCH   1  20
ATOM     20  C   UNL d   1     -39.685  15.053  16.970  0.00  0.00     0.320 C 
ATOM     21  O   UNL d   1     -39.238  15.744  16.883  0.00  0.00    -0.257 OA
BRANCH  20  22
ATOM     22  O   UNL d   1     -40.498  15.082  16.860  0.00  0.00    -0.270 OA
BRANCH  22  23
ATOM     23  C   UNL d   1     -40.860  15.808  16.695  0.00  0.00     0.126 C 
ATOM     24  C   UNL d   1     -41.672  15.887  16.779  0.00  0.00     0.029 C 
ENDBRANCH  22  23
ENDBRANCH  20  22
ENDBRANCH   1  20
TORSDOF 7
ENDMDL
MODEL 6
REMARK VINA RESULT:      -5.6      1.767      2.675
REMARK  7 active torsions:
REMARK  status: ('A' for Active; 'I' for Inactive)
REMARK    1  A    between atoms: C_8  and  C_1 
REMARK    2  A    between atoms: N_7  and  C_2 
REMARK    3  A    between atoms: C_5  and  N_7 
REMARK    4  A    between atoms: N_9  and  C_5 
REMARK    5  A    between atoms: O_12  and  C_8 
REMARK    6  A    between atoms: C_13  and  N_9 
REMARK    7  A    between atoms: C_16  and  O_12 
ROOT
ATOM      1  C   UNL d   1     -46.587  13.120  23.152  0.00  0.00     0.162 A 
ATOM      2  C   UNL d   1     -46.921  12.405  23.369  0.00  0.00     0.108 A 
ATOM      3  N   UNL d   1     -45.781  13.001  23.023  0.00  0.00    -0.239 NA
ATOM      4  C   UNL d   1     -46.328  11.837  23.377  0.00  0.00     0.037 A 
ATOM      5  C   UNL d   1     -45.621  12.200  23.164  0.00  0.00     0.083 A 
ATOM      6  C   UNL d   1     -46.340  11.031  23.552  0.00  0.00     0.003 A 
ATOM      7  C   UNL d   1     -44.921  11.761  23.123  0.00  0.00     0.019 A 
ATOM      8  C   UNL d   1     -45.647  10.585  23.515  0.00  0.00     0.000 A 
ATOM      9  C   UNL d   1     -44.936  10.958  23.298  0.00  0.00     0.002 A 
ENDROOT
BRANCH   2  10
ATOM     10  N   UNL d   1     -47.725  12.271  23.552  0.00  0.00    -0.216 NA
BRANCH  10  11
ATOM     11  C   UNL d   1     -48.206  11.874  23.008  0.00  0.00     0.221 C 
ATOM     12  S   UNL d   1     -47.981  11.809  22.213  0.00  0.00    -0.037 SA
BRANCH  11  13
ATOM     13  N   UNL d   1     -48.919  11.542  23.268  0.00  0.00    -0.217 NA
BRANCH  13  14
ATOM     14  C   UNL d   1     -49.631  11.919  23.090  0.00  0.00     0.084 A 
ATOM     15  C   UNL d   1     -50.125  12.171  23.698  0.00  0.00     0.019 A 
ATOM     16  C   UNL d   1     -50.844  12.553  23.527  0.00  0.00     0.002 A 
ATOM     17  C   UNL d   1     -51.059  12.676  22.736  0.00  0.00     0.000 A 
ATOM     18  C   UNL d   1     -50.566  12.425  22.120  0.00  0.00     0.002 A 
ATOM     19  C   UNL d   1     -49.857  12.049  22.303  0.00  0.00     0.019 A 
ENDBRANCH  13  14
ENDBRANCH  11  13
ENDBRANCH  10  11
ENDBRANCH   2  10
BRANCH   1  20
ATOM     20  C   UNL d   1     -46.987  13.840  23.075  0.00  0.00     0.320 C 
ATOM     21  O   UNL d   1     -47.476  14.104  23.688  0.00  0.00    -0.257 OA
BRANCH  20  22
ATOM     22  O   UNL d   1     -46.907  14.298  22.398  0.00  0.00    -0.270 OA
BRANCH  22  23
ATOM     23  C   UNL d   1     -47.356  14.989  22.319  0.00  0.00     0.126 C 
ATOM     24  C   UNL d   1     -47.169  15.531  21.732  0.00  0.00     0.029 C 
ENDBRANCH  22  23
ENDBRANCH  20  22
ENDBRANCH   1  20
TORSDOF 7
ENDMDL
MODEL 7
REMARK VINA RESULT:      -5.6      1.941      4.737
REMARK  7 active torsions:
REMARK  status: ('A' for Active; 'I' for Inactive)
REMARK    1  A    between atoms: C_8  and  C_1 
REMARK    2  A    between atoms: N_7  and  C_2 
REMARK    3  A    between atoms: C_5  and  N_7 
REMARK    4  A    between atoms: N_9  and  C_5 
REMARK    5  A    between atoms: O_12  and  C_8 
REMARK    6  A    between atoms: C_13  and  N_9 
REMARK    7  A    between atoms: C_16  and  O_12 
ROOT
ATOM      1  C   UNL d   1     -48.239  12.865  22.949  0.00  0.00     0.162 A 
ATOM      2  C   UNL d   1     -47.460  12.997  23.162  0.00  0.00     0.108 A 
ATOM      3  N   UNL d   1     -48.532  13.553  22.599  0.00  0.00    -0.239 NA
ATOM      4  C   UNL d   1     -47.261  13.764  22.947  0.00  0.00     0.037 A 
ATOM      5  C   UNL d   1     -47.920  14.112  22.598  0.00  0.00     0.083 A 
ATOM      6  C   UNL d   1     -46.561  14.194  23.023  0.00  0.00     0.003 A 
ATOM      7  C   UNL d   1     -47.884  14.892  22.324  0.00  0.00     0.019 A 
ATOM      8  C   UNL d   1     -46.516  14.971  22.753  0.00  0.00     0.000 A 
ATOM      9  C   UNL d   1     -47.186  15.318  22.402  0.00  0.00     0.002 A 
ENDROOT
BRANCH   2  10
ATOM     10  N   UNL d   1     -46.951  12.448  23.533  0.00  0.00    -0.216 NA
BRANCH  10  11
ATOM     11  C   UNL d   1     -46.331  12.111  23.101  0.00  0.00     0.221 C 
ATOM     12  S   UNL d   1     -46.475  11.737  22.376  0.00  0.00    -0.037 SA
BRANCH  11  13
ATOM     13  N   UNL d   1     -45.560  12.151  23.404  0.00  0.00    -0.217 NA
BRANCH  13  14
ATOM     14  C   UNL d   1     -45.066  11.492  23.344  0.00  0.00     0.084 A 
ATOM     15  C   UNL d   1     -45.286  10.782  23.697  0.00  0.00     0.019 A 
ATOM     16  C   UNL d   1     -44.794  10.113  23.642  0.00  0.00     0.002 A 
ATOM     17  C   UNL d   1     -44.079  10.171  23.227  0.00  0.00     0.000 A 
ATOM     18  C   UNL d   1     -43.853  10.883  22.869  0.00  0.00     0.002 A 
ATOM     19  C   UNL d   1     -44.349  11.536  22.932  0.00  0.00     0.019 A 
ENDBRANCH  13  14
ENDBRANCH  11  13
ENDBRANCH  10  11
ENDBRANCH   2  10
BRANCH   1  20
ATOM     20  C   UNL d   1     -48.663  12.165  23.064  0.00  0.00     0.320 C 
ATOM     21  O   UNL d   1     -48.488  11.500  22.602  0.00  0.00    -0.257 OA
BRANCH  20  22
ATOM     22  O   UNL d   1     -49.256  12.117  23.630  0.00  0.00    -0.270 OA
BRANCH  22  23
ATOM     23  C   UNL d   1     -49.917  11.639  23.487  0.00  0.00     0.126 C 
ATOM     24  C   UNL d   1     -50.664  11.904  23.698  0.00  0.00     0.029 C 
ENDBRANCH  22  23
ENDBRANCH  20  22
ENDBRANCH   1  20
TORSDOF 7
ENDMDL
MODEL 8
REMARK VINA RESULT:      -5.1      1.145      2.656
REMARK  7 active torsions:
REMARK  status: ('A' for Active; 'I' for Inactive)
REMARK    1  A    between atoms: C_8  and  C_1 
REMARK    2  A    between atoms: N_7  and  C_2 
REMARK    3  A    between atoms: C_5  and  N_7 
REMARK    4  A    between atoms: N_9  and  C_5 
REMARK    5  A    between atoms: O_12  and  C_8 
REMARK    6  A    between atoms: C_13  and  N_9 
REMARK    7  A    between atoms: C_16  and  O_12 
ROOT
ATOM      1  C   UNL d   1     -47.589  12.314  23.150  0.00  0.00     0.162 A 
ATOM      2  C   UNL d   1     -47.611  13.130  23.094  0.00  0.00     0.108 A 
ATOM      3  N   UNL d   1     -46.828  12.061  22.957  0.00  0.00    -0.239 NA
ATOM      4  C   UNL d   1     -46.868  13.392  22.866  0.00  0.00     0.037 A 
ATOM      5  C   UNL d   1     -46.379  12.735  22.780  0.00  0.00     0.083 A 
ATOM      6  C   UNL d   1     -46.569  14.148  22.725  0.00  0.00     0.003 A 
ATOM      7  C   UNL d   1     -45.589  12.829  22.551  0.00  0.00     0.019 A 
ATOM      8  C   UNL d   1     -45.783  14.251  22.497  0.00  0.00     0.000 A 
ATOM      9  C   UNL d   1     -45.295  13.583  22.412  0.00  0.00     0.002 A 
ENDROOT
BRANCH   2  10
ATOM     10  N   UNL d   1     -48.274  13.617  23.243  0.00  0.00    -0.216 NA
BRANCH  10  11
ATOM     11  C   UNL d   1     -48.496  14.184  22.683  0.00  0.00     0.221 C 
ATOM     12  S   UNL d   1     -48.543  13.990  21.878  0.00  0.00    -0.037 SA
BRANCH  11  13
ATOM     13  N   UNL d   1     -48.672  14.953  22.936  0.00  0.00    -0.217 NA
BRANCH  13  14
ATOM     14  C   UNL d   1     -49.459  15.197  22.977  0.00  0.00     0.084 A 
ATOM     15  C   UNL d   1     -49.967  15.053  22.346  0.00  0.00     0.019 A 
ATOM     16  C   UNL d   1     -50.762  15.295  22.380  0.00  0.00     0.002 A 
ATOM     17  C   UNL d   1     -51.038  15.684  23.058  0.00  0.00     0.000 A 
ATOM     18  C   UNL d   1     -50.532  15.831  23.697  0.00  0.00     0.002 A 
ATOM     19  C   UNL d   1     -49.748  15.586  23.650  0.00  0.00     0.019 A 
ENDBRANCH  13  14
ENDBRANCH  11  13
ENDBRANCH  10  11
ENDBRANCH   2  10
BRANCH   1  20
ATOM     20  C   UNL d   1     -48.220  11.824  23.364  0.00  0.00     0.320 C 
ATOM     21  O   UNL d   1     -48.066  11.082  23.698  0.00  0.00    -0.257 OA
BRANCH  20  22
ATOM     22  O   UNL d   1     -48.998  12.060  23.251  0.00  0.00    -0.270 OA
BRANCH  22  23
ATOM     23  C   UNL d   1     -49.611  11.520  23.383  0.00  0.00     0.126 C 
ATOM     24  C   UNL d   1     -50.331  11.784  23.672  0.00  0.00     0.029 C 
ENDBRANCH  22  23
ENDBRANCH  20  22
ENDBRANCH   1  20
TORSDOF 7
ENDMDL
MODEL 9
REMARK VINA RESULT:      -4.6      1.515      3.794
REMARK  7 active torsions:
REMARK  status: ('A' for Active; 'I' for Inactive)
REMARK    1  A    between atoms: C_8  and  C_1 
REMARK    2  A    between atoms: N_7  and  C_2 
REMARK    3  A    between atoms: C_5  and  N_7 
REMARK    4  A    between atoms: N_9  and  C_5 
REMARK    5  A    between atoms: O_12  and  C_8 
REMARK    6  A    between atoms: C_13  and  N_9 
REMARK    7  A    between atoms: C_16  and  O_12 
ROOT
ATOM      1  C   UNL d   1     -49.718  13.525  22.571  0.00  0.00     0.162 A 
ATOM      2  C   UNL d   1     -49.030  13.183  22.851  0.00  0.00     0.108 A 
ATOM      3  N   UNL d   1     -50.335  12.986  22.672  0.00  0.00    -0.239 NA
ATOM      4  C   UNL d   1     -49.210  12.432  23.128  0.00  0.00     0.037 A 
ATOM      5  C   UNL d   1     -50.017  12.305  23.019  0.00  0.00     0.083 A 
ATOM      6  C   UNL d   1     -48.744  11.842  23.467  0.00  0.00     0.003 A 
ATOM      7  C   UNL d   1     -50.362  11.588  23.248  0.00  0.00     0.019 A 
ATOM      8  C   UNL d   1     -49.079  11.125  23.698  0.00  0.00     0.000 A 
ATOM      9  C   UNL d   1     -49.894  11.003  23.585  0.00  0.00     0.002 A 
ENDROOT
BRANCH   2  10
ATOM     10  N   UNL d   1     -48.271  13.534  22.857  0.00  0.00    -0.216 NA
BRANCH  10  11
ATOM     11  C   UNL d   1     -47.630  13.122  22.536  0.00  0.00     0.221 C 
ATOM     12  S   UNL d   1     -47.653  12.842  21.756  0.00  0.00    -0.037 SA
BRANCH  11  13
ATOM     13  N   UNL d   1     -46.959  12.991  23.005  0.00  0.00    -0.217 NA
BRANCH  13  14
ATOM     14  C   UNL d   1     -46.209  13.068  22.670  0.00  0.00     0.084 A 
ATOM     15  C   UNL d   1     -45.761  12.397  22.506  0.00  0.00     0.019 A 
ATOM     16  C   UNL d   1     -45.005  12.466  22.169  0.00  0.00     0.002 A 
ATOM     17  C   UNL d   1     -44.705  13.220  21.999  0.00  0.00     0.000 A 
ATOM     18  C   UNL d   1     -45.150  13.899  22.162  0.00  0.00     0.002 A 
ATOM     19  C   UNL d   1     -45.897  13.816  22.496  0.00  0.00     0.019 A 
ENDBRANCH  13  14
ENDBRANCH  11  13
ENDBRANCH  10  11
ENDBRANCH   2  10
BRANCH   1  20
ATOM     20  C   UNL d   1     -49.787  14.281  22.243  0.00  0.00     0.320 C 
ATOM     21  O   UNL d   1     -49.245  14.529  21.668  0.00  0.00    -0.257 OA
BRANCH  20  22
ATOM     22  O   UNL d   1     -50.386  14.792  22.477  0.00  0.00    -0.270 OA
BRANCH  22  23
ATOM     23  C   UNL d   1     -50.194  15.558  22.723  0.00  0.00     0.126 C 
ATOM     24  C   UNL d   1     -50.639  15.922  23.308  0.00  0.00     0.029 C 
ENDBRANCH  22  23
ENDBRANCH  20  22
ENDBRANCH   1  20
TORSDOF 7
ENDMDL
