MODEL 1
REMARK VINA RESULT:      14.0      0.000      0.000
REMARK  1 active torsions:
REMARK  status: ('A' for Active; 'I' for Inactive)
REMARK    1  A    between atoms: C_5  and  C_1 
ROOT
ATOM      1  C   UNL d   1     -58.559 -98.762 -43.798  0.00  0.00     0.128 A 
ATOM      2  C   UNL d   1     -58.699 -98.761 -44.639  0.00  0.00     0.306 A 
ATOM      3  C   UNL d   1     -57.789 -98.762 -43.533  0.00  0.00     0.013 A 
ATOM      4  O   UNL d   1     -58.059 -98.759 -45.152  0.00  0.00    -0.273 OA
ATOM      5  C   UNL d   1     -57.146 -98.759 -44.059  0.00  0.00     0.023 A 
ATOM      6  C   UNL d   1     -57.282 -98.758 -44.876  0.00  0.00     0.103 A 
ATOM      7  O   UNL d   1     -59.479 -98.761 -44.960  0.00  0.00    -0.259 OA
ATOM      8  C   UNL d   1     -56.399 -98.759 -43.765  0.00  0.00     0.002 A 
ATOM      9  C   UNL d   1     -56.670 -98.756 -45.385  0.00  0.00     0.025 A 
ATOM     10  C   UNL d   1     -55.748 -98.757 -44.268  0.00  0.00     0.000 A 
ATOM     11  C   UNL d   1     -55.888 -98.755 -45.109  0.00  0.00     0.002 A 
ENDROOT
BRANCH   1  12
ATOM     12  C   UNL d   1     -59.178 -98.764 -43.300  0.00  0.00     0.216 C 
ATOM     13  O   UNL d   1     -59.960 -98.757 -43.566  0.00  0.00    -0.644 OA
ATOM     14  O   UNL d   1     -59.203 -98.773 -42.490  0.00  0.00    -0.644 OA
ENDBRANCH   1  12
TORSDOF 1
ENDMDL
MODEL 2
REMARK VINA RESULT:      16.5      1.099      2.799
REMARK  1 active torsions:
REMARK  status: ('A' for Active; 'I' for Inactive)
REMARK    1  A    between atoms: C_5  and  C_1 
ROOT
ATOM      1  C   UNL d   1     -57.052 -98.812 -44.364  0.00  0.00     0.128 A 
ATOM      2  C   UNL d   1     -57.486 -98.783 -45.096  0.00  0.00     0.306 A 
ATOM      3  C   UNL d   1     -57.470 -98.823 -43.664  0.00  0.00     0.013 A 
ATOM      4  O   UNL d   1     -58.307 -98.767 -45.076  0.00  0.00    -0.273 OA
ATOM      5  C   UNL d   1     -58.301 -98.805 -43.652  0.00  0.00     0.023 A 
ATOM      6  C   UNL d   1     -58.723 -98.777 -44.364  0.00  0.00     0.103 A 
ATOM      7  O   UNL d   1     -57.097 -98.771 -45.844  0.00  0.00    -0.259 OA
ATOM      8  C   UNL d   1     -58.682 -98.816 -42.946  0.00  0.00     0.002 A 
ATOM      9  C   UNL d   1     -59.519 -98.760 -44.358  0.00  0.00     0.025 A 
ATOM     10  C   UNL d   1     -59.504 -98.800 -42.911  0.00  0.00     0.000 A 
ATOM     11  C   UNL d   1     -59.938 -98.771 -43.643  0.00  0.00     0.002 A 
ENDROOT
BRANCH   1  12
ATOM     12  C   UNL d   1     -56.258 -98.829 -44.382  0.00  0.00     0.216 C 
ATOM     13  O   UNL d   1     -55.798 -98.771 -43.700  0.00  0.00    -0.644 OA
ATOM     14  O   UNL d   1     -55.747 -98.899 -45.008  0.00  0.00    -0.644 OA
ENDBRANCH   1  12
TORSDOF 1
ENDMDL
