MODEL 1
REMARK VINA RESULT:      14.7      0.000      0.000
REMARK  9 active torsions:
REMARK  status: ('A' for Active; 'I' for Inactive)
REMARK       I    between atoms: N_2  and  C_1 
REMARK    1  A    between atoms: C_16  and  C_1 
REMARK    2  A    between atoms: C_8  and  N_2 
REMARK    3  A    between atoms: N_4  and  C_3 
REMARK    4  A    between atoms: C_17  and  N_4 
REMARK    5  A    between atoms: C_18  and  N_4 
REMARK    6  A    between atoms: C_12  and  O_14 
REMARK    7  A    between atoms: O_14  and  C_21 
REMARK    8  A    between atoms: C_23  and  C_16 
REMARK    9  A    between atoms: C_21  and  C_23 
ROOT
ATOM      1  C   UNL d   1      46.131 -15.588  44.161  0.00  0.00     0.328 C 
ATOM      2  N   UNL d   1      46.195 -16.370  43.874  0.00  0.00    -0.365 NA
ATOM      3  O   UNL d   1      46.630 -15.007  43.870  0.00  0.00    -0.251 OA
ENDROOT
BRANCH   1   4
ATOM      4  C   UNL d   1      45.572 -15.405  44.730  0.00  0.00     0.078 C 
BRANCH   4   5
ATOM      5  C   UNL d   1      45.450 -14.628  44.955  0.00  0.00     0.033 C 
BRANCH   5   6
ATOM      6  C   UNL d   1      44.775 -14.211  44.701  0.00  0.00     0.123 C 
BRANCH   6   7
ATOM      7  O   UNL d   1      44.784 -13.386  44.674  0.00  0.00    -0.305 OA
BRANCH   7   8
ATOM      8  C   UNL d   1      44.755 -13.011  43.943  0.00  0.00     0.100 A 
ATOM      9  C   UNL d   1      45.473 -12.729  43.593  0.00  0.00     0.025 A 
ATOM     10  C   UNL d   1      45.437 -12.348  42.850  0.00  0.00     0.002 A 
ATOM     11  C   UNL d   1      46.140 -12.080  42.521  0.00  0.00     0.000 C 
ATOM     12  C   UNL d   1      44.725 -12.244  42.459  0.00  0.00     0.000 A 
ATOM     13  C   UNL d   1      44.024 -12.518  42.798  0.00  0.00     0.002 A 
ATOM     14  C   UNL d   1      44.032 -12.905  43.547  0.00  0.00     0.025 A 
ENDBRANCH   7   8
ENDBRANCH   6   7
ENDBRANCH   5   6
ENDBRANCH   4   5
ENDBRANCH   1   4
BRANCH   2  15
ATOM     15  C   UNL d   1      46.252 -17.141  43.596  0.00  0.00     0.135 A 
ATOM     16  C   UNL d   1      46.139 -17.786  44.100  0.00  0.00     0.034 A 
ATOM     17  C   UNL d   1      46.197 -18.544  43.819  0.00  0.00     0.020 A 
ATOM     18  C   UNL d   1      46.369 -18.688  43.029  0.00  0.00     0.064 A 
ATOM     19  C   UNL d   1      46.486 -18.044  42.510  0.00  0.00     0.020 A 
ATOM     20  C   UNL d   1      46.428 -17.270  42.790  0.00  0.00     0.034 A 
BRANCH  18  21
ATOM     21  N   UNL d   1      46.429 -19.460  42.737  0.00  0.00    -0.304 N 
BRANCH  21  22
ATOM     22  C   UNL d   1      46.459 -19.584  41.912  0.00  0.00     0.080 C 
ATOM     23  C   UNL d   1      46.646 -20.329  41.613  0.00  0.00     0.021 C 
ENDBRANCH  21  22
BRANCH  21  24
ATOM     24  C   UNL d   1      46.459 -20.104  43.245  0.00  0.00     0.080 C 
ATOM     25  C   UNL d   1      46.192 -20.030  44.016  0.00  0.00     0.021 C 
ENDBRANCH  21  24
ENDBRANCH  18  21
ENDBRANCH   2  15
TORSDOF 9
ENDMDL
