MODEL 1
REMARK VINA RESULT:      -2.2      0.000      0.000
REMARK  3 active torsions:
REMARK  status: ('A' for Active; 'I' for Inactive)
REMARK    1  A    between atoms: S_3  and  C_1 
REMARK    2  A    between atoms: C_7  and  N_2 
REMARK    3  A    between atoms: C_11  and  C_7 
ROOT
ATOM      1  C   UNL d   1      58.374  -1.813  29.599  0.00  0.00     0.255 A 
ATOM      2  N   UNL d   1      58.518  -1.058  29.344  0.00  0.00    -0.278 N 
ATOM      3  N   UNL d   1      57.938  -1.794  30.277  0.00  0.00    -0.215 NA
ATOM      4  C   UNL d   1      58.157  -0.535  29.886  0.00  0.00     0.084 A 
ATOM      5  C   UNL d   1      57.795  -0.993  30.468  0.00  0.00     0.100 A 
ATOM      6  C   UNL d   1      58.113   0.288  29.922  0.00  0.00     0.019 A 
ATOM      7  C   UNL d   1      57.388  -0.630  31.087  0.00  0.00     0.021 A 
ATOM      8  C   UNL d   1      57.707   0.653  30.542  0.00  0.00     0.002 A 
ATOM      9  C   UNL d   1      57.344   0.194  31.124  0.00  0.00     0.002 A 
ENDROOT
BRANCH   2  10
ATOM     10  C   UNL d   1      58.945  -0.823  28.670  0.00  0.00     0.082 C 
BRANCH  10  11
ATOM     11  C   UNL d   1      59.666  -0.447  28.749  0.00  0.00     0.018 A 
ATOM     12  C   UNL d   1      60.303  -0.823  29.129  0.00  0.00     0.002 A 
ATOM     13  C   UNL d   1      61.027  -0.450  29.210  0.00  0.00     0.000 A 
ATOM     14  C   UNL d   1      61.133   0.301  28.916  0.00  0.00     0.000 A 
ATOM     15  C   UNL d   1      60.498   0.682  28.534  0.00  0.00     0.000 A 
ATOM     16  C   UNL d   1      59.775   0.306  28.455  0.00  0.00     0.002 A 
ENDBRANCH  10  11
ENDBRANCH   2  10
BRANCH   1  17
ATOM     17  S   UNL d   1      58.634  -2.498  29.220  0.00  0.00     0.174 S 
ATOM     18  O   UNL d   1      58.125  -2.343  28.589  0.00  0.00    -0.589 OA
ATOM     19  O   UNL d   1      58.894  -3.184  28.842  0.00  0.00    -0.589 OA
ATOM     20  O   UNL d   1      59.143  -2.654  29.852  0.00  0.00    -0.589 OA
ENDBRANCH   1  17
TORSDOF 3
ENDMDL
MODEL 2
REMARK VINA RESULT:      -2.1      0.768      2.667
REMARK  3 active torsions:
REMARK  status: ('A' for Active; 'I' for Inactive)
REMARK    1  A    between atoms: S_3  and  C_1 
REMARK    2  A    between atoms: C_7  and  N_2 
REMARK    3  A    between atoms: C_11  and  C_7 
ROOT
ATOM      1  C   UNL d   1      59.116  -1.613  29.213  0.00  0.00     0.255 A 
ATOM      2  N   UNL d   1      58.893  -0.863  29.417  0.00  0.00    -0.278 N 
ATOM      3  N   UNL d   1      59.921  -1.667  29.200  0.00  0.00    -0.215 NA
ATOM      4  C   UNL d   1      59.590  -0.417  29.541  0.00  0.00     0.084 A 
ATOM      5  C   UNL d   1      60.231  -0.918  29.406  0.00  0.00     0.100 A 
ATOM      6  C   UNL d   1      59.718   0.369  29.756  0.00  0.00     0.019 A 
ATOM      7  C   UNL d   1      61.001  -0.634  29.485  0.00  0.00     0.021 A 
ATOM      8  C   UNL d   1      60.489   0.654  29.836  0.00  0.00     0.002 A 
ATOM      9  C   UNL d   1      61.130   0.153  29.701  0.00  0.00     0.002 A 
ENDROOT
BRANCH   2  10
ATOM     10  C   UNL d   1      58.121  -0.567  29.496  0.00  0.00     0.082 C 
BRANCH  10  11
ATOM     11  C   UNL d   1      57.839  -0.338  30.229  0.00  0.00     0.018 A 
ATOM     12  C   UNL d   1      57.577  -0.904  30.779  0.00  0.00     0.002 A 
ATOM     13  C   UNL d   1      57.294  -0.680  31.514  0.00  0.00     0.000 A 
ATOM     14  C   UNL d   1      57.265   0.108  31.716  0.00  0.00     0.000 A 
ATOM     15  C   UNL d   1      57.526   0.678  31.168  0.00  0.00     0.000 A 
ATOM     16  C   UNL d   1      57.808   0.450  30.434  0.00  0.00     0.002 A 
ENDBRANCH  10  11
ENDBRANCH   2  10
BRANCH   1  17
ATOM     17  S   UNL d   1      58.597  -2.231  29.043  0.00  0.00     0.174 S 
ATOM     18  O   UNL d   1      58.235  -1.768  28.464  0.00  0.00    -0.589 OA
ATOM     19  O   UNL d   1      58.078  -2.849  28.872  0.00  0.00    -0.589 OA
ATOM     20  O   UNL d   1      58.959  -2.695  29.622  0.00  0.00    -0.589 OA
ENDBRANCH   1  17
TORSDOF 3
ENDMDL
MODEL 3
REMARK VINA RESULT:      -1.9      1.903      2.521
REMARK  3 active torsions:
REMARK  status: ('A' for Active; 'I' for Inactive)
REMARK    1  A    between atoms: S_3  and  C_1 
REMARK    2  A    between atoms: C_7  and  N_2 
REMARK    3  A    between atoms: C_11  and  C_7 
ROOT
ATOM      1  C   UNL d   1      57.818  -0.593  30.370  0.00  0.00     0.255 A 
ATOM      2  N   UNL d   1      58.489  -0.405  29.958  0.00  0.00    -0.278 N 
ATOM      3  N   UNL d   1      57.651  -1.377  30.280  0.00  0.00    -0.215 NA
ATOM      4  C   UNL d   1      58.762  -1.104  29.588  0.00  0.00     0.084 A 
ATOM      5  C   UNL d   1      58.239  -1.710  29.788  0.00  0.00     0.100 A 
ATOM      6  C   UNL d   1      59.409  -1.261  29.101  0.00  0.00     0.019 A 
ATOM      7  C   UNL d   1      58.363  -2.473  29.502  0.00  0.00     0.021 A 
ATOM      8  C   UNL d   1      59.534  -2.025  28.815  0.00  0.00     0.002 A 
ATOM      9  C   UNL d   1      59.011  -2.631  29.016  0.00  0.00     0.002 A 
ENDROOT
BRANCH   2  10
ATOM     10  C   UNL d   1      58.858   0.337  29.900  0.00  0.00     0.082 C 
BRANCH  10  11
ATOM     11  C   UNL d   1      59.608   0.451  30.204  0.00  0.00     0.018 A 
ATOM     12  C   UNL d   1      60.266   0.514  29.700  0.00  0.00     0.002 A 
ATOM     13  C   UNL d   1      61.019   0.628  30.000  0.00  0.00     0.000 A 
ATOM     14  C   UNL d   1      61.133   0.682  30.804  0.00  0.00     0.000 A 
ATOM     15  C   UNL d   1      60.476   0.620  31.313  0.00  0.00     0.000 A 
ATOM     16  C   UNL d   1      59.725   0.506  31.009  0.00  0.00     0.002 A 
ENDBRANCH  10  11
ENDBRANCH   2  10
BRANCH   1  17
ATOM     17  S   UNL d   1      57.373  -0.061  30.816  0.00  0.00     0.174 S 
ATOM     18  O   UNL d   1      57.228   0.386  30.138  0.00  0.00    -0.589 OA
ATOM     19  O   UNL d   1      56.927   0.471  31.262  0.00  0.00    -0.589 OA
ATOM     20  O   UNL d   1      57.517  -0.509  31.495  0.00  0.00    -0.589 OA
ENDBRANCH   1  17
TORSDOF 3
ENDMDL
MODEL 4
REMARK VINA RESULT:      -1.4      1.645      3.303
REMARK  3 active torsions:
REMARK  status: ('A' for Active; 'I' for Inactive)
REMARK    1  A    between atoms: S_3  and  C_1 
REMARK    2  A    between atoms: C_7  and  N_2 
REMARK    3  A    between atoms: C_11  and  C_7 
ROOT
ATOM      1  C   UNL d   1      59.000  -0.133  29.619  0.00  0.00     0.255 A 
ATOM      2  N   UNL d   1      58.860   0.285  30.298  0.00  0.00    -0.278 N 
ATOM      3  N   UNL d   1      59.775  -0.354  29.588  0.00  0.00    -0.215 NA
ATOM      4  C   UNL d   1      59.581   0.332  30.719  0.00  0.00     0.084 A 
ATOM      5  C   UNL d   1      60.152  -0.067  30.276  0.00  0.00     0.100 A 
ATOM      6  C   UNL d   1      59.786   0.682  31.437  0.00  0.00     0.019 A 
ATOM      7  C   UNL d   1      60.928  -0.116  30.551  0.00  0.00     0.021 A 
ATOM      8  C   UNL d   1      60.563   0.632  31.713  0.00  0.00     0.002 A 
ATOM      9  C   UNL d   1      61.133   0.234  31.270  0.00  0.00     0.002 A 
ENDROOT
BRANCH   2  10
ATOM     10  C   UNL d   1      58.141   0.616  30.551  0.00  0.00     0.082 C 
BRANCH  10  11
ATOM     11  C   UNL d   1      57.696   0.244  31.127  0.00  0.00     0.018 A 
ATOM     12  C   UNL d   1      57.645   0.560  31.894  0.00  0.00     0.002 A 
ATOM     13  C   UNL d   1      57.199   0.192  32.474  0.00  0.00     0.000 A 
ATOM     14  C   UNL d   1      56.797  -0.495  32.305  0.00  0.00     0.000 A 
ATOM     15  C   UNL d   1      56.846  -0.815  31.536  0.00  0.00     0.000 A 
ATOM     16  C   UNL d   1      57.292  -0.444  30.960  0.00  0.00     0.002 A 
ENDBRANCH  10  11
ENDBRANCH   2  10
BRANCH   1  17
ATOM     17  S   UNL d   1      58.433  -0.306  29.045  0.00  0.00     0.174 S 
ATOM     18  O   UNL d   1      58.442  -1.098  29.276  0.00  0.00    -0.589 OA
ATOM     19  O   UNL d   1      57.867  -0.480  28.471  0.00  0.00    -0.589 OA
ATOM     20  O   UNL d   1      58.425   0.486  28.814  0.00  0.00    -0.589 OA
ENDBRANCH   1  17
TORSDOF 3
ENDMDL
MODEL 5
REMARK VINA RESULT:      -1.3      3.077      4.642
REMARK  3 active torsions:
REMARK  status: ('A' for Active; 'I' for Inactive)
REMARK    1  A    between atoms: S_3  and  C_1 
REMARK    2  A    between atoms: C_7  and  N_2 
REMARK    3  A    between atoms: C_11  and  C_7 
ROOT
ATOM      1  C   UNL d   1      56.250  -0.890  32.328  0.00  0.00     0.255 A 
ATOM      2  N   UNL d   1      56.526  -0.135  32.415  0.00  0.00    -0.278 N 
ATOM      3  N   UNL d   1      56.599  -1.239  31.690  0.00  0.00    -0.215 NA
ATOM      4  C   UNL d   1      57.078   0.005  31.803  0.00  0.00     0.084 A 
ATOM      5  C   UNL d   1      57.124  -0.684  31.350  0.00  0.00     0.100 A 
ATOM      6  C   UNL d   1      57.536   0.661  31.603  0.00  0.00     0.019 A 
ATOM      7  C   UNL d   1      57.628  -0.717  30.698  0.00  0.00     0.021 A 
ATOM      8  C   UNL d   1      58.041   0.628  30.951  0.00  0.00     0.002 A 
ATOM      9  C   UNL d   1      58.087  -0.060  30.499  0.00  0.00     0.002 A 
ENDROOT
BRANCH   2  10
ATOM     10  C   UNL d   1      56.315   0.419  32.998  0.00  0.00     0.082 C 
BRANCH  10  11
ATOM     11  C   UNL d   1      56.772   0.506  33.670  0.00  0.00     0.018 A 
ATOM     12  C   UNL d   1      57.599   0.570  33.617  0.00  0.00     0.002 A 
ATOM     13  C   UNL d   1      58.060   0.657  34.287  0.00  0.00     0.000 A 
ATOM     14  C   UNL d   1      57.712   0.682  35.022  0.00  0.00     0.000 A 
ATOM     15  C   UNL d   1      56.883   0.618  35.080  0.00  0.00     0.000 A 
ATOM     16  C   UNL d   1      56.425   0.531  34.407  0.00  0.00     0.002 A 
ENDBRANCH  10  11
ENDBRANCH   2  10
BRANCH   1  17
ATOM     17  S   UNL d   1      55.694  -1.250  32.820  0.00  0.00     0.174 S 
ATOM     18  O   UNL d   1      56.256  -1.811  33.045  0.00  0.00    -0.589 OA
ATOM     19  O   UNL d   1      55.138  -1.610  33.312  0.00  0.00    -0.589 OA
ATOM     20  O   UNL d   1      55.131  -0.689  32.595  0.00  0.00    -0.589 OA
ENDBRANCH   1  17
TORSDOF 3
ENDMDL
MODEL 6
REMARK VINA RESULT:       0.7      4.249      5.462
REMARK  3 active torsions:
REMARK  status: ('A' for Active; 'I' for Inactive)
REMARK    1  A    between atoms: S_3  and  C_1 
REMARK    2  A    between atoms: C_7  and  N_2 
REMARK    3  A    between atoms: C_11  and  C_7 
ROOT
ATOM      1  C   UNL d   1      55.533   0.606  34.250  0.00  0.00     0.255 A 
ATOM      2  N   UNL d   1      56.088   0.618  33.661  0.00  0.00    -0.278 N 
ATOM      3  N   UNL d   1      55.896   0.620  34.970  0.00  0.00    -0.215 NA
ATOM      4  C   UNL d   1      56.841   0.641  34.024  0.00  0.00     0.084 A 
ATOM      5  C   UNL d   1      56.721   0.642  34.840  0.00  0.00     0.100 A 
ATOM      6  C   UNL d   1      57.607   0.660  33.719  0.00  0.00     0.019 A 
ATOM      7  C   UNL d   1      57.367   0.663  35.352  0.00  0.00     0.021 A 
ATOM      8  C   UNL d   1      58.254   0.681  34.231  0.00  0.00     0.002 A 
ATOM      9  C   UNL d   1      58.134   0.682  35.047  0.00  0.00     0.002 A 
ENDROOT
BRANCH   2  10
ATOM     10  C   UNL d   1      55.957   0.610  32.841  0.00  0.00     0.082 C 
BRANCH  10  11
ATOM     11  C   UNL d   1      56.305   0.036  32.373  0.00  0.00     0.018 A 
ATOM     12  C   UNL d   1      56.844   0.244  31.776  0.00  0.00     0.002 A 
ATOM     13  C   UNL d   1      57.194  -0.327  31.305  0.00  0.00     0.000 A 
ATOM     14  C   UNL d   1      57.016  -1.113  31.417  0.00  0.00     0.000 A 
ATOM     15  C   UNL d   1      56.476  -1.326  32.014  0.00  0.00     0.000 A 
ATOM     16  C   UNL d   1      56.128  -0.752  32.483  0.00  0.00     0.002 A 
ENDBRANCH  10  11
ENDBRANCH   2  10
BRANCH   1  17
ATOM     17  S   UNL d   1      54.717   0.583  34.130  0.00  0.00     0.174 S 
ATOM     18  O   UNL d   1      54.833   0.675  33.319  0.00  0.00    -0.589 OA
ATOM     19  O   UNL d   1      53.901   0.559  34.011  0.00  0.00    -0.589 OA
ATOM     20  O   UNL d   1      54.600   0.490  34.943  0.00  0.00    -0.589 OA
ENDBRANCH   1  17
TORSDOF 3
ENDMDL
