MODEL 1
REMARK VINA RESULT:      41.8      0.000      0.000
REMARK  9 active torsions:
REMARK  status: ('A' for Active; 'I' for Inactive)
REMARK    1  A    between atoms: C_19  and  N_1 
REMARK    2  A    between atoms: S_15  and  C_2 
REMARK    3  A    between atoms: C_7  and  C_10 
REMARK       I    between atoms: N_12  and  C_7 
REMARK    4  A    between atoms: C_20  and  N_12 
REMARK    5  A    between atoms: C_22  and  S_15 
REMARK    6  A    between atoms: C_24  and  C_19 
REMARK    7  A    between atoms: C_21  and  C_20 
REMARK    8  A    between atoms: C_27  and  C_24 
REMARK    9  A    between atoms: C_26  and  C_27 
ROOT
ATOM      1  N   UNL d   1      42.501 -14.733  42.744  0.00  0.00    -0.195 NA
ATOM      2  C   UNL d   1      42.862 -14.314  43.359  0.00  0.00     0.086 C 
ATOM      3  C   UNL d   1      43.219 -13.897  43.972  0.00  0.00     0.170 C 
ENDROOT
BRANCH   3   4
ATOM      4  S   UNL d   1      43.967 -13.576  43.870  0.00  0.00    -0.060 SA
BRANCH   4   5
ATOM      5  C   UNL d   1      44.650 -14.015  44.103  0.00  0.00     0.178 A 
ATOM      6  N   UNL d   1      45.310 -13.627  44.414  0.00  0.00    -0.253 N 
ATOM      7  C   UNL d   1      45.973 -14.057  44.640  0.00  0.00     0.268 A 
ATOM      8  C   UNL d   1      45.975 -14.886  44.552  0.00  0.00     0.074 A 
ATOM      9  O   UNL d   1      46.635 -13.675  44.952  0.00  0.00    -0.267 OA
ATOM     10  C   UNL d   1      45.323 -15.270  44.244  0.00  0.00     0.088 A 
ATOM     11  C   UNL d   1      46.642 -15.319  44.779  0.00  0.00     0.006 A 
ATOM     12  C   UNL d   1      45.330 -16.091  44.159  0.00  0.00     0.024 A 
ATOM     13  N   UNL d   1      44.659 -14.838  44.018  0.00  0.00    -0.222 NA
ATOM     14  C   UNL d   1      45.993 -16.521  44.385  0.00  0.00     0.059 A 
ATOM     15  C   UNL d   1      46.645 -16.137  44.693  0.00  0.00     0.005 A 
BRANCH   6  16
ATOM     16  C   UNL d   1      45.297 -12.793  44.498  0.00  0.00     0.085 C 
BRANCH  16  17
ATOM     17  C   UNL d   1      45.594 -12.330  43.883  0.00  0.00     0.019 C 
BRANCH  17  18
ATOM     18  C   UNL d   1      45.442 -12.563  43.097  0.00  0.00     0.002 C 
BRANCH  18  19
ATOM     19  C   UNL d   1      45.952 -12.301  42.487  0.00  0.00     0.000 C 
ATOM     20  C   UNL d   1      45.792 -12.517  41.713  0.00  0.00     0.000 C 
ENDBRANCH  18  19
ENDBRANCH  17  18
ENDBRANCH  16  17
ENDBRANCH   6  16
BRANCH  14  21
ATOM     21  C   UNL d   1      45.999 -17.340  44.299  0.00  0.00     0.279 C 
ATOM     22  N   UNL d   1      46.419 -17.694  43.686  0.00  0.00    -0.204 NA
ATOM     23  O   UNL d   1      45.581 -17.814  44.832  0.00  0.00    -0.265 OA
BRANCH  22  24
ATOM     24  C   UNL d   1      46.425 -18.517  43.601  0.00  0.00     0.127 C 
BRANCH  24  25
ATOM     25  C   UNL d   1      46.296 -18.858  42.855  0.00  0.00     0.119 A 
ATOM     26  O   UNL d   1      46.240 -19.663  42.696  0.00  0.00    -0.304 OA
ATOM     27  C   UNL d   1      46.110 -19.756  41.885  0.00  0.00     0.123 A 
ATOM     28  C   UNL d   1      46.087 -19.001  41.545  0.00  0.00     0.029 A 
ATOM     29  C   UNL d   1      46.201 -18.452  42.144  0.00  0.00     0.028 A 
ENDBRANCH  24  25
ENDBRANCH  22  24
ENDBRANCH  14  21
ENDBRANCH   4   5
ENDBRANCH   3   4
TORSDOF 9
ENDMDL
