MODEL 1
REMARK VINA RESULT:      58.9      0.000      0.000
REMARK  3 active torsions:
REMARK  status: ('A' for Active; 'I' for Inactive)
REMARK    1  A    between atoms: S_2  and  N_1 
REMARK    2  A    between atoms: C_8  and  S_2 
REMARK       I    between atoms: C_14  and  N_15 
REMARK    3  A    between atoms: N_15  and  C_19 
ROOT
ATOM      1  S   UNL d   1      45.385 -12.625  42.680  0.00  0.00     0.273 S 
ATOM      2  O   UNL d   1      46.009 -12.428  42.177  0.00  0.00    -0.200 OA
ATOM      3  O   UNL d   1      44.625 -12.704  42.380  0.00  0.00    -0.200 OA
ENDROOT
BRANCH   1   4
ATOM      4  N   UNL d   1      45.519 -12.744  43.484  0.00  0.00    -0.212 N 
ATOM      5  C   UNL d   1      45.585 -13.508  43.789  0.00  0.00     0.094 A 
ATOM      6  C   UNL d   1      45.719 -13.620  44.597  0.00  0.00     0.100 A 
ATOM      7  C   UNL d   1      45.518 -14.165  43.288  0.00  0.00     0.020 A 
ATOM      8  C   UNL d   1      45.786 -14.389  44.910  0.00  0.00     0.021 A 
ATOM      9  N   UNL d   1      45.720 -12.200  44.801  0.00  0.00    -0.223 NA
ATOM     10  C   UNL d   1      45.718 -15.049  44.400  0.00  0.00     0.002 A 
ATOM     11  C   UNL d   1      45.585 -14.929  43.593  0.00  0.00     0.002 A 
ATOM     12  C   UNL d   1      45.784 -15.808  44.701  0.00  0.00     0.000 C 
ATOM     13  C   UNL d   1      45.517 -15.572  43.086  0.00  0.00     0.000 C 
ATOM     14  C   UNL d   1      45.586 -12.088  43.989  0.00  0.00     0.193 A 
ENDBRANCH   1   4
BRANCH   1  15
ATOM     15  C   UNL d   1      45.237 -12.509  41.879  0.00  0.00     0.104 A 
ATOM     16  C   UNL d   1      45.805 -12.702  41.321  0.00  0.00     0.014 A 
ATOM     17  C   UNL d   1      45.653 -12.584  40.521  0.00  0.00     0.020 A 
ATOM     18  C   UNL d   1      44.925 -12.272  40.281  0.00  0.00     0.085 A 
ATOM     19  C   UNL d   1      44.359 -12.081  40.848  0.00  0.00     0.020 A 
ATOM     20  C   UNL d   1      44.507 -12.196  41.644  0.00  0.00     0.014 A 
BRANCH  18  21
ATOM     21  N   UNL d   1      44.782 -12.158  39.482  0.00  0.00    -0.208 NA
ATOM     22  C   UNL d   1      44.604 -12.807  39.007  0.00  0.00     0.279 C 
ATOM     23  O   UNL d   1      44.458 -12.706  38.203  0.00  0.00    -0.265 OA
ATOM     24  C   UNL d   1      44.570 -13.564  39.330  0.00  0.00     0.068 C 
ENDBRANCH  18  21
ENDBRANCH   1  15
TORSDOF 3
ENDMDL
