MODEL 1
REMARK VINA RESULT:      -3.8      0.000      0.000
REMARK  3 active torsions:
REMARK  status: ('A' for Active; 'I' for Inactive)
REMARK       I    between atoms: N_3  and  C_1 
REMARK    1  A    between atoms: C_6  and  C_1 
REMARK    2  A    between atoms: N_2  and  C_4 
REMARK    3  A    between atoms: C_9  and  N_3 
ROOT
ATOM      1  C   UNL d   1      33.226  19.256 -22.801  0.00  0.00     0.064 A 
ATOM      2  C   UNL d   1      33.240  19.216 -21.971  0.00  0.00     0.019 A 
ATOM      3  C   UNL d   1      33.214  19.992 -23.189  0.00  0.00     0.019 A 
ATOM      4  C   UNL d   1      33.228  20.656 -21.931  0.00  0.00     0.085 A 
ATOM      5  C   UNL d   1      33.241  19.920 -21.543  0.00  0.00     0.021 A 
ATOM      6  C   UNL d   1      33.215  20.692 -22.750  0.00  0.00     0.021 A 
ENDROOT
BRANCH   4   7
ATOM      7  N   UNL d   1      33.230  21.360 -21.484  0.00  0.00    -0.208 NA
ATOM      8  C   UNL d   1      32.541  21.612 -21.104  0.00  0.00     0.279 C 
ATOM      9  O   UNL d   1      31.842  21.164 -21.167  0.00  0.00    -0.265 OA
BRANCH   8  10
ATOM     10  C   UNL d   1      32.544  22.313 -20.660  0.00  0.00     0.058 A 
ATOM     11  C   UNL d   1      32.162  22.988 -20.963  0.00  0.00     0.005 A 
ATOM     12  C   UNL d   1      32.168  23.681 -20.520  0.00  0.00     0.000 A 
ATOM     13  C   UNL d   1      32.553  23.702 -19.777  0.00  0.00     0.000 A 
ATOM     14  C   UNL d   1      32.924  23.030 -19.493  0.00  0.00     0.000 A 
ATOM     15  C   UNL d   1      32.923  22.334 -19.929  0.00  0.00     0.005 A 
ENDBRANCH   8  10
ENDBRANCH   4   7
BRANCH   1  16
ATOM     16  N   UNL d   1      33.225  18.545 -23.243  0.00  0.00    -0.304 N 
ATOM     17  C   UNL d   1      33.216  18.575 -24.061  0.00  0.00     0.080 A 
ATOM     18  C   UNL d   1      33.215  17.863 -24.503  0.00  0.00     0.019 A 
ATOM     19  C   UNL d   1      33.223  17.145 -24.099  0.00  0.00     0.003 A 
ATOM     20  C   UNL d   1      33.232  17.123 -23.280  0.00  0.00     0.019 A 
ATOM     21  C   UNL d   1      33.233  17.819 -22.848  0.00  0.00     0.080 A 
ENDBRANCH   1  16
TORSDOF 3
ENDMDL
MODEL 2
REMARK VINA RESULT:      -3.0      0.805      4.992
REMARK  3 active torsions:
REMARK  status: ('A' for Active; 'I' for Inactive)
REMARK       I    between atoms: N_3  and  C_1 
REMARK    1  A    between atoms: C_6  and  C_1 
REMARK    2  A    between atoms: N_2  and  C_4 
REMARK    3  A    between atoms: C_9  and  N_3 
ROOT
ATOM      1  C   UNL d   1      32.894  21.535 -21.153  0.00  0.00     0.064 A 
ATOM      2  C   UNL d   1      32.783  20.828 -20.731  0.00  0.00     0.019 A 
ATOM      3  C   UNL d   1      33.119  21.519 -21.954  0.00  0.00     0.019 A 
ATOM      4  C   UNL d   1      33.126  20.098 -21.925  0.00  0.00     0.085 A 
ATOM      5  C   UNL d   1      32.901  20.113 -21.124  0.00  0.00     0.021 A 
ATOM      6  C   UNL d   1      33.234  20.797 -22.338  0.00  0.00     0.021 A 
ENDROOT
BRANCH   4   7
ATOM      7  N   UNL d   1      33.241  19.366 -22.308  0.00  0.00    -0.208 NA
ATOM      8  C   UNL d   1      32.730  19.130 -22.913  0.00  0.00     0.279 C 
ATOM      9  O   UNL d   1      32.099  19.621 -23.142  0.00  0.00    -0.265 OA
BRANCH   8  10
ATOM     10  C   UNL d   1      32.847  18.401 -23.293  0.00  0.00     0.058 A 
ATOM     11  C   UNL d   1      32.875  18.377 -24.125  0.00  0.00     0.005 A 
ATOM     12  C   UNL d   1      32.990  17.653 -24.499  0.00  0.00     0.000 A 
ATOM     13  C   UNL d   1      33.079  16.955 -24.046  0.00  0.00     0.000 A 
ATOM     14  C   UNL d   1      33.049  16.995 -23.229  0.00  0.00     0.000 A 
ATOM     15  C   UNL d   1      32.934  17.714 -22.847  0.00  0.00     0.005 A 
ENDBRANCH   8  10
ENDBRANCH   4   7
BRANCH   1  16
ATOM     16  N   UNL d   1      32.776  22.266 -20.761  0.00  0.00    -0.304 N 
ATOM     17  C   UNL d   1      32.240  22.807 -21.062  0.00  0.00     0.080 A 
ATOM     18  C   UNL d   1      32.122  23.538 -20.669  0.00  0.00     0.019 A 
ATOM     19  C   UNL d   1      32.553  23.694 -19.985  0.00  0.00     0.003 A 
ATOM     20  C   UNL d   1      33.088  23.148 -19.690  0.00  0.00     0.019 A 
ATOM     21  C   UNL d   1      33.203  22.433 -20.074  0.00  0.00     0.080 A 
ENDBRANCH   1  16
TORSDOF 3
ENDMDL
MODEL 3
REMARK VINA RESULT:      -3.0      1.220      5.347
REMARK  3 active torsions:
REMARK  status: ('A' for Active; 'I' for Inactive)
REMARK       I    between atoms: N_3  and  C_1 
REMARK    1  A    between atoms: C_6  and  C_1 
REMARK    2  A    between atoms: N_2  and  C_4 
REMARK    3  A    between atoms: C_9  and  N_3 
ROOT
ATOM      1  C   UNL d   1      32.993  20.273 -22.145  0.00  0.00     0.064 A 
ATOM      2  C   UNL d   1      32.908  20.262 -22.971  0.00  0.00     0.019 A 
ATOM      3  C   UNL d   1      33.159  19.573 -21.727  0.00  0.00     0.019 A 
ATOM      4  C   UNL d   1      33.158  18.844 -22.948  0.00  0.00     0.085 A 
ATOM      5  C   UNL d   1      32.993  19.544 -23.366  0.00  0.00     0.021 A 
ATOM      6  C   UNL d   1      33.241  18.858 -22.133  0.00  0.00     0.021 A 
ENDROOT
BRANCH   4   7
ATOM      7  N   UNL d   1      33.241  18.125 -23.362  0.00  0.00    -0.208 NA
ATOM      8  C   UNL d   1      32.588  17.629 -23.468  0.00  0.00     0.279 C 
ATOM      9  O   UNL d   1      31.846  17.847 -23.161  0.00  0.00    -0.265 OA
BRANCH   8  10
ATOM     10  C   UNL d   1      32.673  16.914 -23.880  0.00  0.00     0.058 A 
ATOM     11  C   UNL d   1      32.964  16.245 -23.478  0.00  0.00     0.005 A 
ATOM     12  C   UNL d   1      33.046  15.538 -23.890  0.00  0.00     0.000 A 
ATOM     13  C   UNL d   1      32.839  15.495 -24.700  0.00  0.00     0.000 A 
ATOM     14  C   UNL d   1      32.555  16.162 -25.080  0.00  0.00     0.000 A 
ATOM     15  C   UNL d   1      32.469  16.872 -24.677  0.00  0.00     0.005 A 
ENDBRANCH   8  10
ENDBRANCH   4   7
BRANCH   1  16
ATOM     16  N   UNL d   1      32.908  20.999 -21.737  0.00  0.00    -0.304 N 
ATOM     17  C   UNL d   1      32.524  21.017 -21.014  0.00  0.00     0.080 A 
ATOM     18  C   UNL d   1      32.440  21.743 -20.605  0.00  0.00     0.019 A 
ATOM     19  C   UNL d   1      32.749  22.428 -20.945  0.00  0.00     0.003 A 
ATOM     20  C   UNL d   1      33.132  22.402 -21.668  0.00  0.00     0.019 A 
ATOM     21  C   UNL d   1      33.215  21.691 -22.068  0.00  0.00     0.080 A 
ENDBRANCH   1  16
TORSDOF 3
ENDMDL
