MODEL 1
REMARK VINA RESULT:      -2.3      0.000      0.000
REMARK  0 active torsions:
REMARK  status: ('A' for Active; 'I' for Inactive)
ROOT
ATOM      1  N   UNL d   1      31.935  22.242 -21.258  0.00  0.00    -0.219 NA
ATOM      2  C   UNL d   1      32.394  21.684 -20.859  0.00  0.00     0.215 A 
ATOM      3  S   UNL d   1      32.831  22.071 -20.285  0.00  0.00    -0.045 SA
ATOM      4  C   UNL d   1      32.093  22.980 -20.925  0.00  0.00     0.090 A 
ATOM      5  C   UNL d   1      32.650  22.879 -20.319  0.00  0.00     0.050 A 
ATOM      6  N   UNL d   1      32.409  20.871 -21.013  0.00  0.00    -0.120 N 
ATOM      7  C   UNL d   1      31.757  23.699 -21.152  0.00  0.00     0.021 C 
ATOM      8  C   UNL d   1      32.965  23.465 -19.840  0.00  0.00     0.009 C 
ENDROOT
TORSDOF 0
ENDMDL
MODEL 2
REMARK VINA RESULT:      -2.2      1.154      2.110
REMARK  0 active torsions:
REMARK  status: ('A' for Active; 'I' for Inactive)
ROOT
ATOM      1  N   UNL d   1      31.939  22.258 -20.733  0.00  0.00    -0.219 NA
ATOM      2  C   UNL d   1      32.021  23.004 -21.075  0.00  0.00     0.215 A 
ATOM      3  S   UNL d   1      32.512  22.938 -21.728  0.00  0.00    -0.045 SA
ATOM      4  C   UNL d   1      32.385  21.728 -21.181  0.00  0.00     0.090 A 
ATOM      5  C   UNL d   1      32.743  22.146 -21.802  0.00  0.00     0.050 A 
ATOM      6  N   UNL d   1      31.668  23.702 -20.804  0.00  0.00    -0.120 N 
ATOM      7  C   UNL d   1      32.464  20.919 -21.042  0.00  0.00     0.021 C 
ATOM      8  C   UNL d   1      33.234  21.839 -22.382  0.00  0.00     0.009 C 
ENDROOT
TORSDOF 0
ENDMDL
MODEL 3
REMARK VINA RESULT:      -2.1      1.381      1.993
REMARK  0 active torsions:
REMARK  status: ('A' for Active; 'I' for Inactive)
ROOT
ATOM      1  N   UNL d   1      32.650  22.485 -19.752  0.00  0.00    -0.219 NA
ATOM      2  C   UNL d   1      32.723  23.293 -19.603  0.00  0.00     0.215 A 
ATOM      3  S   UNL d   1      32.509  23.702 -20.279  0.00  0.00    -0.045 SA
ATOM      4  C   UNL d   1      32.389  22.398 -20.529  0.00  0.00     0.090 A 
ATOM      5  C   UNL d   1      32.299  23.152 -20.862  0.00  0.00     0.050 A 
ATOM      6  N   UNL d   1      32.970  23.633 -18.889  0.00  0.00    -0.120 N 
ATOM      7  C   UNL d   1      32.240  21.684 -20.916  0.00  0.00     0.021 C 
ATOM      8  C   UNL d   1      32.051  23.326 -21.623  0.00  0.00     0.009 C 
ENDROOT
TORSDOF 0
ENDMDL
MODEL 4
REMARK VINA RESULT:      -1.9      0.924      1.371
REMARK  0 active torsions:
REMARK  status: ('A' for Active; 'I' for Inactive)
ROOT
ATOM      1  N   UNL d   1      33.241  21.574 -20.170  0.00  0.00    -0.219 NA
ATOM      2  C   UNL d   1      32.900  21.198 -20.821  0.00  0.00     0.215 A 
ATOM      3  S   UNL d   1      32.399  21.727 -21.194  0.00  0.00    -0.045 SA
ATOM      4  C   UNL d   1      32.945  22.343 -20.144  0.00  0.00     0.090 A 
ATOM      5  C   UNL d   1      32.420  22.444 -20.778  0.00  0.00     0.050 A 
ATOM      6  N   UNL d   1      33.042  20.416 -21.057  0.00  0.00    -0.120 N 
ATOM      7  C   UNL d   1      33.134  22.919 -19.584  0.00  0.00     0.021 C 
ATOM      8  C   UNL d   1      32.000  23.122 -20.964  0.00  0.00     0.009 C 
ENDROOT
TORSDOF 0
ENDMDL
MODEL 5
REMARK VINA RESULT:      -1.8      7.506      7.638
REMARK  0 active torsions:
REMARK  status: ('A' for Active; 'I' for Inactive)
ROOT
ATOM      1  N   UNL d   1      29.447  15.766 -23.175  0.00  0.00    -0.219 NA
ATOM      2  C   UNL d   1      30.199  15.846 -23.507  0.00  0.00     0.215 A 
ATOM      3  S   UNL d   1      30.154  16.380 -24.127  0.00  0.00    -0.045 SA
ATOM      4  C   UNL d   1      28.936  16.257 -23.597  0.00  0.00     0.090 A 
ATOM      5  C   UNL d   1      29.370  16.641 -24.190  0.00  0.00     0.050 A 
ATOM      6  N   UNL d   1      30.883  15.453 -23.255  0.00  0.00    -0.120 N 
ATOM      7  C   UNL d   1      28.128  16.353 -23.458  0.00  0.00     0.021 C 
ATOM      8  C   UNL d   1      29.083  17.178 -24.739  0.00  0.00     0.009 C 
ENDROOT
TORSDOF 0
ENDMDL
MODEL 6
REMARK VINA RESULT:      -1.8      7.390      7.683
REMARK  0 active torsions:
REMARK  status: ('A' for Active; 'I' for Inactive)
ROOT
ATOM      1  N   UNL d   1      29.981  16.832 -24.367  0.00  0.00    -0.219 NA
ATOM      2  C   UNL d   1      29.190  17.061 -24.426  0.00  0.00     0.215 A 
ATOM      3  S   UNL d   1      28.742  16.577 -23.940  0.00  0.00    -0.045 SA
ATOM      4  C   UNL d   1      30.018  16.200 -23.839  0.00  0.00     0.090 A 
ATOM      5  C   UNL d   1      29.251  16.037 -23.570  0.00  0.00     0.050 A 
ATOM      6  N   UNL d   1      28.898  17.677 -24.897  0.00  0.00    -0.120 N 
ATOM      7  C   UNL d   1      30.700  15.794 -23.613  0.00  0.00     0.021 C 
ATOM      8  C   UNL d   1      29.031  15.453 -23.039  0.00  0.00     0.009 C 
ENDROOT
TORSDOF 0
ENDMDL
MODEL 7
REMARK VINA RESULT:      -1.8      7.280      7.609
REMARK  0 active torsions:
REMARK  status: ('A' for Active; 'I' for Inactive)
ROOT
ATOM      1  N   UNL d   1      29.489  15.872 -23.381  0.00  0.00    -0.219 NA
ATOM      2  C   UNL d   1      28.828  16.226 -23.726  0.00  0.00     0.215 A 
ATOM      3  S   UNL d   1      29.084  16.762 -24.289  0.00  0.00    -0.045 SA
ATOM      4  C   UNL d   1      30.159  16.196 -23.738  0.00  0.00     0.090 A 
ATOM      5  C   UNL d   1      29.913  16.750 -24.304  0.00  0.00     0.050 A 
ATOM      6  N   UNL d   1      28.039  16.065 -23.534  0.00  0.00    -0.120 N 
ATOM      7  C   UNL d   1      30.943  16.005 -23.565  0.00  0.00     0.021 C 
ATOM      8  C   UNL d   1      30.394  17.203 -24.788  0.00  0.00     0.009 C 
ENDROOT
TORSDOF 0
ENDMDL
MODEL 8
REMARK VINA RESULT:      -1.7      6.111      6.729
REMARK  0 active torsions:
REMARK  status: ('A' for Active; 'I' for Inactive)
ROOT
ATOM      1  N   UNL d   1      31.723  16.617 -23.392  0.00  0.00    -0.219 NA
ATOM      2  C   UNL d   1      31.063  16.160 -23.581  0.00  0.00     0.215 A 
ATOM      3  S   UNL d   1      30.667  16.519 -24.202  0.00  0.00    -0.045 SA
ATOM      4  C   UNL d   1      31.732  17.265 -23.903  0.00  0.00     0.090 A 
ATOM      5  C   UNL d   1      31.077  17.208 -24.409  0.00  0.00     0.050 A 
ATOM      6  N   UNL d   1      30.839  15.456 -23.207  0.00  0.00    -0.120 N 
ATOM      7  C   UNL d   1      32.294  17.869 -23.914  0.00  0.00     0.021 C 
ATOM      8  C   UNL d   1      30.870  17.733 -25.003  0.00  0.00     0.009 C 
ENDROOT
TORSDOF 0
ENDMDL
MODEL 9
REMARK VINA RESULT:      -1.7      5.522      6.240
REMARK  0 active torsions:
REMARK  status: ('A' for Active; 'I' for Inactive)
ROOT
ATOM      1  N   UNL d   1      32.244  16.955 -23.206  0.00  0.00    -0.219 NA
ATOM      2  C   UNL d   1      32.603  17.689 -23.324  0.00  0.00     0.215 A 
ATOM      3  S   UNL d   1      32.231  18.062 -23.952  0.00  0.00    -0.045 SA
ATOM      4  C   UNL d   1      31.646  16.877 -23.769  0.00  0.00     0.090 A 
ATOM      5  C   UNL d   1      31.633  17.563 -24.235  0.00  0.00     0.050 A 
ATOM      6  N   UNL d   1      33.232  17.997 -22.882  0.00  0.00    -0.120 N 
ATOM      7  C   UNL d   1      31.142  16.229 -23.857  0.00  0.00     0.021 C 
ATOM      8  C   UNL d   1      31.127  17.722 -24.860  0.00  0.00     0.009 C 
ENDROOT
TORSDOF 0
ENDMDL
