MODEL 1
REMARK VINA RESULT:      55.2      0.000      0.000
REMARK  3 active torsions:
REMARK  status: ('A' for Active; 'I' for Inactive)
REMARK    1  A    between atoms: N_2  and  C_1 
REMARK       I    between atoms: C_4  and  N_2 
REMARK    2  A    between atoms: C_8  and  C_4 
REMARK    3  A    between atoms: C_10  and  C_5 
ROOT
ATOM      1  C   UNL d   1     -49.448  27.177  33.801  0.00  0.00     0.197 A 
ATOM      2  N   UNL d   1     -50.247  27.037  33.852  0.00  0.00    -0.221 NA
ATOM      3  C   UNL d   1     -50.350  26.244  33.539  0.00  0.00     0.090 A 
ATOM      4  S   UNL d   1     -49.044  26.528  33.478  0.00  0.00    -0.046 SA
ATOM      5  C   UNL d   1     -49.594  25.955  33.317  0.00  0.00     0.058 A 
ENDROOT
BRANCH   1   6
ATOM      6  N   UNL d   1     -49.073  27.897  34.047  0.00  0.00    -0.183 NA
ATOM      7  C   UNL d   1     -48.735  27.928  34.819  0.00  0.00     0.281 C 
ATOM      8  O   UNL d   1     -48.770  27.269  35.322  0.00  0.00    -0.265 OA
BRANCH   7   9
ATOM      9  C   UNL d   1     -48.363  28.612  35.092  0.00  0.00     0.058 A 
ATOM     10  C   UNL d   1     -48.073  28.618  35.855  0.00  0.00     0.006 A 
ATOM     11  C   UNL d   1     -47.694  29.309  36.141  0.00  0.00     0.012 A 
ATOM     12  C   UNL d   1     -47.608  29.977  35.671  0.00  0.00     0.058 A 
ATOM     13  C   UNL d   1     -47.910  29.960  34.886  0.00  0.00     0.012 A 
ATOM     14 CL   UNL d   1     -47.268  30.611  35.910  0.00  0.00    -0.082 Cl
ATOM     15  C   UNL d   1     -48.288  29.272  34.602  0.00  0.00     0.006 A 
ENDBRANCH   7   9
ENDBRANCH   1   6
BRANCH   3  16
ATOM     16  C   UNL d   1     -51.051  25.826  33.462  0.00  0.00     0.018 A 
ATOM     17  C   UNL d   1     -51.056  25.003  33.428  0.00  0.00     0.002 A 
ATOM     18  C   UNL d   1     -51.771  24.577  33.349  0.00  0.00     0.000 A 
ATOM     19  C   UNL d   1     -52.486  25.003  33.306  0.00  0.00     0.000 A 
ATOM     20  C   UNL d   1     -52.476  25.823  33.340  0.00  0.00     0.000 A 
ATOM     21  C   UNL d   1     -51.753  26.234  33.418  0.00  0.00     0.002 A 
ENDBRANCH   3  16
TORSDOF 3
ENDMDL
