MODEL 1
REMARK VINA RESULT:      -6.7      0.000      0.000
REMARK  6 active torsions:
REMARK  status: ('A' for Active; 'I' for Inactive)
REMARK    1  A    between atoms: S_15  and  C_4 
REMARK    2  A    between atoms: C_7  and  N_13 
REMARK    3  A    between atoms: S_20  and  C_11 
REMARK       I    between atoms: N_13  and  C_16 
REMARK    4  A    between atoms: C_21  and  S_15 
REMARK    5  A    between atoms: C_16  and  C_21 
REMARK    6  A    between atoms: C_23  and  S_20 
ROOT
ATOM      1  S   UNL d   1     -49.128  12.014  22.902  0.00  0.00    -0.044 SA
ENDROOT
BRANCH   1   2
ATOM      2  C   UNL d   1     -49.561  12.712  22.760  0.00  0.00     0.182 A 
ATOM      3  N   UNL d   1     -49.581  13.313  23.338  0.00  0.00    -0.222 NA
ATOM      4  C   UNL d   1     -50.004  13.995  23.199  0.00  0.00     0.095 A 
ATOM      5  C   UNL d   1     -50.414  14.096  22.490  0.00  0.00     0.104 A 
ATOM      6  C   UNL d   1     -50.120  14.668  23.660  0.00  0.00     0.026 A 
ATOM      7  C   UNL d   1     -50.400  13.514  21.920  0.00  0.00     0.274 A 
ATOM      8  S   UNL d   1     -50.782  14.830  22.514  0.00  0.00    -0.081 SA
ATOM      9  N   UNL d   1     -49.971  12.813  22.051  0.00  0.00    -0.251 N 
ATOM     10  O   UNL d   1     -50.810  13.615  21.211  0.00  0.00    -0.266 OA
ATOM     11  C   UNL d   1     -49.955  12.217  21.472  0.00  0.00     0.104 C 
ATOM     12  C   UNL d   1     -50.597  15.182  23.242  0.00  0.00     0.031 A 
ATOM     13  C   UNL d   1     -50.847  15.922  23.507  0.00  0.00     0.007 C 
ENDBRANCH   1   2
BRANCH   1  14
ATOM     14  C   UNL d   1     -48.340  12.065  23.144  0.00  0.00     0.101 C 
BRANCH  14  15
ATOM     15  C   UNL d   1     -47.956  11.398  23.442  0.00  0.00     0.288 C 
ATOM     16  N   UNL d   1     -47.132  11.381  23.487  0.00  0.00    -0.181 NA
ATOM     17  O   UNL d   1     -48.396  10.746  23.694  0.00  0.00    -0.265 OA
BRANCH  16  18
ATOM     18  C   UNL d   1     -46.693  12.033  23.235  0.00  0.00     0.219 A 
ATOM     19  S   UNL d   1     -46.238  12.170  22.565  0.00  0.00    -0.019 SA
ATOM     20  C   UNL d   1     -45.927  12.927  22.613  0.00  0.00     0.165 A 
ATOM     21  N   UNL d   1     -46.188  13.255  23.306  0.00  0.00    -0.133 NA
ATOM     22  N   UNL d   1     -46.662  12.710  23.697  0.00  0.00    -0.120 NA
BRANCH  20  23
ATOM     23  S   UNL d   1     -45.438  13.298  22.061  0.00  0.00    -0.059 SA
BRANCH  23  24
ATOM     24  C   UNL d   1     -44.781  12.902  21.772  0.00  0.00     0.037 C 
ATOM     25  C   UNL d   1     -44.096  13.333  21.571  0.00  0.00     0.008 C 
ENDBRANCH  23  24
ENDBRANCH  20  23
ENDBRANCH  16  18
ENDBRANCH  14  15
ENDBRANCH   1  14
TORSDOF 6
ENDMDL
MODEL 2
REMARK VINA RESULT:      -5.4      1.683      2.616
REMARK  6 active torsions:
REMARK  status: ('A' for Active; 'I' for Inactive)
REMARK    1  A    between atoms: S_15  and  C_4 
REMARK    2  A    between atoms: C_7  and  N_13 
REMARK    3  A    between atoms: S_20  and  C_11 
REMARK       I    between atoms: N_13  and  C_16 
REMARK    4  A    between atoms: C_21  and  S_15 
REMARK    5  A    between atoms: C_16  and  C_21 
REMARK    6  A    between atoms: C_23  and  S_20 
ROOT
ATOM      1  S   UNL d   1     -48.451  14.541  22.389  0.00  0.00    -0.044 SA
ENDROOT
BRANCH   1   2
ATOM      2  C   UNL d   1     -49.106  14.145  22.720  0.00  0.00     0.182 A 
ATOM      3  N   UNL d   1     -49.124  13.312  22.733  0.00  0.00    -0.222 NA
ATOM      4  C   UNL d   1     -49.764  12.926  23.056  0.00  0.00     0.095 A 
ATOM      5  C   UNL d   1     -50.395  13.353  23.372  0.00  0.00     0.104 A 
ATOM      6  C   UNL d   1     -49.929  12.123  23.143  0.00  0.00     0.026 A 
ATOM      7  C   UNL d   1     -50.386  14.167  23.364  0.00  0.00     0.274 A 
ATOM      8  S   UNL d   1     -50.949  12.814  23.653  0.00  0.00    -0.081 SA
ATOM      9  N   UNL d   1     -49.737  14.573  23.036  0.00  0.00    -0.251 N 
ATOM     10  O   UNL d   1     -51.017  14.595  23.680  0.00  0.00    -0.266 OA
ATOM     11  C   UNL d   1     -49.724  15.404  23.026  0.00  0.00     0.104 C 
ATOM     12  C   UNL d   1     -50.656  12.053  23.509  0.00  0.00     0.031 A 
ATOM     13  C   UNL d   1     -51.026  11.340  23.698  0.00  0.00     0.007 C 
ENDBRANCH   1   2
BRANCH   1  14
ATOM     14  C   UNL d   1     -47.689  14.355  22.646  0.00  0.00     0.101 C 
BRANCH  14  15
ATOM     15  C   UNL d   1     -47.053  14.840  22.440  0.00  0.00     0.288 C 
ATOM     16  N   UNL d   1     -46.280  14.562  22.516  0.00  0.00    -0.181 NA
ATOM     17  O   UNL d   1     -47.192  15.603  22.157  0.00  0.00    -0.265 OA
BRANCH  16  18
ATOM     18  C   UNL d   1     -46.143  13.798  22.799  0.00  0.00     0.219 A 
ATOM     19  S   UNL d   1     -45.852  13.119  22.442  0.00  0.00    -0.019 SA
ATOM     20  C   UNL d   1     -45.837  12.518  23.001  0.00  0.00     0.165 A 
ATOM     21  N   UNL d   1     -46.117  12.825  23.696  0.00  0.00    -0.133 NA
ATOM     22  N   UNL d   1     -46.308  13.615  23.582  0.00  0.00    -0.120 NA
BRANCH  20  23
ATOM     23  S   UNL d   1     -45.586  11.740  22.887  0.00  0.00    -0.059 SA
BRANCH  23  24
ATOM     24  C   UNL d   1     -45.993  11.126  23.247  0.00  0.00     0.037 C 
ATOM     25  C   UNL d   1     -45.612  10.394  23.368  0.00  0.00     0.008 C 
ENDBRANCH  23  24
ENDBRANCH  20  23
ENDBRANCH  16  18
ENDBRANCH  14  15
ENDBRANCH   1  14
TORSDOF 6
ENDMDL
MODEL 3
REMARK VINA RESULT:      -4.9      8.292     10.183
REMARK  6 active torsions:
REMARK  status: ('A' for Active; 'I' for Inactive)
REMARK    1  A    between atoms: S_15  and  C_4 
REMARK    2  A    between atoms: C_7  and  N_13 
REMARK    3  A    between atoms: S_20  and  C_11 
REMARK       I    between atoms: N_13  and  C_16 
REMARK    4  A    between atoms: C_21  and  S_15 
REMARK    5  A    between atoms: C_16  and  C_21 
REMARK    6  A    between atoms: C_23  and  S_20 
ROOT
ATOM      1  S   UNL d   1     -40.849  15.111  18.744  0.00  0.00    -0.044 SA
ENDROOT
BRANCH   1   2
ATOM      2  C   UNL d   1     -40.522  15.070  19.511  0.00  0.00     0.182 A 
ATOM      3  N   UNL d   1     -39.875  15.555  19.713  0.00  0.00    -0.222 NA
ATOM      4  C   UNL d   1     -39.557  15.514  20.461  0.00  0.00     0.095 A 
ATOM      5  C   UNL d   1     -39.870  14.996  21.022  0.00  0.00     0.104 A 
ATOM      6  C   UNL d   1     -38.929  15.920  20.809  0.00  0.00     0.026 A 
ATOM      7  C   UNL d   1     -40.502  14.519  20.833  0.00  0.00     0.274 A 
ATOM      8  S   UNL d   1     -39.436  15.082  21.715  0.00  0.00    -0.081 SA
ATOM      9  N   UNL d   1     -40.836  14.552  20.071  0.00  0.00    -0.251 N 
ATOM     10  O   UNL d   1     -40.816  14.001  21.394  0.00  0.00    -0.266 OA
ATOM     11  C   UNL d   1     -41.481  14.066  19.874  0.00  0.00     0.104 C 
ATOM     12  C   UNL d   1     -38.854  15.655  21.579  0.00  0.00     0.031 A 
ATOM     13  C   UNL d   1     -38.290  15.921  22.119  0.00  0.00     0.007 C 
ENDBRANCH   1   2
BRANCH   1  14
ATOM     14  C   UNL d   1     -40.355  15.041  18.087  0.00  0.00     0.101 C 
BRANCH  14  15
ATOM     15  C   UNL d   1     -40.646  15.205  17.332  0.00  0.00     0.288 C 
ATOM     16  N   UNL d   1     -40.206  15.000  16.665  0.00  0.00    -0.181 NA
ATOM     17  O   UNL d   1     -41.379  15.576  17.245  0.00  0.00    -0.265 OA
BRANCH  16  18
ATOM     18  C   UNL d   1     -39.474  14.630  16.753  0.00  0.00     0.219 A 
ATOM     19  S   UNL d   1     -39.259  13.852  16.903  0.00  0.00    -0.019 SA
ATOM     20  C   UNL d   1     -38.441  13.808  16.933  0.00  0.00     0.165 A 
ATOM     21  N   UNL d   1     -38.152  14.554  16.803  0.00  0.00    -0.133 NA
ATOM     22  N   UNL d   1     -38.783  15.069  16.691  0.00  0.00    -0.120 NA
BRANCH  20  23
ATOM     23  S   UNL d   1     -37.984  13.135  17.069  0.00  0.00    -0.059 SA
BRANCH  23  24
ATOM     24  C   UNL d   1     -38.156  12.652  17.709  0.00  0.00     0.037 C 
ATOM     25  C   UNL d   1     -37.940  11.846  17.687  0.00  0.00     0.008 C 
ENDBRANCH  23  24
ENDBRANCH  20  23
ENDBRANCH  16  18
ENDBRANCH  14  15
ENDBRANCH   1  14
TORSDOF 6
ENDMDL
MODEL 4
REMARK VINA RESULT:      -4.1      9.027     10.488
REMARK  6 active torsions:
REMARK  status: ('A' for Active; 'I' for Inactive)
REMARK    1  A    between atoms: S_15  and  C_4 
REMARK    2  A    between atoms: C_7  and  N_13 
REMARK    3  A    between atoms: S_20  and  C_11 
REMARK       I    between atoms: N_13  and  C_16 
REMARK    4  A    between atoms: C_21  and  S_15 
REMARK    5  A    between atoms: C_16  and  C_21 
REMARK    6  A    between atoms: C_23  and  S_20 
ROOT
ATOM      1  S   UNL d   1     -40.170  14.733  20.004  0.00  0.00    -0.044 SA
ENDROOT
BRANCH   1   2
ATOM      2  C   UNL d   1     -39.624  14.656  20.630  0.00  0.00     0.182 A 
ATOM      3  N   UNL d   1     -39.643  13.981  21.117  0.00  0.00    -0.222 NA
ATOM      4  C   UNL d   1     -39.109  13.907  21.728  0.00  0.00     0.095 A 
ATOM      5  C   UNL d   1     -38.549  14.496  21.868  0.00  0.00     0.104 A 
ATOM      6  C   UNL d   1     -39.001  13.311  22.287  0.00  0.00     0.026 A 
ATOM      7  C   UNL d   1     -38.523  15.160  21.397  0.00  0.00     0.274 A 
ATOM      8  S   UNL d   1     -38.095  14.265  22.513  0.00  0.00    -0.081 SA
ATOM      9  N   UNL d   1     -39.064  15.246  20.770  0.00  0.00    -0.251 N 
ATOM     10  O   UNL d   1     -37.963  15.749  21.537  0.00  0.00    -0.266 OA
ATOM     11  C   UNL d   1     -39.041  15.922  20.287  0.00  0.00     0.104 C 
ATOM     12  C   UNL d   1     -38.379  13.530  22.770  0.00  0.00     0.031 A 
ATOM     13  C   UNL d   1     -38.090  13.086  23.403  0.00  0.00     0.007 C 
ENDBRANCH   1   2
BRANCH   1  14
ATOM     14  C   UNL d   1     -40.038  14.330  19.296  0.00  0.00     0.101 C 
BRANCH  14  15
ATOM     15  C   UNL d   1     -40.677  14.062  18.848  0.00  0.00     0.288 C 
ATOM     16  N   UNL d   1     -40.556  13.787  18.079  0.00  0.00    -0.181 NA
ATOM     17  O   UNL d   1     -41.438  14.069  19.169  0.00  0.00    -0.265 OA
BRANCH  16  18
ATOM     18  C   UNL d   1     -39.796  13.781  17.759  0.00  0.00     0.219 A 
ATOM     19  S   UNL d   1     -39.434  14.234  17.177  0.00  0.00    -0.019 SA
ATOM     20  C   UNL d   1     -38.661  13.975  17.089  0.00  0.00     0.165 A 
ATOM     21  N   UNL d   1     -38.546  13.367  17.613  0.00  0.00    -0.133 NA
ATOM     22  N   UNL d   1     -39.241  13.240  18.031  0.00  0.00    -0.120 NA
BRANCH  20  23
ATOM     23  S   UNL d   1     -38.095  14.271  16.567  0.00  0.00    -0.059 SA
BRANCH  23  24
ATOM     24  C   UNL d   1     -38.327  14.539  15.827  0.00  0.00     0.037 C 
ATOM     25  C   UNL d   1     -37.940  15.193  15.486  0.00  0.00     0.008 C 
ENDBRANCH  23  24
ENDBRANCH  20  23
ENDBRANCH  16  18
ENDBRANCH  14  15
ENDBRANCH   1  14
TORSDOF 6
ENDMDL
