MODEL 1
REMARK VINA RESULT:      70.7      0.000      0.000
REMARK  2 active torsions:
REMARK  status: ('A' for Active; 'I' for Inactive)
REMARK    1  A    between atoms: C_7  and  C_1 
REMARK       I    between atoms: N_13  and  C_7 
REMARK    2  A    between atoms: C_18  and  N_13 
ROOT
ATOM      1  N   UNL d   1      46.509 -20.248  44.529  0.00  0.00    -0.191 NA
ATOM      2  C   UNL d   1      46.409 -19.886  43.786  0.00  0.00     0.101 C 
ATOM      3  C   UNL d   1      46.110 -18.800  41.562  0.00  0.00     0.085 A 
ATOM      4  C   UNL d   1      46.308 -19.524  43.042  0.00  0.00     0.068 A 
ATOM      5  C   UNL d   1      46.413 -18.376  42.197  0.00  0.00     0.020 A 
ATOM      6  C   UNL d   1      45.901 -19.609  41.674  0.00  0.00     0.020 A 
ATOM      7  C   UNL d   1      46.517 -18.722  42.939  0.00  0.00     0.012 A 
ATOM      8  C   UNL d   1      46.006 -19.955  42.415  0.00  0.00     0.012 A 
ENDROOT
BRANCH   3   9
ATOM      9  N   UNL d   1      46.004 -18.461  40.822  0.00  0.00    -0.208 NA
ATOM     10  C   UNL d   1      45.388 -17.904  40.741  0.00  0.00     0.283 C 
ATOM     11  O   UNL d   1      44.914 -17.702  41.358  0.00  0.00    -0.265 OA
BRANCH  10  12
ATOM     12  C   UNL d   1      45.276 -17.560  40.000  0.00  0.00     0.101 A 
ATOM     13  C   UNL d   1      45.887 -17.503  39.454  0.00  0.00     0.208 A 
ATOM     14  O   UNL d   1      45.783 -17.162  38.715  0.00  0.00    -0.288 OA
ATOM     15  N   UNL d   1      46.646 -17.805  39.660  0.00  0.00    -0.121 N 
ATOM     16  C   UNL d   1      45.023 -16.860  38.509  0.00  0.00     0.103 A 
ATOM     17  C   UNL d   1      44.407 -16.921  39.069  0.00  0.00     0.023 A 
ATOM     18  C   UNL d   1      44.911 -16.525  37.792  0.00  0.00     0.039 A 
ATOM     19  C   UNL d   1      44.516 -17.258  39.794  0.00  0.00     0.010 A 
ATOM     20  C   UNL d   1      43.645 -16.621  38.872  0.00  0.00     0.003 A 
ATOM     21  C   UNL d   1      43.540 -16.280  38.132  0.00  0.00     0.016 A 
ATOM     22  C   UNL d   1      44.151 -16.223  37.586  0.00  0.00     0.066 A 
ATOM     23  C   UNL d   1      42.790 -15.971  37.904  0.00  0.00     0.003 A 
ATOM     24  N   UNL d   1      44.035 -15.891  36.876  0.00  0.00    -0.304 N 
ATOM     25  C   UNL d   1      44.646 -15.834  36.330  0.00  0.00     0.080 A 
ATOM     26  C   UNL d   1      43.277 -15.589  36.670  0.00  0.00     0.080 A 
ATOM     27  C   UNL d   1      45.406 -16.136  36.536  0.00  0.00     0.019 A 
ATOM     28  C   UNL d   1      45.518 -16.471  37.253  0.00  0.00     0.005 A 
ATOM     29  C   UNL d   1      42.671 -15.641  37.202  0.00  0.00     0.019 A 
ENDBRANCH  10  12
ENDBRANCH   3   9
TORSDOF 2
ENDMDL
