MODEL 1
REMARK VINA RESULT:      75.5      0.000      0.000
REMARK  6 active torsions:
REMARK  status: ('A' for Active; 'I' for Inactive)
REMARK    1  A    between atoms: N_2  and  S_1 
REMARK    2  A    between atoms: C_6  and  S_1 
REMARK    3  A    between atoms: C_3  and  N_10 
REMARK    4  A    between atoms: C_7  and  C_5 
REMARK       I    between atoms: N_10  and  C_7 
REMARK    5  A    between atoms: C_15  and  C_8 
REMARK    6  A    between atoms: O_27  and  C_24 
ROOT
ATOM      1  C   UNL d   1     -50.807  26.612  35.298  0.00  0.00     0.299 C 
ATOM      2  N   UNL d   1     -50.491  26.896  36.006  0.00  0.00    -0.164 NA
ATOM      3  O   UNL d   1     -51.528  26.210  35.307  0.00  0.00    -0.263 OA
ENDROOT
BRANCH   1   4
ATOM      4  C   UNL d   1     -50.411  26.727  34.595  0.00  0.00     0.133 A 
ATOM      5  N   UNL d   1     -50.579  26.348  33.874  0.00  0.00    -0.226 N 
ATOM      6  C   UNL d   1     -50.037  26.634  33.308  0.00  0.00     0.092 A 
ATOM      7  C   UNL d   1     -49.549  27.177  33.680  0.00  0.00     0.021 A 
ATOM      8  C   UNL d   1     -49.775  27.237  34.471  0.00  0.00     0.025 A 
BRANCH   5   9
ATOM      9  S   UNL d   1     -51.174  25.791  33.741  0.00  0.00     0.277 S 
ATOM     10  O   UNL d   1     -51.751  26.384  33.707  0.00  0.00    -0.199 OA
ATOM     11  O   UNL d   1     -50.597  25.208  33.777  0.00  0.00    -0.199 OA
BRANCH   9  12
ATOM     12  C   UNL d   1     -51.737  25.207  33.612  0.00  0.00     0.133 A 
ATOM     13  S   UNL d   1     -51.588  24.422  33.417  0.00  0.00    -0.074 SA
ATOM     14  C   UNL d   1     -52.313  24.033  33.338  0.00  0.00     0.036 A 
ATOM     15  C   UNL d   1     -52.911  24.586  33.486  0.00  0.00     0.008 A 
ATOM     16  C   UNL d   1     -52.555  25.310  33.654  0.00  0.00     0.020 A 
ENDBRANCH   9  12
ENDBRANCH   5   9
ENDBRANCH   1   4
BRANCH   2  17
ATOM     17  C   UNL d   1     -50.891  26.780  36.719  0.00  0.00     0.297 A 
ATOM     18  O   UNL d   1     -51.248  26.078  36.959  0.00  0.00    -0.253 OA
ATOM     19  C   UNL d   1     -51.584  26.202  37.704  0.00  0.00     0.206 A 
ATOM     20  N   UNL d   1     -51.432  26.982  37.922  0.00  0.00    -0.119 NA
ATOM     21  N   UNL d   1     -51.002  27.340  37.308  0.00  0.00    -0.101 NA
BRANCH  19  22
ATOM     22  C   UNL d   1     -51.991  25.650  38.142  0.00  0.00     0.043 A 
ATOM     23  C   UNL d   1     -51.606  25.208  38.724  0.00  0.00     0.006 A 
ATOM     24  C   UNL d   1     -52.032  24.646  39.165  0.00  0.00     0.024 A 
ATOM     25  C   UNL d   1     -52.832  24.530  39.024  0.00  0.00     0.094 A 
ATOM     26  C   UNL d   1     -53.212  24.972  38.442  0.00  0.00     0.024 A 
ATOM     27  C   UNL d   1     -52.800  25.527  38.003  0.00  0.00     0.006 A 
BRANCH  25  28
ATOM     28  O   UNL d   1     -53.251  23.974  39.460  0.00  0.00    -0.328 OA
ATOM     29  C   UNL d   1     -53.541  24.169  40.212  0.00  0.00     0.181 C 
ENDBRANCH  25  28
ENDBRANCH  19  22
ENDBRANCH   2  17
TORSDOF 6
ENDMDL
