MODEL 1
REMARK VINA RESULT:      -5.7      0.000      0.000
REMARK  4 active torsions:
REMARK  status: ('A' for Active; 'I' for Inactive)
REMARK    1  A    between atoms: N_3  and  C_1 
REMARK       I    between atoms: C_7  and  N_3 
REMARK    2  A    between atoms: C_11  and  C_7 
REMARK    3  A    between atoms: C_12  and  C_11 
REMARK    4  A    between atoms: C_13  and  C_12 
ROOT
ATOM      1  C   UNL d   1      58.641  -0.525  29.566  0.00  0.00     0.124 A 
ATOM      2  C   UNL d   1      59.052  -1.136  29.187  0.00  0.00     0.093 A 
ATOM      3  C   UNL d   1      58.874  -1.941  29.220  0.00  0.00     0.103 C 
ATOM      4  S   UNL d   1      59.013   0.183  29.378  0.00  0.00    -0.067 SA
ATOM      5  N   UNL d   1      58.715  -2.719  29.242  0.00  0.00    -0.191 NA
ATOM      6  C   UNL d   1      59.684  -0.795  28.762  0.00  0.00     0.019 A 
ATOM      7  C   UNL d   1      59.655   0.022  28.884  0.00  0.00     0.038 A 
ENDROOT
BRANCH   1   8
ATOM      8  N   UNL d   1      57.976  -0.613  30.045  0.00  0.00    -0.201 NA
ATOM      9  C   UNL d   1      57.820  -0.056  30.635  0.00  0.00     0.280 C 
ATOM     10  O   UNL d   1      58.325   0.585  30.744  0.00  0.00    -0.265 OA
BRANCH   9  11
ATOM     11  C   UNL d   1      57.152  -0.147  31.116  0.00  0.00     0.062 C 
BRANCH  11  12
ATOM     12  C   UNL d   1      57.198   0.008  31.923  0.00  0.00     0.005 C 
BRANCH  12  13
ATOM     13  C   UNL d   1      56.545  -0.155  32.420  0.00  0.00     0.000 A 
ATOM     14  C   UNL d   1      56.111   0.462  32.756  0.00  0.00     0.000 A 
ATOM     15  C   UNL d   1      55.474   0.300  33.241  0.00  0.00     0.000 A 
ATOM     16  C   UNL d   1      55.263  -0.476  33.397  0.00  0.00     0.000 A 
ATOM     17  C   UNL d   1      55.694  -1.093  33.063  0.00  0.00     0.000 A 
ATOM     18  C   UNL d   1      56.330  -0.935  32.579  0.00  0.00     0.000 A 
ENDBRANCH  12  13
ENDBRANCH  11  12
ENDBRANCH   9  11
ENDBRANCH   1   8
TORSDOF 4
ENDMDL
MODEL 2
REMARK VINA RESULT:      -3.2      1.847      4.599
REMARK  4 active torsions:
REMARK  status: ('A' for Active; 'I' for Inactive)
REMARK    1  A    between atoms: N_3  and  C_1 
REMARK       I    between atoms: C_7  and  N_3 
REMARK    2  A    between atoms: C_11  and  C_7 
REMARK    3  A    between atoms: C_12  and  C_11 
REMARK    4  A    between atoms: C_13  and  C_12 
ROOT
ATOM      1  C   UNL d   1      56.636   0.459  32.762  0.00  0.00     0.124 A 
ATOM      2  C   UNL d   1      56.740   0.464  33.583  0.00  0.00     0.093 A 
ATOM      3  C   UNL d   1      57.451   0.576  33.987  0.00  0.00     0.103 C 
ATOM      4  S   UNL d   1      55.838   0.329  32.611  0.00  0.00    -0.067 SA
ATOM      5  N   UNL d   1      58.128   0.682  34.389  0.00  0.00    -0.191 NA
ATOM      6  C   UNL d   1      55.996   0.336  33.938  0.00  0.00     0.019 A 
ATOM      7  C   UNL d   1      55.441   0.253  33.330  0.00  0.00     0.038 A 
ENDROOT
BRANCH   1   8
ATOM      8  N   UNL d   1      57.228   0.565  32.198  0.00  0.00    -0.201 NA
ATOM      9  C   UNL d   1      57.229   0.102  31.514  0.00  0.00     0.280 C 
ATOM     10  O   UNL d   1      56.641  -0.463  31.394  0.00  0.00    -0.265 OA
BRANCH   9  11
ATOM     11  C   UNL d   1      57.824   0.211  30.949  0.00  0.00     0.062 C 
BRANCH  11  12
ATOM     12  C   UNL d   1      57.839  -0.252  30.268  0.00  0.00     0.005 C 
BRANCH  12  13
ATOM     13  C   UNL d   1      58.438  -0.138  29.695  0.00  0.00     0.000 A 
ATOM     14  C   UNL d   1      58.481   0.571  29.272  0.00  0.00     0.000 A 
ATOM     15  C   UNL d   1      59.066   0.681  28.713  0.00  0.00     0.000 A 
ATOM     16  C   UNL d   1      59.613   0.089  28.569  0.00  0.00     0.000 A 
ATOM     17  C   UNL d   1      59.572  -0.618  28.988  0.00  0.00     0.000 A 
ATOM     18  C   UNL d   1      58.989  -0.731  29.547  0.00  0.00     0.000 A 
ENDBRANCH  12  13
ENDBRANCH  11  12
ENDBRANCH   9  11
ENDBRANCH   1   8
TORSDOF 4
ENDMDL
