MODEL 1
REMARK VINA RESULT:      -6.1      0.000      0.000
REMARK  4 active torsions:
REMARK  status: ('A' for Active; 'I' for Inactive)
REMARK    1  A    between atoms: C_5  and  C_1 
REMARK    2  A    between atoms: O_8  and  C_5 
REMARK    3  A    between atoms: C_11  and  O_8 
REMARK    4  A    between atoms: C_12  and  C_11 
ROOT
ATOM      1  C   UNL d   1     -41.853-122.375 -50.676  0.00  0.00     0.127 A 
ATOM      2  C   UNL d   1     -42.627-122.283 -50.504  0.00  0.00     0.305 A 
ATOM      3  C   UNL d   1     -41.344-122.781 -50.169  0.00  0.00     0.013 A 
ATOM      4  O   UNL d   1     -42.956-122.590 -49.813  0.00  0.00    -0.273 OA
ATOM      5  C   UNL d   1     -41.673-123.088 -49.478  0.00  0.00     0.023 A 
ATOM      6  C   UNL d   1     -42.447-122.996 -49.306  0.00  0.00     0.103 A 
ATOM      7  O   UNL d   1     -43.136-121.876 -51.011  0.00  0.00    -0.259 OA
ATOM      8  C   UNL d   1     -41.164-123.495 -48.971  0.00  0.00     0.002 A 
ATOM      9  C   UNL d   1     -42.776-123.303 -48.615  0.00  0.00     0.025 A 
ATOM     10  C   UNL d   1     -42.266-123.709 -48.108  0.00  0.00     0.002 A 
ATOM     11  C   UNL d   1     -41.493-123.801 -48.279  0.00  0.00     0.000 A 
ENDROOT
BRANCH   1  12
ATOM     12  C   UNL d   1     -41.524-122.068 -51.368  0.00  0.00     0.305 C 
ATOM     13  O   UNL d   1     -41.124-121.336 -51.374  0.00  0.00    -0.259 OA
BRANCH  12  14
ATOM     14  O   UNL d   1     -41.593-122.488 -52.052  0.00  0.00    -0.271 OA
BRANCH  14  15
ATOM     15  C   UNL d   1     -41.158-122.297 -52.705  0.00  0.00     0.126 C 
BRANCH  15  16
ATOM     16  C   UNL d   1     -41.303-122.642 -53.419  0.00  0.00     0.025 A 
ATOM     17  C   UNL d   1     -41.507-122.163 -54.071  0.00  0.00     0.002 A 
ATOM     18  C   UNL d   1     -41.655-122.538 -54.807  0.00  0.00     0.000 A 
ATOM     19  C   UNL d   1     -41.605-123.338 -54.903  0.00  0.00     0.000 A 
ATOM     20  C   UNL d   1     -41.401-123.817 -54.252  0.00  0.00     0.000 A 
ATOM     21  C   UNL d   1     -41.256-123.472 -53.537  0.00  0.00     0.002 A 
ENDBRANCH  15  16
ENDBRANCH  14  15
ENDBRANCH  12  14
ENDBRANCH   1  12
TORSDOF 4
ENDMDL
MODEL 2
REMARK VINA RESULT:      -3.5      0.997      4.699
REMARK  4 active torsions:
REMARK  status: ('A' for Active; 'I' for Inactive)
REMARK    1  A    between atoms: C_5  and  C_1 
REMARK    2  A    between atoms: O_8  and  C_5 
REMARK    3  A    between atoms: C_11  and  O_8 
REMARK    4  A    between atoms: C_12  and  C_11 
ROOT
ATOM      1  C   UNL d   1     -41.653-122.631 -52.896  0.00  0.00     0.127 A 
ATOM      2  C   UNL d   1     -41.444-121.861 -52.888  0.00  0.00     0.305 A 
ATOM      3  C   UNL d   1     -41.965-122.987 -53.572  0.00  0.00     0.013 A 
ATOM      4  O   UNL d   1     -41.530-121.383 -53.555  0.00  0.00    -0.273 OA
ATOM      5  C   UNL d   1     -42.051-122.509 -54.239  0.00  0.00     0.023 A 
ATOM      6  C   UNL d   1     -41.842-121.739 -54.231  0.00  0.00     0.103 A 
ATOM      7  O   UNL d   1     -41.133-121.506 -52.212  0.00  0.00    -0.259 OA
ATOM      8  C   UNL d   1     -42.362-122.865 -54.915  0.00  0.00     0.002 A 
ATOM      9  C   UNL d   1     -41.927-121.261 -54.898  0.00  0.00     0.025 A 
ATOM     10  C   UNL d   1     -42.239-121.617 -55.574  0.00  0.00     0.002 A 
ATOM     11  C   UNL d   1     -42.448-122.387 -55.582  0.00  0.00     0.000 A 
ENDROOT
BRANCH   1  12
ATOM     12  C   UNL d   1     -41.568-123.109 -52.229  0.00  0.00     0.305 C 
ATOM     13  O   UNL d   1     -41.126-123.817 -52.252  0.00  0.00    -0.259 OA
BRANCH  12  14
ATOM     14  O   UNL d   1     -41.920-122.885 -51.540  0.00  0.00    -0.271 OA
BRANCH  14  15
ATOM     15  C   UNL d   1     -42.068-123.419 -50.953  0.00  0.00     0.126 C 
BRANCH  15  16
ATOM     16  C   UNL d   1     -42.264-123.179 -50.208  0.00  0.00     0.025 A 
ATOM     17  C   UNL d   1     -41.706-123.259 -49.593  0.00  0.00     0.002 A 
ATOM     18  C   UNL d   1     -41.926-123.004 -48.824  0.00  0.00     0.000 A 
ATOM     19  C   UNL d   1     -42.650-122.687 -48.663  0.00  0.00     0.000 A 
ATOM     20  C   UNL d   1     -43.208-122.606 -49.279  0.00  0.00     0.000 A 
ATOM     21  C   UNL d   1     -43.012-122.847 -50.024  0.00  0.00     0.002 A 
ENDBRANCH  15  16
ENDBRANCH  14  15
ENDBRANCH  12  14
ENDBRANCH   1  12
TORSDOF 4
ENDMDL
