MODEL 1
REMARK VINA RESULT:       7.6      0.000      0.000
REMARK  3 active torsions:
REMARK  status: ('A' for Active; 'I' for Inactive)
REMARK    1  A    between atoms: S_6  and  C_2 
REMARK    2  A    between atoms: C_9  and  S_6 
REMARK    3  A    between atoms: C_7  and  C_9 
ROOT
ATOM      1  N   UNL d   1      46.146 -17.970  43.762  0.00  0.00    -0.243 NA
ATOM      2  C   UNL d   1      46.412 -18.758  42.728  0.00  0.00     0.046 A 
ATOM      3  C   UNL d   1      46.455 -19.212  43.415  0.00  0.00     0.025 A 
ATOM      4  C   UNL d   1      46.222 -17.995  42.942  0.00  0.00     0.105 A 
ATOM      5  C   UNL d   1      46.290 -18.723  44.060  0.00  0.00     0.082 A 
ATOM      6  C   UNL d   1      46.624 -20.007  43.538  0.00  0.00     0.002 A 
ATOM      7  C   UNL d   1      46.294 -19.033  44.831  0.00  0.00     0.019 A 
ATOM      8  C   UNL d   1      46.630 -20.330  44.316  0.00  0.00     0.000 A 
ATOM      9  C   UNL d   1      46.465 -19.840  44.951  0.00  0.00     0.002 A 
ENDROOT
BRANCH   2  10
ATOM     10  S   UNL d   1      46.538 -19.021  41.950  0.00  0.00    -0.101 SA
BRANCH  10  11
ATOM     11  C   UNL d   1      46.413 -18.507  41.311  0.00  0.00     0.160 C 
BRANCH  11  12
ATOM     12  C   UNL d   1      46.295 -18.802  40.548  0.00  0.00     0.197 C 
ATOM     13  O   UNL d   1      46.571 -19.566  40.357  0.00  0.00    -0.647 OA
ATOM     14  O   UNL d   1      45.910 -18.356  39.972  0.00  0.00    -0.647 OA
ENDBRANCH  11  12
ENDBRANCH  10  11
ENDBRANCH   2  10
TORSDOF 3
ENDMDL
MODEL 2
REMARK VINA RESULT:       8.3      2.405      3.120
REMARK  3 active torsions:
REMARK  status: ('A' for Active; 'I' for Inactive)
REMARK    1  A    between atoms: S_6  and  C_2 
REMARK    2  A    between atoms: C_9  and  S_6 
REMARK    3  A    between atoms: C_7  and  C_9 
ROOT
ATOM      1  N   UNL d   1      46.445 -19.602  44.771  0.00  0.00    -0.243 NA
ATOM      2  C   UNL d   1      46.307 -18.386  44.256  0.00  0.00     0.046 A 
ATOM      3  C   UNL d   1      46.406 -18.919  43.635  0.00  0.00     0.025 A 
ATOM      4  C   UNL d   1      46.331 -18.806  44.955  0.00  0.00     0.105 A 
ATOM      5  C   UNL d   1      46.491 -19.676  43.954  0.00  0.00     0.082 A 
ATOM      6  C   UNL d   1      46.428 -18.814  42.820  0.00  0.00     0.002 A 
ATOM      7  C   UNL d   1      46.601 -20.330  43.453  0.00  0.00     0.019 A 
ATOM      8  C   UNL d   1      46.538 -19.471  42.305  0.00  0.00     0.000 A 
ATOM      9  C   UNL d   1      46.623 -20.219  42.626  0.00  0.00     0.002 A 
ENDROOT
BRANCH   2  10
ATOM     10  S   UNL d   1      46.201 -17.564  44.195  0.00  0.00    -0.101 SA
BRANCH  10  11
ATOM     11  C   UNL d   1      45.889 -17.135  44.832  0.00  0.00     0.160 C 
BRANCH  11  12
ATOM     12  C   UNL d   1      45.716 -16.330  44.755  0.00  0.00     0.197 C 
ATOM     13  O   UNL d   1      46.305 -15.810  44.475  0.00  0.00    -0.647 OA
ATOM     14  O   UNL d   1      44.974 -16.031  44.951  0.00  0.00    -0.647 OA
ENDBRANCH  11  12
ENDBRANCH  10  11
ENDBRANCH   2  10
TORSDOF 3
ENDMDL
MODEL 3
REMARK VINA RESULT:       8.7      5.093      5.805
REMARK  3 active torsions:
REMARK  status: ('A' for Active; 'I' for Inactive)
REMARK    1  A    between atoms: S_6  and  C_2 
REMARK    2  A    between atoms: C_9  and  S_6 
REMARK    3  A    between atoms: C_7  and  C_9 
ROOT
ATOM      1  N   UNL d   1      44.162 -14.329  44.412  0.00  0.00    -0.243 NA
ATOM      2  C   UNL d   1      44.964 -13.351  44.010  0.00  0.00     0.046 A 
ATOM      3  C   UNL d   1      45.432 -13.963  44.304  0.00  0.00     0.025 A 
ATOM      4  C   UNL d   1      44.184 -13.576  44.076  0.00  0.00     0.105 A 
ATOM      5  C   UNL d   1      44.935 -14.572  44.555  0.00  0.00     0.082 A 
ATOM      6  C   UNL d   1      46.247 -14.045  44.376  0.00  0.00     0.002 A 
ATOM      7  C   UNL d   1      45.256 -15.267  44.879  0.00  0.00     0.019 A 
ATOM      8  C   UNL d   1      46.581 -14.744  44.704  0.00  0.00     0.000 A 
ATOM      9  C   UNL d   1      46.083 -15.346  44.951  0.00  0.00     0.002 A 
ENDROOT
BRANCH   2  10
ATOM     10  S   UNL d   1      45.229 -12.628  43.698  0.00  0.00    -0.101 SA
BRANCH  10  11
ATOM     11  C   UNL d   1      44.786 -12.237  43.116  0.00  0.00     0.160 C 
BRANCH  11  12
ATOM     12  C   UNL d   1      45.088 -12.133  42.354  0.00  0.00     0.197 C 
ATOM     13  O   UNL d   1      45.913 -12.080  42.244  0.00  0.00    -0.647 OA
ATOM     14  O   UNL d   1      44.589 -12.080  41.700  0.00  0.00    -0.647 OA
ENDBRANCH  11  12
ENDBRANCH  10  11
ENDBRANCH   2  10
TORSDOF 3
ENDMDL
MODEL 4
REMARK VINA RESULT:       9.9      4.814      5.767
REMARK  3 active torsions:
REMARK  status: ('A' for Active; 'I' for Inactive)
REMARK    1  A    between atoms: S_6  and  C_2 
REMARK    2  A    between atoms: C_9  and  S_6 
REMARK    3  A    between atoms: C_7  and  C_9 
ROOT
ATOM      1  N   UNL d   1      44.453 -13.670  43.665  0.00  0.00    -0.243 NA
ATOM      2  C   UNL d   1      45.138 -14.430  44.511  0.00  0.00     0.046 A 
ATOM      3  C   UNL d   1      45.465 -13.673  44.521  0.00  0.00     0.025 A 
ATOM      4  C   UNL d   1      44.515 -14.427  43.985  0.00  0.00     0.105 A 
ATOM      5  C   UNL d   1      45.040 -13.199  43.995  0.00  0.00     0.082 A 
ATOM      6  C   UNL d   1      46.096 -13.353  44.941  0.00  0.00     0.002 A 
ATOM      7  C   UNL d   1      45.248 -12.402  43.890  0.00  0.00     0.019 A 
ATOM      8  C   UNL d   1      46.314 -12.546  44.841  0.00  0.00     0.000 A 
ATOM      9  C   UNL d   1      45.889 -12.081  44.318  0.00  0.00     0.002 A 
ENDROOT
BRANCH   2  10
ATOM     10  S   UNL d   1      45.388 -15.086  44.954  0.00  0.00    -0.101 SA
BRANCH  10  11
ATOM     11  C   UNL d   1      45.158 -15.852  44.733  0.00  0.00     0.160 C 
BRANCH  11  12
ATOM     12  C   UNL d   1      45.682 -16.487  44.800  0.00  0.00     0.197 C 
ATOM     13  O   UNL d   1      45.381 -17.256  44.913  0.00  0.00    -0.647 OA
ATOM     14  O   UNL d   1      46.497 -16.375  44.757  0.00  0.00    -0.647 OA
ENDBRANCH  11  12
ENDBRANCH  10  11
ENDBRANCH   2  10
TORSDOF 3
ENDMDL
