MODEL 1
REMARK VINA RESULT:      82.0      0.000      0.000
REMARK  5 active torsions:
REMARK  status: ('A' for Active; 'I' for Inactive)
REMARK    1  A    between atoms: C_5  and  C_1 
REMARK    2  A    between atoms: C_4  and  C_9 
REMARK    3  A    between atoms: N_7  and  C_5 
REMARK    4  A    between atoms: C_10  and  C_5 
REMARK    5  A    between atoms: C_12  and  N_7 
ROOT
ATOM      1  C   UNL d   1     -49.670  27.675  33.596  0.00  0.00     0.086 C 
ENDROOT
BRANCH   1   2
ATOM      2  C   UNL d   1     -49.804  26.864  33.528  0.00  0.00     0.058 A 
ATOM      3  C   UNL d   1     -50.578  26.575  33.511  0.00  0.00     0.214 A 
ATOM      4  C   UNL d   1     -50.706  25.758  33.443  0.00  0.00     0.120 A 
ATOM      5  O   UNL d   1     -51.215  27.076  33.558  0.00  0.00    -0.285 OA
ATOM      6  N   UNL d   1     -51.479  25.458  33.424  0.00  0.00    -0.242 NA
ATOM      7  C   UNL d   1     -50.067  25.241  33.394  0.00  0.00     0.021 A 
ATOM      8  C   UNL d   1     -51.611  24.649  33.357  0.00  0.00     0.082 A 
ATOM      9  C   UNL d   1     -52.381  24.353  33.339  0.00  0.00     0.021 C 
ATOM     10  C   UNL d   1     -50.966  24.127  33.307  0.00  0.00     0.019 A 
ATOM     11  C   UNL d   1     -50.189  24.429  33.326  0.00  0.00     0.003 A 
ATOM     12  C   UNL d   1     -49.290  25.531  33.412  0.00  0.00     0.002 A 
ATOM     13  C   UNL d   1     -49.159  26.341  33.479  0.00  0.00     0.005 A 
ENDBRANCH   1   2
BRANCH   1  14
ATOM     14  N   UNL d   1     -48.894  27.860  33.809  0.00  0.00    -0.245 NA
BRANCH  14  15
ATOM     15  C   UNL d   1     -48.724  28.145  34.548  0.00  0.00     0.081 A 
ATOM     16  C   UNL d   1     -48.242  28.796  34.635  0.00  0.00     0.023 A 
ATOM     17  C   UNL d   1     -48.066  29.091  35.391  0.00  0.00     0.073 A 
ATOM     18  C   UNL d   1     -48.386  28.717  36.060  0.00  0.00     0.004 A 
ATOM     19  C   UNL d   1     -48.871  28.060  35.967  0.00  0.00     0.002 A 
ATOM     20  C   UNL d   1     -49.037  27.779  35.210  0.00  0.00     0.019 A 
BRANCH  17  21
ATOM     21  C   UNL d   1     -47.578  29.749  35.469  0.00  0.00     0.419 C 
ATOM     22  F   UNL d   1     -47.129  30.348  35.531  0.00  0.00    -0.166 F 
ATOM     23  F   UNL d   1     -47.012  30.061  34.908  0.00  0.00    -0.166 F 
ATOM     24  F   UNL d   1     -47.502  30.296  36.121  0.00  0.00    -0.166 F 
ENDBRANCH  17  21
ENDBRANCH  14  15
ENDBRANCH   1  14
BRANCH   1  25
ATOM     25  C   UNL d   1     -50.134  28.347  33.499  0.00  0.00     0.037 A 
ATOM     26  C   UNL d   1     -49.775  29.097  33.482  0.00  0.00     0.100 A 
ATOM     27  N   UNL d   1     -50.251  29.766  33.385  0.00  0.00    -0.242 NA
ATOM     28  C   UNL d   1     -51.055  29.696  33.306  0.00  0.00     0.099 A 
ATOM     29  C   UNL d   1     -51.409  28.956  33.322  0.00  0.00     0.021 A 
ATOM     30  C   UNL d   1     -50.953  28.281  33.418  0.00  0.00     0.005 A 
ENDBRANCH   1  25
TORSDOF 5
ENDMDL
