MODEL 1
REMARK VINA RESULT:      -4.7      0.000      0.000
REMARK  5 active torsions:
REMARK  status: ('A' for Active; 'I' for Inactive)
REMARK    1  A    between atoms: N_2  and  C_1 
REMARK    2  A    between atoms: N_3  and  C_1 
REMARK       I    between atoms: C_6  and  N_3 
REMARK    3  A    between atoms: C_12  and  C_6 
REMARK    4  A    between atoms: O_11  and  C_12 
REMARK    5  A    between atoms: C_13  and  O_11 
ROOT
ATOM      1  C   UNL d   1      57.624   0.315  31.148  0.00  0.00     0.209 C 
ATOM      2  S   UNL d   1      58.337   0.591  31.439  0.00  0.00    -0.038 SA
ENDROOT
BRANCH   1   3
ATOM      3  N   UNL d   1      57.170  -0.200  31.611  0.00  0.00    -0.282 N 
ATOM      4  C   UNL d   1      56.825  -0.029  32.335  0.00  0.00     0.066 A 
ATOM      5  C   UNL d   1      56.426  -0.698  32.598  0.00  0.00     0.018 A 
ATOM      6  C   UNL d   1      56.824   0.661  32.791  0.00  0.00     0.018 A 
ATOM      7  C   UNL d   1      56.025  -0.680  33.319  0.00  0.00     0.002 A 
ATOM      8  C   UNL d   1      56.525  -1.283  32.037  0.00  0.00     0.021 A 
ATOM      9  C   UNL d   1      56.019   0.013  33.787  0.00  0.00     0.000 A 
ATOM     10  C   UNL d   1      56.418   0.682  33.523  0.00  0.00     0.002 A 
ATOM     11  C   UNL d   1      56.985  -0.979  31.424  0.00  0.00     0.082 A 
ENDBRANCH   1   3
BRANCH   1  12
ATOM     12  N   UNL d   1      57.363   0.545  30.407  0.00  0.00    -0.178 NA
ATOM     13  C   UNL d   1      57.852   0.448  29.746  0.00  0.00     0.306 C 
ATOM     14  O   UNL d   1      57.584   0.681  29.002  0.00  0.00    -0.263 OA
BRANCH  13  15
ATOM     15  C   UNL d   1      58.595   0.124  29.833  0.00  0.00     0.185 C 
BRANCH  15  16
ATOM     16  O   UNL d   1      59.108   0.099  29.188  0.00  0.00    -0.300 OA
BRANCH  16  17
ATOM     17  C   UNL d   1      59.747  -0.432  29.195  0.00  0.00     0.100 A 
ATOM     18  C   UNL d   1      60.495  -0.162  29.388  0.00  0.00     0.025 A 
ATOM     19  C   UNL d   1      61.133  -0.686  29.396  0.00  0.00     0.002 A 
ATOM     20  C   UNL d   1      61.014  -1.483  29.209  0.00  0.00     0.000 A 
ATOM     21  C   UNL d   1      60.260  -1.751  29.016  0.00  0.00     0.002 A 
ATOM     22  C   UNL d   1      59.622  -1.227  29.007  0.00  0.00     0.025 A 
ENDBRANCH  16  17
ENDBRANCH  15  16
ENDBRANCH  13  15
ENDBRANCH   1  12
TORSDOF 5
ENDMDL
MODEL 2
REMARK VINA RESULT:      -4.5      1.094      1.690
REMARK  5 active torsions:
REMARK  status: ('A' for Active; 'I' for Inactive)
REMARK    1  A    between atoms: N_2  and  C_1 
REMARK    2  A    between atoms: N_3  and  C_1 
REMARK       I    between atoms: C_6  and  N_3 
REMARK    3  A    between atoms: C_12  and  C_6 
REMARK    4  A    between atoms: O_11  and  C_12 
REMARK    5  A    between atoms: C_13  and  O_11 
ROOT
ATOM      1  C   UNL d   1      57.031   0.036  31.688  0.00  0.00     0.209 C 
ATOM      2  S   UNL d   1      56.991   0.609  31.107  0.00  0.00    -0.038 SA
ENDROOT
BRANCH   1   3
ATOM      3  N   UNL d   1      57.078   0.268  32.482  0.00  0.00    -0.282 N 
ATOM      4  C   UNL d   1      56.456   0.310  33.016  0.00  0.00     0.066 A 
ATOM      5  C   UNL d   1      56.751   0.566  33.739  0.00  0.00     0.018 A 
ATOM      6  C   UNL d   1      55.651   0.146  32.930  0.00  0.00     0.018 A 
ATOM      7  C   UNL d   1      56.241   0.658  34.381  0.00  0.00     0.002 A 
ATOM      8  C   UNL d   1      57.555   0.682  33.654  0.00  0.00     0.021 A 
ATOM      9  C   UNL d   1      55.425   0.495  34.304  0.00  0.00     0.000 A 
ATOM     10  C   UNL d   1      55.130   0.239  33.580  0.00  0.00     0.002 A 
ATOM     11  C   UNL d   1      57.762   0.498  32.877  0.00  0.00     0.082 A 
ENDBRANCH   1   3
BRANCH   1  12
ATOM     12  N   UNL d   1      57.025  -0.758  31.490  0.00  0.00    -0.178 NA
ATOM     13  C   UNL d   1      57.448  -1.023  30.828  0.00  0.00     0.306 C 
ATOM     14  O   UNL d   1      57.439  -1.823  30.631  0.00  0.00    -0.263 OA
BRANCH  13  15
ATOM     15  C   UNL d   1      57.870  -0.493  30.375  0.00  0.00     0.185 C 
BRANCH  15  16
ATOM     16  O   UNL d   1      58.215  -0.741  29.669  0.00  0.00    -0.300 OA
BRANCH  16  17
ATOM     17  C   UNL d   1      58.875  -0.334  29.370  0.00  0.00     0.100 A 
ATOM     18  C   UNL d   1      59.626  -0.544  29.618  0.00  0.00     0.025 A 
ATOM     19  C   UNL d   1      60.284  -0.142  29.324  0.00  0.00     0.002 A 
ATOM     20  C   UNL d   1      60.182   0.473  28.779  0.00  0.00     0.000 A 
ATOM     21  C   UNL d   1      59.424   0.681  28.533  0.00  0.00     0.002 A 
ATOM     22  C   UNL d   1      58.766   0.279  28.826  0.00  0.00     0.025 A 
ENDBRANCH  16  17
ENDBRANCH  15  16
ENDBRANCH  13  15
ENDBRANCH   1  12
TORSDOF 5
ENDMDL
MODEL 3
REMARK VINA RESULT:      -3.6      1.374      4.651
REMARK  5 active torsions:
REMARK  status: ('A' for Active; 'I' for Inactive)
REMARK    1  A    between atoms: N_2  and  C_1 
REMARK    2  A    between atoms: N_3  and  C_1 
REMARK       I    between atoms: C_6  and  N_3 
REMARK    3  A    between atoms: C_12  and  C_6 
REMARK    4  A    between atoms: O_11  and  C_12 
REMARK    5  A    between atoms: C_13  and  O_11 
ROOT
ATOM      1  C   UNL d   1      58.353   0.092  30.359  0.00  0.00     0.209 C 
ATOM      2  S   UNL d   1      57.609   0.396  30.205  0.00  0.00    -0.038 SA
ENDROOT
BRANCH   1   3
ATOM      3  N   UNL d   1      58.667  -0.483  29.851  0.00  0.00    -0.282 N 
ATOM      4  C   UNL d   1      59.365  -0.428  29.424  0.00  0.00     0.066 A 
ATOM      5  C   UNL d   1      59.463  -1.122  28.995  0.00  0.00     0.018 A 
ATOM      6  C   UNL d   1      59.929   0.175  29.373  0.00  0.00     0.018 A 
ATOM      7  C   UNL d   1      60.126  -1.217  28.513  0.00  0.00     0.002 A 
ATOM      8  C   UNL d   1      58.826  -1.607  29.157  0.00  0.00     0.021 A 
ATOM      9  C   UNL d   1      60.701  -0.613  28.455  0.00  0.00     0.000 A 
ATOM     10  C   UNL d   1      60.602   0.081  28.884  0.00  0.00     0.002 A 
ATOM     11  C   UNL d   1      58.330  -1.215  29.686  0.00  0.00     0.082 A 
ENDBRANCH   1   3
BRANCH   1  12
ATOM     12  N   UNL d   1      58.782   0.353  31.004  0.00  0.00    -0.178 NA
ATOM     13  C   UNL d   1      58.418   0.419  31.745  0.00  0.00     0.306 C 
ATOM     14  O   UNL d   1      58.854   0.682  32.393  0.00  0.00    -0.263 OA
BRANCH  13  15
ATOM     15  C   UNL d   1      57.630   0.226  31.831  0.00  0.00     0.185 C 
BRANCH  15  16
ATOM     16  O   UNL d   1      57.225   0.450  32.513  0.00  0.00    -0.300 OA
BRANCH  16  17
ATOM     17  C   UNL d   1      56.546   0.031  32.742  0.00  0.00     0.100 A 
ATOM     18  C   UNL d   1      56.556  -0.787  32.743  0.00  0.00     0.025 A 
ATOM     19  C   UNL d   1      55.883  -1.208  32.969  0.00  0.00     0.002 A 
ATOM     20  C   UNL d   1      55.199  -0.800  33.194  0.00  0.00     0.000 A 
ATOM     21  C   UNL d   1      55.192   0.023  33.192  0.00  0.00     0.002 A 
ATOM     22  C   UNL d   1      55.866   0.444  32.965  0.00  0.00     0.025 A 
ENDBRANCH  16  17
ENDBRANCH  15  16
ENDBRANCH  13  15
ENDBRANCH   1  12
TORSDOF 5
ENDMDL
MODEL 4
REMARK VINA RESULT:      -2.9      1.465      4.637
REMARK  5 active torsions:
REMARK  status: ('A' for Active; 'I' for Inactive)
REMARK    1  A    between atoms: N_2  and  C_1 
REMARK    2  A    between atoms: N_3  and  C_1 
REMARK       I    between atoms: C_6  and  N_3 
REMARK    3  A    between atoms: C_12  and  C_6 
REMARK    4  A    between atoms: O_11  and  C_12 
REMARK    5  A    between atoms: C_13  and  O_11 
ROOT
ATOM      1  C   UNL d   1      58.869  -1.266  29.178  0.00  0.00     0.209 C 
ATOM      2  S   UNL d   1      58.449  -1.622  29.784  0.00  0.00    -0.038 SA
ENDROOT
BRANCH   1   3
ATOM      3  N   UNL d   1      59.626  -1.546  28.992  0.00  0.00    -0.282 N 
ATOM      4  C   UNL d   1      59.837  -2.327  28.857  0.00  0.00     0.066 A 
ATOM      5  C   UNL d   1      60.642  -2.355  28.692  0.00  0.00     0.018 A 
ATOM      6  C   UNL d   1      59.391  -3.023  28.865  0.00  0.00     0.018 A 
ATOM      7  C   UNL d   1      61.005  -3.078  28.533  0.00  0.00     0.002 A 
ATOM      8  C   UNL d   1      60.929  -1.590  28.724  0.00  0.00     0.021 A 
ATOM      9  C   UNL d   1      60.562  -3.787  28.538  0.00  0.00     0.000 A 
ATOM     10  C   UNL d   1      59.757  -3.760  28.703  0.00  0.00     0.002 A 
ATOM     11  C   UNL d   1      60.303  -1.087  28.910  0.00  0.00     0.082 A 
ENDBRANCH   1   3
BRANCH   1  12
ATOM     12  N   UNL d   1      58.546  -0.641  28.762  0.00  0.00    -0.178 NA
ATOM     13  C   UNL d   1      58.148  -0.035  29.164  0.00  0.00     0.306 C 
ATOM     14  O   UNL d   1      57.824   0.593  28.740  0.00  0.00    -0.263 OA
BRANCH  13  15
ATOM     15  C   UNL d   1      58.079  -0.063  29.976  0.00  0.00     0.185 C 
BRANCH  15  16
ATOM     16  O   UNL d   1      57.834   0.608  30.389  0.00  0.00    -0.300 OA
BRANCH  16  17
ATOM     17  C   UNL d   1      57.615   0.539  31.187  0.00  0.00     0.100 A 
ATOM     18  C   UNL d   1      58.168   0.681  31.773  0.00  0.00     0.025 A 
ATOM     19  C   UNL d   1      57.954   0.614  32.567  0.00  0.00     0.002 A 
ATOM     20  C   UNL d   1      57.180   0.402  32.769  0.00  0.00     0.000 A 
ATOM     21  C   UNL d   1      56.626   0.259  32.176  0.00  0.00     0.002 A 
ATOM     22  C   UNL d   1      56.840   0.327  31.382  0.00  0.00     0.025 A 
ENDBRANCH  16  17
ENDBRANCH  15  16
ENDBRANCH  13  15
ENDBRANCH   1  12
TORSDOF 5
ENDMDL
