MODEL 1
REMARK VINA RESULT:      93.6      0.000      0.000
REMARK  6 active torsions:
REMARK  status: ('A' for Active; 'I' for Inactive)
REMARK    1  A    between atoms: C_4  and  C_1 
REMARK    2  A    between atoms: C_13  and  N_3 
REMARK    3  A    between atoms: C_11  and  N_5 
REMARK    4  A    between atoms: C_16  and  C_13 
REMARK    5  A    between atoms: O_14  and  C_16 
REMARK    6  A    between atoms: C_15  and  O_14 
ROOT
ATOM      1  C   UNL d   1     -55.066-101.083 -43.357  0.00  0.00     0.149 A 
ATOM      2  N   UNL d   1     -54.826-101.721 -43.826  0.00  0.00    -0.227 NA
ATOM      3  N   UNL d   1     -55.392-100.498 -43.861  0.00  0.00    -0.287 N 
ATOM      4  C   UNL d   1     -55.348-100.787 -44.640  0.00  0.00     0.083 A 
ATOM      5  C   UNL d   1     -55.000-101.539 -44.624  0.00  0.00     0.099 A 
ATOM      6  C   UNL d   1     -55.583-100.456 -45.367  0.00  0.00     0.019 A 
ATOM      7  C   UNL d   1     -54.885-101.962 -45.319  0.00  0.00     0.021 A 
ATOM      8  C   UNL d   1     -55.464-100.887 -46.067  0.00  0.00     0.002 A 
ATOM      9  C   UNL d   1     -55.116-101.638 -46.043  0.00  0.00     0.002 A 
ENDROOT
BRANCH   1  10
ATOM     10  C   UNL d   1     -54.999-101.026 -42.538  0.00  0.00     0.057 A 
ATOM     11  C   UNL d   1     -54.978-100.332 -42.099  0.00  0.00     0.081 A 
ATOM     12  N   UNL d   1     -54.907-100.539 -41.299  0.00  0.00    -0.298 N 
ATOM     13  C   UNL d   1     -54.885-101.361 -41.248  0.00  0.00     0.261 A 
ATOM     14  C   UNL d   1     -54.942-101.664 -42.013  0.00  0.00     0.065 A 
ATOM     15  O   UNL d   1     -54.819-101.800 -40.557  0.00  0.00    -0.267 OA
BRANCH  12  16
ATOM     16  C   UNL d   1     -54.866-100.011 -40.666  0.00  0.00     0.071 C 
ATOM     17  C   UNL d   1     -54.960 -99.203 -40.807  0.00  0.00     0.023 C 
ATOM     18  C   UNL d   1     -54.804 -99.593 -39.966  0.00  0.00     0.023 C 
ATOM     19  C   UNL d   1     -54.732-100.290 -39.908  0.00  0.00     0.023 C 
ENDBRANCH  12  16
ENDBRANCH   1  10
BRANCH   3  20
ATOM     20  C   UNL d   1     -55.698 -99.775 -43.627  0.00  0.00     0.108 C 
BRANCH  20  21
ATOM     21  C   UNL d   1     -56.517 -99.673 -43.556  0.00  0.00     0.142 C 
BRANCH  21  22
ATOM     22  O   UNL d   1     -56.971 -99.494 -44.213  0.00  0.00    -0.304 OA
BRANCH  22  23
ATOM     23  C   UNL d   1     -57.772 -99.306 -44.113  0.00  0.00     0.100 A 
ATOM     24  C   UNL d   1     -58.235 -99.169 -44.782  0.00  0.00     0.025 A 
ATOM     25  C   UNL d   1     -59.035 -98.981 -44.682  0.00  0.00     0.002 A 
ATOM     26  C   UNL d   1     -59.363 -98.932 -43.929  0.00  0.00     0.000 A 
ATOM     27  C   UNL d   1     -58.884 -99.074 -43.267  0.00  0.00     0.002 A 
ATOM     28  C   UNL d   1     -58.089 -99.260 -43.365  0.00  0.00     0.025 A 
ENDBRANCH  22  23
ENDBRANCH  21  22
ENDBRANCH  20  21
ENDBRANCH   3  20
TORSDOF 6
ENDMDL
