MODEL 1
REMARK VINA RESULT:       1.9      0.000      0.000
REMARK  7 active torsions:
REMARK  status: ('A' for Active; 'I' for Inactive)
REMARK    1  A    between atoms: N_4  and  C_1 
REMARK    2  A    between atoms: C_9  and  C_2 
REMARK    3  A    between atoms: C_7  and  N_4 
REMARK       I    between atoms: C_10  and  N_8 
REMARK    4  A    between atoms: C_17  and  C_10 
REMARK    5  A    between atoms: C_12  and  C_18 
REMARK    6  A    between atoms: O_20  and  C_12 
REMARK    7  A    between atoms: C_18  and  C_17 
ROOT
ATOM      1  N   UNL d   1      32.878  20.464 -22.035  0.00  0.00    -0.211 NA
ENDROOT
BRANCH   1   2
ATOM      2  C   UNL d   1      32.778  21.257 -21.764  0.00  0.00     0.118 A 
ATOM      3  C   UNL d   1      32.627  21.931 -22.251  0.00  0.00     0.084 A 
ATOM      4  C   UNL d   1      32.569  22.589 -21.756  0.00  0.00     0.013 A 
ATOM      5  C   UNL d   1      32.419  23.394 -22.010  0.00  0.00     0.001 C 
ATOM      6  C   UNL d   1      32.676  22.354 -20.992  0.00  0.00     0.031 A 
ATOM      7  S   UNL d   1      32.805  21.539 -20.982  0.00  0.00    -0.068 SA
ATOM      8  C   UNL d   1      32.655  22.877 -20.316  0.00  0.00     0.007 C 
BRANCH   3   9
ATOM      9  C   UNL d   1      32.550  21.929 -23.099  0.00  0.00     0.299 C 
ATOM     10  O   UNL d   1      31.788  21.844 -23.453  0.00  0.00    -0.264 OA
ATOM     11  N   UNL d   1      33.238  22.011 -23.602  0.00  0.00    -0.102 N 
ENDBRANCH   3   9
ENDBRANCH   1   2
BRANCH   1  12
ATOM     12  C   UNL d   1      33.076  19.889 -21.511  0.00  0.00     0.224 C 
ATOM     13  N   UNL d   1      33.232  18.772 -21.912  0.00  0.00    -0.179 NA
ATOM     14  C   UNL d   1      33.136  18.614 -22.699  0.00  0.00     0.281 C 
ATOM     15  O   UNL d   1      33.241  17.862 -22.968  0.00  0.00    -0.265 OA
ATOM     16  S   UNL d   1      33.170  20.053 -20.725  0.00  0.00    -0.037 SA
BRANCH  14  17
ATOM     17  C   UNL d   1      32.939  19.195 -23.210  0.00  0.00     0.068 C 
BRANCH  17  18
ATOM     18  C   UNL d   1      32.918  19.022 -24.002  0.00  0.00     0.073 C 
BRANCH  18  19
ATOM     19  C   UNL d   1      32.273  19.278 -24.429  0.00  0.00     0.296 C 
ATOM     20  O   UNL d   1      32.328  19.914 -24.880  0.00  0.00    -0.259 OA
BRANCH  19  21
ATOM     21  O   UNL d   1      31.574  18.869 -24.383  0.00  0.00    -0.296 OA
ATOM     22  C   UNL d   1      31.143  18.737 -25.065  0.00  0.00     0.185 C 
ENDBRANCH  19  21
ENDBRANCH  18  19
ENDBRANCH  17  18
ENDBRANCH  14  17
ENDBRANCH   1  12
TORSDOF 7
ENDMDL
MODEL 2
REMARK VINA RESULT:       2.1      1.544      3.828
REMARK  7 active torsions:
REMARK  status: ('A' for Active; 'I' for Inactive)
REMARK    1  A    between atoms: N_4  and  C_1 
REMARK    2  A    between atoms: C_9  and  C_2 
REMARK    3  A    between atoms: C_7  and  N_4 
REMARK       I    between atoms: C_10  and  N_8 
REMARK    4  A    between atoms: C_17  and  C_10 
REMARK    5  A    between atoms: C_12  and  C_18 
REMARK    6  A    between atoms: O_20  and  C_12 
REMARK    7  A    between atoms: C_18  and  C_17 
ROOT
ATOM      1  N   UNL d   1      32.808  19.508 -22.928  0.00  0.00    -0.211 NA
ENDROOT
BRANCH   1   2
ATOM      2  C   UNL d   1      32.821  18.703 -23.180  0.00  0.00     0.118 A 
ATOM      3  C   UNL d   1      32.661  18.426 -23.963  0.00  0.00     0.084 A 
ATOM      4  C   UNL d   1      32.736  17.604 -23.957  0.00  0.00     0.013 A 
ATOM      5  C   UNL d   1      32.624  17.087 -24.631  0.00  0.00     0.001 C 
ATOM      6  C   UNL d   1      32.933  17.362 -23.212  0.00  0.00     0.031 A 
ATOM      7  S   UNL d   1      32.988  18.026 -22.726  0.00  0.00    -0.068 SA
ATOM      8  C   UNL d   1      33.059  16.548 -22.985  0.00  0.00     0.007 C 
BRANCH   3   9
ATOM      9  C   UNL d   1      32.460  18.910 -24.634  0.00  0.00     0.299 C 
ATOM     10  O   UNL d   1      33.072  19.264 -25.097  0.00  0.00    -0.264 OA
ATOM     11  N   UNL d   1      31.642  19.045 -24.847  0.00  0.00    -0.102 N 
ENDBRANCH   3   9
ENDBRANCH   1   2
BRANCH   1  12
ATOM     12  C   UNL d   1      32.795  19.677 -22.144  0.00  0.00     0.224 C 
ATOM     13  N   UNL d   1      32.890  20.819 -21.799  0.00  0.00    -0.179 NA
ATOM     14  C   UNL d   1      32.965  21.400 -22.357  0.00  0.00     0.281 C 
ATOM     15  O   UNL d   1      33.028  22.169 -22.123  0.00  0.00    -0.265 OA
ATOM     16  S   UNL d   1      32.720  19.093 -21.590  0.00  0.00    -0.037 SA
BRANCH  14  17
ATOM     17  C   UNL d   1      32.976  21.218 -23.134  0.00  0.00     0.068 C 
BRANCH  17  18
ATOM     18  C   UNL d   1      33.194  21.794 -23.662  0.00  0.00     0.073 C 
BRANCH  18  19
ATOM     19  C   UNL d   1      32.605  22.259 -23.980  0.00  0.00     0.296 C 
ATOM     20  O   UNL d   1      32.226  22.775 -23.530  0.00  0.00    -0.259 OA
BRANCH  19  21
ATOM     21  O   UNL d   1      32.414  22.184 -24.765  0.00  0.00    -0.296 OA
ATOM     22  C   UNL d   1      31.796  22.624 -25.070  0.00  0.00     0.185 C 
ENDBRANCH  19  21
ENDBRANCH  18  19
ENDBRANCH  17  18
ENDBRANCH  14  17
ENDBRANCH   1  12
TORSDOF 7
ENDMDL
MODEL 3
REMARK VINA RESULT:       2.8      1.408      1.881
REMARK  7 active torsions:
REMARK  status: ('A' for Active; 'I' for Inactive)
REMARK    1  A    between atoms: N_4  and  C_1 
REMARK    2  A    between atoms: C_9  and  C_2 
REMARK    3  A    between atoms: C_7  and  N_4 
REMARK       I    between atoms: C_10  and  N_8 
REMARK    4  A    between atoms: C_17  and  C_10 
REMARK    5  A    between atoms: C_12  and  C_18 
REMARK    6  A    between atoms: O_20  and  C_12 
REMARK    7  A    between atoms: C_18  and  C_17 
ROOT
ATOM      1  N   UNL d   1      32.769  18.975 -22.871  0.00  0.00    -0.211 NA
ENDROOT
BRANCH   1   2
ATOM      2  C   UNL d   1      32.869  19.751 -22.555  0.00  0.00     0.118 A 
ATOM      3  C   UNL d   1      32.845  20.472 -22.996  0.00  0.00     0.084 A 
ATOM      4  C   UNL d   1      32.970  21.093 -22.467  0.00  0.00     0.013 A 
ATOM      5  C   UNL d   1      32.991  21.925 -22.670  0.00  0.00     0.001 C 
ATOM      6  C   UNL d   1      33.069  20.792 -21.725  0.00  0.00     0.031 A 
ATOM      7  S   UNL d   1      33.009  19.969 -21.765  0.00  0.00    -0.068 SA
ATOM      8  C   UNL d   1      33.211  21.262 -21.026  0.00  0.00     0.007 C 
BRANCH   3   9
ATOM      9  C   UNL d   1      32.716  20.541 -23.835  0.00  0.00     0.299 C 
ATOM     10  O   UNL d   1      32.071  21.003 -24.126  0.00  0.00    -0.264 OA
ATOM     11  N   UNL d   1      33.234  20.148 -24.392  0.00  0.00    -0.102 N 
ENDBRANCH   3   9
ENDBRANCH   1   2
BRANCH   1  12
ATOM     12  C   UNL d   1      32.858  18.339 -22.391  0.00  0.00     0.224 C 
ATOM     13  N   UNL d   1      32.414  17.284 -22.742  0.00  0.00    -0.179 NA
ATOM     14  C   UNL d   1      32.033  17.229 -23.453  0.00  0.00     0.281 C 
ATOM     15  O   UNL d   1      31.735  16.519 -23.690  0.00  0.00    -0.265 OA
ATOM     16  S   UNL d   1      33.240  18.399 -21.680  0.00  0.00    -0.037 SA
BRANCH  14  17
ATOM     17  C   UNL d   1      31.951  17.870 -23.922  0.00  0.00     0.068 C 
BRANCH  17  18
ATOM     18  C   UNL d   1      31.650  17.767 -24.669  0.00  0.00     0.073 C 
BRANCH  18  19
ATOM     19  C   UNL d   1      30.842  17.696 -24.745  0.00  0.00     0.296 C 
ATOM     20  O   UNL d   1      30.524  17.003 -24.921  0.00  0.00    -0.259 OA
BRANCH  19  21
ATOM     21  O   UNL d   1      30.370  18.347 -24.637  0.00  0.00    -0.296 OA
ATOM     22  C   UNL d   1      29.695  18.430 -25.091  0.00  0.00     0.185 C 
ENDBRANCH  19  21
ENDBRANCH  18  19
ENDBRANCH  17  18
ENDBRANCH  14  17
ENDBRANCH   1  12
TORSDOF 7
ENDMDL
MODEL 4
REMARK VINA RESULT:       3.1      1.435      2.152
REMARK  7 active torsions:
REMARK  status: ('A' for Active; 'I' for Inactive)
REMARK    1  A    between atoms: N_4  and  C_1 
REMARK    2  A    between atoms: C_9  and  C_2 
REMARK    3  A    between atoms: C_7  and  N_4 
REMARK       I    between atoms: C_10  and  N_8 
REMARK    4  A    between atoms: C_17  and  C_10 
REMARK    5  A    between atoms: C_12  and  C_18 
REMARK    6  A    between atoms: O_20  and  C_12 
REMARK    7  A    between atoms: C_18  and  C_17 
ROOT
ATOM      1  N   UNL d   1      32.963  20.793 -22.949  0.00  0.00    -0.211 NA
ENDROOT
BRANCH   1   2
ATOM      2  C   UNL d   1      32.877  21.409 -22.380  0.00  0.00     0.118 A 
ATOM      3  C   UNL d   1      32.714  21.304 -21.556  0.00  0.00     0.084 A 
ATOM      4  C   UNL d   1      32.677  22.053 -21.211  0.00  0.00     0.013 A 
ATOM      5  C   UNL d   1      32.524  22.214 -20.384  0.00  0.00     0.001 C 
ATOM      6  C   UNL d   1      32.808  22.611 -21.779  0.00  0.00     0.031 A 
ATOM      7  S   UNL d   1      32.932  22.230 -22.500  0.00  0.00    -0.068 SA
ATOM      8  C   UNL d   1      32.813  23.454 -21.637  0.00  0.00     0.007 C 
BRANCH   3   9
ATOM      9  C   UNL d   1      32.609  20.558 -21.159  0.00  0.00     0.299 C 
ATOM     10  O   UNL d   1      33.241  20.229 -20.705  0.00  0.00    -0.264 OA
ATOM     11  N   UNL d   1      31.867  20.134 -21.213  0.00  0.00    -0.102 N 
ENDBRANCH   3   9
ENDBRANCH   1   2
BRANCH   1  12
ATOM     12  C   UNL d   1      33.122  20.979 -23.713  0.00  0.00     0.224 C 
ATOM     13  N   UNL d   1      33.241  20.095 -24.511  0.00  0.00    -0.179 NA
ATOM     14  C   UNL d   1      33.159  19.328 -24.270  0.00  0.00     0.281 C 
ATOM     15  O   UNL d   1      33.239  18.733 -24.808  0.00  0.00    -0.265 OA
ATOM     16  S   UNL d   1      33.203  21.749 -23.949  0.00  0.00    -0.037 SA
BRANCH  14  17
ATOM     17  C   UNL d   1      33.000  19.155 -23.507  0.00  0.00     0.068 C 
BRANCH  17  18
ATOM     18  C   UNL d   1      33.114  18.393 -23.252  0.00  0.00     0.073 C 
BRANCH  18  19
ATOM     19  C   UNL d   1      32.470  17.895 -23.246  0.00  0.00     0.296 C 
ATOM     20  O   UNL d   1      31.777  18.146 -23.507  0.00  0.00    -0.259 OA
BRANCH  19  21
ATOM     21  O   UNL d   1      32.552  17.137 -22.969  0.00  0.00    -0.296 OA
ATOM     22  C   UNL d   1      31.884  16.680 -22.852  0.00  0.00     0.185 C 
ENDBRANCH  19  21
ENDBRANCH  18  19
ENDBRANCH  17  18
ENDBRANCH  14  17
ENDBRANCH   1  12
TORSDOF 7
ENDMDL
MODEL 5
REMARK VINA RESULT:       3.4      1.713      3.898
REMARK  7 active torsions:
REMARK  status: ('A' for Active; 'I' for Inactive)
REMARK    1  A    between atoms: N_4  and  C_1 
REMARK    2  A    between atoms: C_9  and  C_2 
REMARK    3  A    between atoms: C_7  and  N_4 
REMARK       I    between atoms: C_10  and  N_8 
REMARK    4  A    between atoms: C_17  and  C_10 
REMARK    5  A    between atoms: C_12  and  C_18 
REMARK    6  A    between atoms: O_20  and  C_12 
REMARK    7  A    between atoms: C_18  and  C_17 
ROOT
ATOM      1  N   UNL d   1      32.987  19.565 -22.067  0.00  0.00    -0.211 NA
ENDROOT
BRANCH   1   2
ATOM      2  C   UNL d   1      32.999  19.079 -22.758  0.00  0.00     0.118 A 
ATOM      3  C   UNL d   1      32.836  19.336 -23.547  0.00  0.00     0.084 A 
ATOM      4  C   UNL d   1      32.912  18.681 -24.043  0.00  0.00     0.013 A 
ATOM      5  C   UNL d   1      32.796  18.682 -24.892  0.00  0.00     0.001 C 
ATOM      6  C   UNL d   1      33.112  18.037 -23.601  0.00  0.00     0.031 A 
ATOM      7  S   UNL d   1      33.169  18.267 -22.810  0.00  0.00    -0.068 SA
ATOM      8  C   UNL d   1      33.240  17.253 -23.917  0.00  0.00     0.007 C 
BRANCH   3   9
ATOM      9  C   UNL d   1      32.631  20.128 -23.783  0.00  0.00     0.299 C 
ATOM     10  O   UNL d   1      33.239  20.674 -23.999  0.00  0.00    -0.264 OA
ATOM     11  N   UNL d   1      31.814  20.382 -23.804  0.00  0.00    -0.102 N 
ENDBRANCH   3   9
ENDBRANCH   1   2
BRANCH   1  12
ATOM     12  C   UNL d   1      33.132  19.236 -21.350  0.00  0.00     0.224 C 
ATOM     13  N   UNL d   1      33.240  19.953 -20.398  0.00  0.00    -0.179 NA
ATOM     14  C   UNL d   1      33.166  20.752 -20.491  0.00  0.00     0.281 C 
ATOM     15  O   UNL d   1      33.239  21.235 -19.849  0.00  0.00    -0.265 OA
ATOM     16  S   UNL d   1      33.205  18.435 -21.263  0.00  0.00    -0.037 SA
BRANCH  14  17
ATOM     17  C   UNL d   1      33.021  21.067 -21.210  0.00  0.00     0.068 C 
BRANCH  17  18
ATOM     18  C   UNL d   1      33.168  21.857 -21.322  0.00  0.00     0.073 C 
BRANCH  18  19
ATOM     19  C   UNL d   1      32.648  22.390 -20.991  0.00  0.00     0.296 C 
ATOM     20  O   UNL d   1      32.689  22.556 -20.228  0.00  0.00    -0.259 OA
BRANCH  19  21
ATOM     21  O   UNL d   1      32.089  22.747 -21.458  0.00  0.00    -0.296 OA
ATOM     22  C   UNL d   1      31.569  23.281 -21.121  0.00  0.00     0.185 C 
ENDBRANCH  19  21
ENDBRANCH  18  19
ENDBRANCH  17  18
ENDBRANCH  14  17
ENDBRANCH   1  12
TORSDOF 7
ENDMDL
