MODEL 1
REMARK VINA RESULT:     -10.3      0.000      0.000
REMARK  2 active torsions:
REMARK  status: ('A' for Active; 'I' for Inactive)
REMARK       I    between atoms: C_7  and  N_1 
REMARK    1  A    between atoms: C_6  and  C_3 
REMARK    2  A    between atoms: C_8  and  C_4 
ROOT
ATOM      1  N   UNL d   1      52.938  32.458  53.389  0.00  0.00    -0.195 N 
ATOM      2  N   UNL d   1      52.227  32.570  53.012  0.00  0.00    -0.163 NA
ATOM      3  C   UNL d   1      53.199  33.186  53.676  0.00  0.00     0.091 A 
ATOM      4  C   UNL d   1      52.044  33.374  53.065  0.00  0.00     0.104 A 
ATOM      5  C   UNL d   1      52.644  33.745  53.473  0.00  0.00     0.040 A 
ATOM      6  C   UNL d   1      53.352  31.718  53.478  0.00  0.00     0.281 C 
ATOM      7  O   UNL d   1      54.054  31.686  53.865  0.00  0.00    -0.265 OA
ATOM      8  C   UNL d   1      53.014  31.039  53.156  0.00  0.00     0.068 C 
ENDROOT
BRANCH   3   9
ATOM      9  C   UNL d   1      53.902  33.315  54.095  0.00  0.00     0.057 A 
ATOM     10  C   UNL d   1      53.873  33.527  54.872  0.00  0.00     0.197 A 
ATOM     11  O   UNL d   1      53.161  33.615  55.250  0.00  0.00    -0.286 OA
ATOM     12  C   UNL d   1      54.574  33.658  55.298  0.00  0.00     0.042 A 
ATOM     13  C   UNL d   1      55.310  33.573  54.932  0.00  0.00     0.003 A 
ATOM     14  C   UNL d   1      55.318  33.357  54.141  0.00  0.00     0.000 A 
ATOM     15  C   UNL d   1      54.637  33.231  53.732  0.00  0.00     0.005 A 
ENDBRANCH   3   9
BRANCH   4  16
ATOM     16  C   UNL d   1      51.370  33.737  52.757  0.00  0.00     0.039 A 
ATOM     17  C   UNL d   1      50.685  33.790  53.214  0.00  0.00     0.101 A 
ATOM     18  N   UNL d   1      50.011  34.154  52.906  0.00  0.00    -0.242 NA
ATOM     19  C   UNL d   1      50.023  34.465  52.142  0.00  0.00     0.099 A 
ATOM     20  C   UNL d   1      50.709  34.412  51.685  0.00  0.00     0.021 A 
ATOM     21  C   UNL d   1      51.383  34.048  51.993  0.00  0.00     0.005 A 
ENDBRANCH   4  16
TORSDOF 2
ENDMDL
MODEL 2
REMARK VINA RESULT:      -9.6      1.016      2.406
REMARK  2 active torsions:
REMARK  status: ('A' for Active; 'I' for Inactive)
REMARK       I    between atoms: C_7  and  N_1 
REMARK    1  A    between atoms: C_6  and  C_3 
REMARK    2  A    between atoms: C_8  and  C_4 
ROOT
ATOM      1  N   UNL d   1      53.337  32.487  53.421  0.00  0.00    -0.195 N 
ATOM      2  N   UNL d   1      52.936  33.173  53.251  0.00  0.00    -0.163 NA
ATOM      3  C   UNL d   1      52.812  31.854  53.355  0.00  0.00     0.091 A 
ATOM      4  C   UNL d   1      52.155  32.965  53.078  0.00  0.00     0.104 A 
ATOM      5  C   UNL d   1      52.086  32.155  53.144  0.00  0.00     0.040 A 
ATOM      6  C   UNL d   1      54.160  32.423  53.632  0.00  0.00     0.281 C 
ATOM      7  O   UNL d   1      54.488  31.707  53.787  0.00  0.00    -0.265 OA
ATOM      8  C   UNL d   1      54.610  33.112  53.674  0.00  0.00     0.068 C 
ENDROOT
BRANCH   3   9
ATOM      9  C   UNL d   1      52.999  31.057  53.484  0.00  0.00     0.057 A 
ATOM     10  C   UNL d   1      52.992  30.539  52.866  0.00  0.00     0.197 A 
ATOM     11  O   UNL d   1      52.803  30.789  52.119  0.00  0.00    -0.286 OA
ATOM     12  C   UNL d   1      53.179  29.739  52.988  0.00  0.00     0.042 A 
ATOM     13  C   UNL d   1      53.374  29.463  53.742  0.00  0.00     0.003 A 
ATOM     14  C   UNL d   1      53.376  30.006  54.357  0.00  0.00     0.000 A 
ATOM     15  C   UNL d   1      53.195  30.780  54.235  0.00  0.00     0.005 A 
ENDBRANCH   3   9
BRANCH   4  16
ATOM     16  C   UNL d   1      51.550  33.487  52.874  0.00  0.00     0.039 A 
ATOM     17  C   UNL d   1      50.912  33.601  53.385  0.00  0.00     0.101 A 
ATOM     18  N   UNL d   1      50.307  34.122  53.181  0.00  0.00    -0.242 NA
ATOM     19  C   UNL d   1      50.339  34.531  52.464  0.00  0.00     0.099 A 
ATOM     20  C   UNL d   1      50.977  34.417  51.953  0.00  0.00     0.021 A 
ATOM     21  C   UNL d   1      51.582  33.895  52.158  0.00  0.00     0.005 A 
ENDBRANCH   4  16
TORSDOF 2
ENDMDL
MODEL 3
REMARK VINA RESULT:      -9.4      1.313      3.066
REMARK  2 active torsions:
REMARK  status: ('A' for Active; 'I' for Inactive)
REMARK       I    between atoms: C_7  and  N_1 
REMARK    1  A    between atoms: C_6  and  C_3 
REMARK    2  A    between atoms: C_8  and  C_4 
ROOT
ATOM      1  N   UNL d   1      53.066  32.724  53.746  0.00  0.00    -0.195 N 
ATOM      2  N   UNL d   1      52.708  32.052  53.462  0.00  0.00    -0.163 NA
ATOM      3  C   UNL d   1      53.774  32.508  54.108  0.00  0.00     0.091 A 
ATOM      4  C   UNL d   1      53.197  31.414  53.649  0.00  0.00     0.104 A 
ATOM      5  C   UNL d   1      53.850  31.701  54.046  0.00  0.00     0.040 A 
ATOM      6  C   UNL d   1      52.768  33.520  53.684  0.00  0.00     0.281 C 
ATOM      7  O   UNL d   1      53.180  34.136  53.991  0.00  0.00    -0.265 OA
ATOM      8  C   UNL d   1      52.047  33.641  53.303  0.00  0.00     0.068 C 
ENDROOT
BRANCH   3   9
ATOM      9  C   UNL d   1      54.309  33.029  54.470  0.00  0.00     0.057 A 
ATOM     10  C   UNL d   1      54.998  33.219  54.097  0.00  0.00     0.197 A 
ATOM     11  O   UNL d   1      55.175  32.906  53.371  0.00  0.00    -0.286 OA
ATOM     12  C   UNL d   1      55.538  33.739  54.454  0.00  0.00     0.042 A 
ATOM     13  C   UNL d   1      55.377  34.069  55.194  0.00  0.00     0.003 A 
ATOM     14  C   UNL d   1      54.670  33.864  55.557  0.00  0.00     0.000 A 
ATOM     15  C   UNL d   1      54.150  33.359  55.208  0.00  0.00     0.005 A 
ENDBRANCH   3   9
BRANCH   4  16
ATOM     16  C   UNL d   1      53.051  30.623  53.467  0.00  0.00     0.039 A 
ATOM     17  C   UNL d   1      53.055  30.054  54.064  0.00  0.00     0.101 A 
ATOM     18  N   UNL d   1      52.909  29.262  53.882  0.00  0.00    -0.242 NA
ATOM     19  C   UNL d   1      52.759  29.040  53.101  0.00  0.00     0.099 A 
ATOM     20  C   UNL d   1      52.755  29.610  52.503  0.00  0.00     0.021 A 
ATOM     21  C   UNL d   1      52.902  30.401  52.686  0.00  0.00     0.005 A 
ENDBRANCH   4  16
TORSDOF 2
ENDMDL
MODEL 4
REMARK VINA RESULT:      -9.2      1.275      3.710
REMARK  2 active torsions:
REMARK  status: ('A' for Active; 'I' for Inactive)
REMARK       I    between atoms: C_7  and  N_1 
REMARK    1  A    between atoms: C_6  and  C_3 
REMARK    2  A    between atoms: C_8  and  C_4 
ROOT
ATOM      1  N   UNL d   1      52.801  32.553  53.353  0.00  0.00    -0.195 N 
ATOM      2  N   UNL d   1      53.507  32.512  53.751  0.00  0.00    -0.163 NA
ATOM      3  C   UNL d   1      52.490  33.310  53.450  0.00  0.00     0.091 A 
ATOM      4  C   UNL d   1      53.637  33.249  54.100  0.00  0.00     0.104 A 
ATOM      5  C   UNL d   1      53.009  33.734  53.911  0.00  0.00     0.040 A 
ATOM      6  C   UNL d   1      52.435  31.926  52.906  0.00  0.00     0.281 C 
ATOM      7  O   UNL d   1      51.732  32.042  52.538  0.00  0.00    -0.265 OA
ATOM      8  C   UNL d   1      52.820  31.199  52.863  0.00  0.00     0.068 C 
ENDROOT
BRANCH   3   9
ATOM      9  C   UNL d   1      51.774  33.583  53.132  0.00  0.00     0.057 A 
ATOM     10  C   UNL d   1      51.781  34.139  52.548  0.00  0.00     0.197 A 
ATOM     11  O   UNL d   1      52.481  34.436  52.269  0.00  0.00    -0.286 OA
ATOM     12  C   UNL d   1      51.068  34.416  52.225  0.00  0.00     0.042 A 
ATOM     13  C   UNL d   1      50.343  34.127  52.497  0.00  0.00     0.003 A 
ATOM     14  C   UNL d   1      50.358  33.562  53.091  0.00  0.00     0.000 A 
ATOM     15  C   UNL d   1      51.050  33.296  53.401  0.00  0.00     0.005 A 
ENDBRANCH   3   9
BRANCH   4  16
ATOM     16  C   UNL d   1      54.289  33.459  54.560  0.00  0.00     0.039 A 
ATOM     17  C   UNL d   1      54.212  33.529  55.378  0.00  0.00     0.101 A 
ATOM     18  N   UNL d   1      54.864  33.739  55.838  0.00  0.00    -0.242 NA
ATOM     19  C   UNL d   1      55.594  33.878  55.478  0.00  0.00     0.099 A 
ATOM     20  C   UNL d   1      55.671  33.808  54.660  0.00  0.00     0.021 A 
ATOM     21  C   UNL d   1      55.018  33.598  54.200  0.00  0.00     0.005 A 
ENDBRANCH   4  16
TORSDOF 2
ENDMDL
MODEL 5
REMARK VINA RESULT:      -9.0      1.395      3.506
REMARK  2 active torsions:
REMARK  status: ('A' for Active; 'I' for Inactive)
REMARK       I    between atoms: C_7  and  N_1 
REMARK    1  A    between atoms: C_6  and  C_3 
REMARK    2  A    between atoms: C_8  and  C_4 
ROOT
ATOM      1  N   UNL d   1      53.484  32.724  54.126  0.00  0.00    -0.195 N 
ATOM      2  N   UNL d   1      53.664  31.941  54.244  0.00  0.00    -0.163 NA
ATOM      3  C   UNL d   1      52.891  32.772  53.555  0.00  0.00     0.091 A 
ATOM      4  C   UNL d   1      53.180  31.498  53.742  0.00  0.00     0.104 A 
ATOM      5  C   UNL d   1      52.708  32.015  53.322  0.00  0.00     0.040 A 
ATOM      6  C   UNL d   1      53.841  33.391  54.520  0.00  0.00     0.281 C 
ATOM      7  O   UNL d   1      53.609  34.139  54.350  0.00  0.00    -0.265 OA
ATOM      8  C   UNL d   1      54.428  33.246  55.080  0.00  0.00     0.068 C 
ENDROOT
BRANCH   3   9
ATOM      9  C   UNL d   1      52.548  33.473  53.273  0.00  0.00     0.057 A 
ATOM     10  C   UNL d   1      51.764  33.614  53.398  0.00  0.00     0.197 A 
ATOM     11  O   UNL d   1      51.306  33.078  53.798  0.00  0.00    -0.286 OA
ATOM     12  C   UNL d   1      51.415  34.314  53.118  0.00  0.00     0.042 A 
ATOM     13  C   UNL d   1      51.864  34.873  52.709  0.00  0.00     0.003 A 
ATOM     14  C   UNL d   1      52.659  34.711  52.592  0.00  0.00     0.000 A 
ATOM     15  C   UNL d   1      52.994  34.032  52.864  0.00  0.00     0.005 A 
ENDBRANCH   3   9
BRANCH   4  16
ATOM     16  C   UNL d   1      53.175  30.676  53.677  0.00  0.00     0.039 A 
ATOM     17  C   UNL d   1      53.204  30.208  54.356  0.00  0.00     0.101 A 
ATOM     18  N   UNL d   1      53.199  29.386  54.291  0.00  0.00    -0.242 NA
ATOM     19  C   UNL d   1      53.164  29.031  53.546  0.00  0.00     0.099 A 
ATOM     20  C   UNL d   1      53.135  29.499  52.868  0.00  0.00     0.021 A 
ATOM     21  C   UNL d   1      53.140  30.322  52.933  0.00  0.00     0.005 A 
ENDBRANCH   4  16
TORSDOF 2
ENDMDL
MODEL 6
REMARK VINA RESULT:      -8.9      1.250      2.027
REMARK  2 active torsions:
REMARK  status: ('A' for Active; 'I' for Inactive)
REMARK       I    between atoms: C_7  and  N_1 
REMARK    1  A    between atoms: C_6  and  C_3 
REMARK    2  A    between atoms: C_8  and  C_4 
ROOT
ATOM      1  N   UNL d   1      52.671  34.729  53.939  0.00  0.00    -0.195 N 
ATOM      2  N   UNL d   1      52.003  34.993  53.558  0.00  0.00    -0.163 NA
ATOM      3  C   UNL d   1      52.754  33.922  53.791  0.00  0.00     0.091 A 
ATOM      4  C   UNL d   1      51.669  34.345  53.170  0.00  0.00     0.104 A 
ATOM      5  C   UNL d   1      52.134  33.691  53.317  0.00  0.00     0.040 A 
ATOM      6  C   UNL d   1      53.201  35.199  54.413  0.00  0.00     0.281 C 
ATOM      7  O   UNL d   1      53.844  34.865  54.759  0.00  0.00    -0.265 OA
ATOM      8  C   UNL d   1      53.038  36.001  54.506  0.00  0.00     0.068 C 
ENDROOT
BRANCH   3   9
ATOM      9  C   UNL d   1      53.364  33.439  54.077  0.00  0.00     0.057 A 
ATOM     10  C   UNL d   1      53.900  33.123  53.564  0.00  0.00     0.197 A 
ATOM     11  O   UNL d   1      53.849  33.271  52.769  0.00  0.00    -0.286 OA
ATOM     12  C   UNL d   1      54.513  32.638  53.845  0.00  0.00     0.042 A 
ATOM     13  C   UNL d   1      54.583  32.474  54.652  0.00  0.00     0.003 A 
ATOM     14  C   UNL d   1      54.029  32.806  55.157  0.00  0.00     0.000 A 
ATOM     15  C   UNL d   1      53.436  33.274  54.882  0.00  0.00     0.005 A 
ENDBRANCH   3   9
BRANCH   4  16
ATOM     16  C   UNL d   1      50.982  34.357  52.713  0.00  0.00     0.039 A 
ATOM     17  C   UNL d   1      50.250  34.488  53.071  0.00  0.00     0.101 A 
ATOM     18  N   UNL d   1      49.564  34.501  52.614  0.00  0.00    -0.242 NA
ATOM     19  C   UNL d   1      49.609  34.381  51.798  0.00  0.00     0.099 A 
ATOM     20  C   UNL d   1      50.341  34.249  51.441  0.00  0.00     0.021 A 
ATOM     21  C   UNL d   1      51.028  34.237  51.899  0.00  0.00     0.005 A 
ENDBRANCH   4  16
TORSDOF 2
ENDMDL
MODEL 7
REMARK VINA RESULT:      -8.3      1.484      3.750
REMARK  2 active torsions:
REMARK  status: ('A' for Active; 'I' for Inactive)
REMARK       I    between atoms: C_7  and  N_1 
REMARK    1  A    between atoms: C_6  and  C_3 
REMARK    2  A    between atoms: C_8  and  C_4 
ROOT
ATOM      1  N   UNL d   1      52.881  32.332  53.555  0.00  0.00    -0.195 N 
ATOM      2  N   UNL d   1      53.246  32.989  53.862  0.00  0.00    -0.163 NA
ATOM      3  C   UNL d   1      53.374  31.681  53.669  0.00  0.00     0.091 A 
ATOM      4  C   UNL d   1      53.974  32.745  54.169  0.00  0.00     0.104 A 
ATOM      5  C   UNL d   1      54.045  31.942  54.048  0.00  0.00     0.040 A 
ATOM      6  C   UNL d   1      52.116  32.309  53.178  0.00  0.00     0.281 C 
ATOM      7  O   UNL d   1      51.819  31.619  52.898  0.00  0.00    -0.265 OA
ATOM      8  C   UNL d   1      51.692  33.012  53.108  0.00  0.00     0.068 C 
ENDROOT
BRANCH   3   9
ATOM      9  C   UNL d   1      53.208  30.903  53.436  0.00  0.00     0.057 A 
ATOM     10  C   UNL d   1      53.151  30.322  53.991  0.00  0.00     0.197 A 
ATOM     11  O   UNL d   1      53.255  30.489  54.777  0.00  0.00    -0.286 OA
ATOM     12  C   UNL d   1      52.984  29.540  53.764  0.00  0.00     0.042 A 
ATOM     13  C   UNL d   1      52.875  29.348  52.968  0.00  0.00     0.003 A 
ATOM     14  C   UNL d   1      52.937  29.954  52.419  0.00  0.00     0.000 A 
ATOM     15  C   UNL d   1      53.098  30.709  52.642  0.00  0.00     0.005 A 
ENDBRANCH   3   9
BRANCH   4  16
ATOM     16  C   UNL d   1      54.531  33.231  54.536  0.00  0.00     0.039 A 
ATOM     17  C   UNL d   1      54.404  33.496  55.307  0.00  0.00     0.101 A 
ATOM     18  N   UNL d   1      54.961  33.981  55.674  0.00  0.00    -0.242 NA
ATOM     19  C   UNL d   1      55.646  34.201  55.268  0.00  0.00     0.099 A 
ATOM     20  C   UNL d   1      55.773  33.936  54.498  0.00  0.00     0.021 A 
ATOM     21  C   UNL d   1      55.215  33.451  54.131  0.00  0.00     0.005 A 
ENDBRANCH   4  16
TORSDOF 2
ENDMDL
