MODEL 1
REMARK VINA RESULT:      -3.9      0.000      0.000
REMARK  6 active torsions:
REMARK  status: ('A' for Active; 'I' for Inactive)
REMARK    1  A    between atoms: C_7  and  C_2 
REMARK    2  A    between atoms: C_16  and  N_3 
REMARK    3  A    between atoms: O_17  and  C_9 
REMARK    4  A    between atoms: O_19  and  C_10 
REMARK    5  A    between atoms: O_18  and  C_11 
REMARK    6  A    between atoms: C_25  and  C_16 
ROOT
ATOM      1  N   UNL d   1      50.016  35.041  53.997  0.00  0.00    -0.206 NA
ATOM      2  C   UNL d   1      50.363  34.694  53.328  0.00  0.00     0.151 A 
ATOM      3  N   UNL d   1      49.848  34.807  52.686  0.00  0.00    -0.273 N 
ATOM      4  C   UNL d   1      49.192  35.221  52.967  0.00  0.00     0.185 A 
ATOM      5  C   UNL d   1      49.293  35.366  53.772  0.00  0.00     0.199 A 
ATOM      6  N   UNL d   1      48.501  35.490  52.588  0.00  0.00    -0.224 NA
ATOM      7  N   UNL d   1      48.718  35.773  54.197  0.00  0.00    -0.223 NA
ATOM      8  C   UNL d   1      47.927  35.898  53.018  0.00  0.00     0.101 A 
ATOM      9  C   UNL d   1      48.037  36.038  53.824  0.00  0.00     0.101 A 
ATOM     10  C   UNL d   1      47.242  36.163  52.633  0.00  0.00     0.021 A 
ATOM     11  C   UNL d   1      47.466  36.443  54.246  0.00  0.00     0.021 A 
ATOM     12  C   UNL d   1      46.782  36.709  53.872  0.00  0.00     0.002 A 
ATOM     13  C   UNL d   1      46.671  36.569  53.065  0.00  0.00     0.002 A 
ENDROOT
BRANCH   2  14
ATOM     14  C   UNL d   1      51.087  34.308  53.303  0.00  0.00     0.039 A 
ATOM     15  C   UNL d   1      51.107  33.465  53.232  0.00  0.00     0.029 A 
ATOM     16  C   UNL d   1      51.832  33.057  53.206  0.00  0.00     0.118 A 
ATOM     17  C   UNL d   1      52.541  33.498  53.251  0.00  0.00     0.138 A 
ATOM     18  C   UNL d   1      52.520  34.341  53.322  0.00  0.00     0.118 A 
ATOM     19  C   UNL d   1      51.791  34.754  53.349  0.00  0.00     0.029 A 
BRANCH  16  20
ATOM     20  O   UNL d   1      51.852  32.231  53.136  0.00  0.00    -0.326 OA
ATOM     21  C   UNL d   1      50.984  31.672  53.305  0.00  0.00     0.181 C 
ENDBRANCH  16  20
BRANCH  17  22
ATOM     22  O   UNL d   1      53.265  33.118  53.227  0.00  0.00    -0.324 OA
ATOM     23  C   UNL d   1      53.747  32.744  54.121  0.00  0.00     0.182 C 
ENDBRANCH  17  22
BRANCH  18  24
ATOM     24  O   UNL d   1      53.225  34.787  53.368  0.00  0.00    -0.326 OA
ATOM     25  C   UNL d   1      53.301  35.671  54.034  0.00  0.00     0.181 C 
ENDBRANCH  18  24
ENDBRANCH   2  14
BRANCH   3  26
ATOM     26  C   UNL d   1      49.971  34.553  51.918  0.00  0.00     0.083 C 
BRANCH  26  27
ATOM     27  C   UNL d   1      49.335  34.325  51.452  0.00  0.00     0.019 C 
ATOM     28  C   UNL d   1      49.458  34.095  50.672  0.00  0.00     0.002 C 
ENDBRANCH  26  27
ENDBRANCH   3  26
TORSDOF 6
ENDMDL
MODEL 2
REMARK VINA RESULT:      -3.9      1.965      4.932
REMARK  6 active torsions:
REMARK  status: ('A' for Active; 'I' for Inactive)
REMARK    1  A    between atoms: C_7  and  C_2 
REMARK    2  A    between atoms: C_16  and  N_3 
REMARK    3  A    between atoms: O_17  and  C_9 
REMARK    4  A    between atoms: O_19  and  C_10 
REMARK    5  A    between atoms: O_18  and  C_11 
REMARK    6  A    between atoms: C_25  and  C_16 
ROOT
ATOM      1  N   UNL d   1      51.645  34.977  53.376  0.00  0.00    -0.206 NA
ATOM      2  C   UNL d   1      51.011  34.462  53.232  0.00  0.00     0.151 A 
ATOM      3  N   UNL d   1      51.248  33.699  53.457  0.00  0.00    -0.273 N 
ATOM      4  C   UNL d   1      52.022  33.753  53.736  0.00  0.00     0.185 A 
ATOM      5  C   UNL d   1      52.269  34.538  53.687  0.00  0.00     0.199 A 
ATOM      6  N   UNL d   1      52.547  33.179  54.034  0.00  0.00    -0.224 NA
ATOM      7  N   UNL d   1      53.025  34.752  53.930  0.00  0.00    -0.223 NA
ATOM      8  C   UNL d   1      53.304  33.398  54.277  0.00  0.00     0.101 A 
ATOM      9  C   UNL d   1      53.542  34.187  54.224  0.00  0.00     0.101 A 
ATOM     10  C   UNL d   1      53.820  32.820  54.572  0.00  0.00     0.021 A 
ATOM     11  C   UNL d   1      54.293  34.400  54.465  0.00  0.00     0.021 A 
ATOM     12  C   UNL d   1      54.812  33.833  54.760  0.00  0.00     0.002 A 
ATOM     13  C   UNL d   1      54.575  33.044  54.813  0.00  0.00     0.002 A 
ENDROOT
BRANCH   2  14
ATOM     14  C   UNL d   1      50.280  34.669  52.923  0.00  0.00     0.039 A 
ATOM     15  C   UNL d   1      49.698  35.022  53.428  0.00  0.00     0.029 A 
ATOM     16  C   UNL d   1      48.951  35.238  53.131  0.00  0.00     0.118 A 
ATOM     17  C   UNL d   1      48.787  35.100  52.323  0.00  0.00     0.138 A 
ATOM     18  C   UNL d   1      49.369  34.748  51.818  0.00  0.00     0.118 A 
ATOM     19  C   UNL d   1      50.122  34.529  52.115  0.00  0.00     0.029 A 
BRANCH  16  20
ATOM     20  O   UNL d   1      48.382  35.582  53.625  0.00  0.00    -0.326 OA
ATOM     21  C   UNL d   1      48.672  36.282  54.347  0.00  0.00     0.181 C 
ENDBRANCH  16  20
BRANCH  17  22
ATOM     22  O   UNL d   1      48.060  35.304  52.009  0.00  0.00    -0.324 OA
ATOM     23  C   UNL d   1      47.795  36.331  51.793  0.00  0.00     0.182 C 
ENDBRANCH  17  22
BRANCH  18  24
ATOM     24  O   UNL d   1      49.211  34.607  51.010  0.00  0.00    -0.326 OA
ATOM     25  C   UNL d   1      48.766  33.650  50.672  0.00  0.00     0.181 C 
ENDBRANCH  18  24
ENDBRANCH   2  14
BRANCH   3  26
ATOM     26  C   UNL d   1      50.793  33.019  53.410  0.00  0.00     0.083 C 
BRANCH  26  27
ATOM     27  C   UNL d   1      51.140  32.305  53.199  0.00  0.00     0.019 C 
ATOM     28  C   UNL d   1      50.724  31.602  53.292  0.00  0.00     0.002 C 
ENDBRANCH  26  27
ENDBRANCH   3  26
TORSDOF 6
ENDMDL
MODEL 3
REMARK VINA RESULT:      -3.8      0.096      1.570
REMARK  6 active torsions:
REMARK  status: ('A' for Active; 'I' for Inactive)
REMARK    1  A    between atoms: C_7  and  C_2 
REMARK    2  A    between atoms: C_16  and  N_3 
REMARK    3  A    between atoms: O_17  and  C_9 
REMARK    4  A    between atoms: O_19  and  C_10 
REMARK    5  A    between atoms: O_18  and  C_11 
REMARK    6  A    between atoms: C_25  and  C_16 
ROOT
ATOM      1  N   UNL d   1      49.955  35.056  53.990  0.00  0.00    -0.206 NA
ATOM      2  C   UNL d   1      50.310  34.720  53.320  0.00  0.00     0.151 A 
ATOM      3  N   UNL d   1      49.800  34.838  52.675  0.00  0.00    -0.273 N 
ATOM      4  C   UNL d   1      49.139  35.245  52.956  0.00  0.00     0.185 A 
ATOM      5  C   UNL d   1      49.232  35.380  53.763  0.00  0.00     0.199 A 
ATOM      6  N   UNL d   1      48.450  35.516  52.574  0.00  0.00    -0.224 NA
ATOM      7  N   UNL d   1      48.651  35.778  54.188  0.00  0.00    -0.223 NA
ATOM      8  C   UNL d   1      47.870  35.915  53.003  0.00  0.00     0.101 A 
ATOM      9  C   UNL d   1      47.973  36.045  53.812  0.00  0.00     0.101 A 
ATOM     10  C   UNL d   1      47.188  36.181  52.616  0.00  0.00     0.021 A 
ATOM     11  C   UNL d   1      47.395  36.441  54.235  0.00  0.00     0.021 A 
ATOM     12  C   UNL d   1      46.714  36.709  53.857  0.00  0.00     0.002 A 
ATOM     13  C   UNL d   1      46.611  36.579  53.049  0.00  0.00     0.002 A 
ENDROOT
BRANCH   2  14
ATOM     14  C   UNL d   1      51.036  34.338  53.297  0.00  0.00     0.039 A 
ATOM     15  C   UNL d   1      51.745  34.780  53.434  0.00  0.00     0.029 A 
ATOM     16  C   UNL d   1      52.489  34.409  53.414  0.00  0.00     0.118 A 
ATOM     17  C   UNL d   1      52.523  33.589  53.256  0.00  0.00     0.138 A 
ATOM     18  C   UNL d   1      51.814  33.146  53.120  0.00  0.00     0.118 A 
ATOM     19  C   UNL d   1      51.063  33.518  53.139  0.00  0.00     0.029 A 
BRANCH  16  20
ATOM     20  O   UNL d   1      53.183  34.842  53.548  0.00  0.00    -0.326 OA
ATOM     21  C   UNL d   1      53.151  35.712  54.129  0.00  0.00     0.181 C 
ENDBRANCH  16  20
BRANCH  17  22
ATOM     22  O   UNL d   1      53.244  33.203  53.232  0.00  0.00    -0.324 OA
ATOM     23  C   UNL d   1      53.729  32.836  54.127  0.00  0.00     0.182 C 
ENDBRANCH  17  22
BRANCH  18  24
ATOM     24  O   UNL d   1      51.841  32.327  52.961  0.00  0.00    -0.326 OA
ATOM     25  C   UNL d   1      51.043  31.647  53.324  0.00  0.00     0.181 C 
ENDBRANCH  18  24
ENDBRANCH   2  14
BRANCH   3  26
ATOM     26  C   UNL d   1      49.931  34.595  51.905  0.00  0.00     0.083 C 
BRANCH  26  27
ATOM     27  C   UNL d   1      49.300  34.373  51.428  0.00  0.00     0.019 C 
ATOM     28  C   UNL d   1      49.437  34.082  50.672  0.00  0.00     0.002 C 
ENDBRANCH  26  27
ENDBRANCH   3  26
TORSDOF 6
ENDMDL
MODEL 4
REMARK VINA RESULT:      -3.7      2.065      5.132
REMARK  6 active torsions:
REMARK  status: ('A' for Active; 'I' for Inactive)
REMARK    1  A    between atoms: C_7  and  C_2 
REMARK    2  A    between atoms: C_16  and  N_3 
REMARK    3  A    between atoms: O_17  and  C_9 
REMARK    4  A    between atoms: O_19  and  C_10 
REMARK    5  A    between atoms: O_18  and  C_11 
REMARK    6  A    between atoms: C_25  and  C_16 
ROOT
ATOM      1  N   UNL d   1      50.720  32.985  52.943  0.00  0.00    -0.206 NA
ATOM      2  C   UNL d   1      50.765  33.810  53.016  0.00  0.00     0.151 A 
ATOM      3  N   UNL d   1      51.549  34.007  53.205  0.00  0.00    -0.273 N 
ATOM      4  C   UNL d   1      51.976  33.303  53.246  0.00  0.00     0.185 A 
ATOM      5  C   UNL d   1      51.469  32.674  53.086  0.00  0.00     0.199 A 
ATOM      6  N   UNL d   1      52.778  33.149  53.413  0.00  0.00    -0.224 NA
ATOM      7  N   UNL d   1      51.752  31.901  53.090  0.00  0.00    -0.223 NA
ATOM      8  C   UNL d   1      53.057  32.372  53.416  0.00  0.00     0.101 A 
ATOM      9  C   UNL d   1      52.541  31.748  53.253  0.00  0.00     0.101 A 
ATOM     10  C   UNL d   1      53.856  32.227  53.582  0.00  0.00     0.021 A 
ATOM     11  C   UNL d   1      52.821  30.980  53.257  0.00  0.00     0.021 A 
ATOM     12  C   UNL d   1      53.614  30.827  53.422  0.00  0.00     0.002 A 
ATOM     13  C   UNL d   1      54.130  31.451  53.584  0.00  0.00     0.002 A 
ENDROOT
BRANCH   2  14
ATOM     14  C   UNL d   1      50.145  34.339  52.918  0.00  0.00     0.039 A 
ATOM     15  C   UNL d   1      49.821  34.731  53.595  0.00  0.00     0.029 A 
ATOM     16  C   UNL d   1      49.192  35.270  53.515  0.00  0.00     0.118 A 
ATOM     17  C   UNL d   1      48.886  35.416  52.751  0.00  0.00     0.138 A 
ATOM     18  C   UNL d   1      49.210  35.024  52.074  0.00  0.00     0.118 A 
ATOM     19  C   UNL d   1      49.844  34.481  52.153  0.00  0.00     0.029 A 
BRANCH  16  20
ATOM     20  O   UNL d   1      48.875  35.655  54.177  0.00  0.00    -0.326 OA
ATOM     21  C   UNL d   1      49.272  36.571  54.489  0.00  0.00     0.181 C 
ENDBRANCH  16  20
BRANCH  17  22
ATOM     22  O   UNL d   1      48.268  35.943  52.648  0.00  0.00    -0.324 OA
ATOM     23  C   UNL d   1      47.235  35.620  52.640  0.00  0.00     0.182 C 
ENDBRANCH  17  22
BRANCH  18  24
ATOM     24  O   UNL d   1      48.909  35.166  51.308  0.00  0.00    -0.326 OA
ATOM     25  C   UNL d   1      48.546  34.333  50.672  0.00  0.00     0.181 C 
ENDBRANCH  18  24
ENDBRANCH   2  14
BRANCH   3  26
ATOM     26  C   UNL d   1      51.841  34.762  53.327  0.00  0.00     0.083 C 
BRANCH  26  27
ATOM     27  C   UNL d   1      52.603  34.868  53.615  0.00  0.00     0.019 C 
ATOM     28  C   UNL d   1      52.856  35.617  53.843  0.00  0.00     0.002 C 
ENDBRANCH  26  27
ENDBRANCH   3  26
TORSDOF 6
ENDMDL
MODEL 5
REMARK VINA RESULT:      -3.1      1.739      2.868
REMARK  6 active torsions:
REMARK  status: ('A' for Active; 'I' for Inactive)
REMARK    1  A    between atoms: C_7  and  C_2 
REMARK    2  A    between atoms: C_16  and  N_3 
REMARK    3  A    between atoms: O_17  and  C_9 
REMARK    4  A    between atoms: O_19  and  C_10 
REMARK    5  A    between atoms: O_18  and  C_11 
REMARK    6  A    between atoms: C_25  and  C_16 
ROOT
ATOM      1  N   UNL d   1      50.917  33.859  53.641  0.00  0.00    -0.206 NA
ATOM      2  C   UNL d   1      51.712  33.831  53.404  0.00  0.00     0.151 A 
ATOM      3  N   UNL d   1      51.741  34.003  52.592  0.00  0.00    -0.273 N 
ATOM      4  C   UNL d   1      50.967  34.135  52.340  0.00  0.00     0.185 A 
ATOM      5  C   UNL d   1      50.459  34.047  52.983  0.00  0.00     0.199 A 
ATOM      6  N   UNL d   1      50.651  34.327  51.594  0.00  0.00    -0.224 NA
ATOM      7  N   UNL d   1      49.648  34.148  52.888  0.00  0.00    -0.223 NA
ATOM      8  C   UNL d   1      49.838  34.428  51.504  0.00  0.00     0.101 A 
ATOM      9  C   UNL d   1      49.337  34.338  52.154  0.00  0.00     0.101 A 
ATOM     10  C   UNL d   1      49.531  34.619  50.757  0.00  0.00     0.021 A 
ATOM     11  C   UNL d   1      48.530  34.438  52.060  0.00  0.00     0.021 A 
ATOM     12  C   UNL d   1      48.218  34.628  51.322  0.00  0.00     0.002 A 
ATOM     13  C   UNL d   1      48.719  34.719  50.672  0.00  0.00     0.002 A 
ENDROOT
BRANCH   2  14
ATOM     14  C   UNL d   1      52.354  33.663  53.886  0.00  0.00     0.039 A 
ATOM     15  C   UNL d   1      52.660  34.264  54.398  0.00  0.00     0.029 A 
ATOM     16  C   UNL d   1      53.312  34.111  54.893  0.00  0.00     0.118 A 
ATOM     17  C   UNL d   1      53.658  33.351  54.874  0.00  0.00     0.138 A 
ATOM     18  C   UNL d   1      53.352  32.750  54.362  0.00  0.00     0.118 A 
ATOM     19  C   UNL d   1      52.696  32.902  53.863  0.00  0.00     0.029 A 
BRANCH  16  20
ATOM     20  O   UNL d   1      53.611  34.700  55.394  0.00  0.00    -0.326 OA
ATOM     21  C   UNL d   1      53.236  35.675  55.337  0.00  0.00     0.181 C 
ENDBRANCH  16  20
BRANCH  17  22
ATOM     22  O   UNL d   1      54.299  33.178  55.352  0.00  0.00    -0.324 OA
ATOM     23  C   UNL d   1      55.295  33.538  55.130  0.00  0.00     0.182 C 
ENDBRANCH  17  22
BRANCH  18  24
ATOM     24  O   UNL d   1      53.693  31.988  54.340  0.00  0.00    -0.326 OA
ATOM     25  C   UNL d   1      53.292  31.200  53.670  0.00  0.00     0.181 C 
ENDBRANCH  18  24
ENDBRANCH   2  14
BRANCH   3  26
ATOM     26  C   UNL d   1      52.416  34.035  52.131  0.00  0.00     0.083 C 
BRANCH  26  27
ATOM     27  C   UNL d   1      52.639  34.741  51.774  0.00  0.00     0.019 C 
ATOM     28  C   UNL d   1      53.374  34.804  51.409  0.00  0.00     0.002 C 
ENDBRANCH  26  27
ENDBRANCH   3  26
TORSDOF 6
ENDMDL
MODEL 6
REMARK VINA RESULT:      -3.1      1.663      2.392
REMARK  6 active torsions:
REMARK  status: ('A' for Active; 'I' for Inactive)
REMARK    1  A    between atoms: C_7  and  C_2 
REMARK    2  A    between atoms: C_16  and  N_3 
REMARK    3  A    between atoms: O_17  and  C_9 
REMARK    4  A    between atoms: O_19  and  C_10 
REMARK    5  A    between atoms: O_18  and  C_11 
REMARK    6  A    between atoms: C_25  and  C_16 
ROOT
ATOM      1  N   UNL d   1      50.856  34.018  53.657  0.00  0.00    -0.206 NA
ATOM      2  C   UNL d   1      51.644  33.948  53.410  0.00  0.00     0.151 A 
ATOM      3  N   UNL d   1      51.663  34.061  52.587  0.00  0.00    -0.273 N 
ATOM      4  C   UNL d   1      50.889  34.198  52.339  0.00  0.00     0.185 A 
ATOM      5  C   UNL d   1      50.391  34.172  52.995  0.00  0.00     0.199 A 
ATOM      6  N   UNL d   1      50.565  34.347  51.586  0.00  0.00    -0.224 NA
ATOM      7  N   UNL d   1      49.581  34.292  52.907  0.00  0.00    -0.223 NA
ATOM      8  C   UNL d   1      49.753  34.466  51.503  0.00  0.00     0.101 A 
ATOM      9  C   UNL d   1      49.262  34.438  52.166  0.00  0.00     0.101 A 
ATOM     10  C   UNL d   1      49.438  34.614  50.750  0.00  0.00     0.021 A 
ATOM     11  C   UNL d   1      48.457  34.557  52.079  0.00  0.00     0.021 A 
ATOM     12  C   UNL d   1      48.136  34.704  51.335  0.00  0.00     0.002 A 
ATOM     13  C   UNL d   1      48.627  34.732  50.672  0.00  0.00     0.002 A 
ENDROOT
BRANCH   2  14
ATOM     14  C   UNL d   1      52.291  33.795  53.891  0.00  0.00     0.039 A 
ATOM     15  C   UNL d   1      52.615  33.013  53.917  0.00  0.00     0.029 A 
ATOM     16  C   UNL d   1      53.271  32.840  54.400  0.00  0.00     0.118 A 
ATOM     17  C   UNL d   1      53.603  33.454  54.858  0.00  0.00     0.138 A 
ATOM     18  C   UNL d   1      53.278  34.236  54.832  0.00  0.00     0.118 A 
ATOM     19  C   UNL d   1      52.618  34.413  54.347  0.00  0.00     0.029 A 
BRANCH  16  20
ATOM     20  O   UNL d   1      53.588  32.074  54.426  0.00  0.00    -0.326 OA
ATOM     21  C   UNL d   1      53.327  31.376  53.692  0.00  0.00     0.181 C 
ENDBRANCH  16  20
BRANCH  17  22
ATOM     22  O   UNL d   1      54.248  33.307  55.340  0.00  0.00    -0.324 OA
ATOM     23  C   UNL d   1      55.254  33.585  55.054  0.00  0.00     0.182 C 
ENDBRANCH  17  22
BRANCH  18  24
ATOM     24  O   UNL d   1      53.606  34.854  55.288  0.00  0.00    -0.326 OA
ATOM     25  C   UNL d   1      53.260  35.901  55.166  0.00  0.00     0.181 C 
ENDBRANCH  18  24
ENDBRANCH   2  14
BRANCH   3  26
ATOM     26  C   UNL d   1      52.330  34.039  52.112  0.00  0.00     0.083 C 
BRANCH  26  27
ATOM     27  C   UNL d   1      52.548  34.700  51.676  0.00  0.00     0.019 C 
ATOM     28  C   UNL d   1      53.302  34.748  51.350  0.00  0.00     0.002 C 
ENDBRANCH  26  27
ENDBRANCH   3  26
TORSDOF 6
ENDMDL
MODEL 7
REMARK VINA RESULT:      -2.8      1.403      2.684
REMARK  6 active torsions:
REMARK  status: ('A' for Active; 'I' for Inactive)
REMARK    1  A    between atoms: C_7  and  C_2 
REMARK    2  A    between atoms: C_16  and  N_3 
REMARK    3  A    between atoms: O_17  and  C_9 
REMARK    4  A    between atoms: O_19  and  C_10 
REMARK    5  A    between atoms: O_18  and  C_11 
REMARK    6  A    between atoms: C_25  and  C_16 
ROOT
ATOM      1  N   UNL d   1      51.283  33.069  52.245  0.00  0.00    -0.206 NA
ATOM      2  C   UNL d   1      51.789  33.136  52.899  0.00  0.00     0.151 A 
ATOM      3  N   UNL d   1      51.516  33.765  53.368  0.00  0.00    -0.273 N 
ATOM      4  C   UNL d   1      50.848  34.076  52.997  0.00  0.00     0.185 A 
ATOM      5  C   UNL d   1      50.703  33.650  52.307  0.00  0.00     0.199 A 
ATOM      6  N   UNL d   1      50.341  34.705  53.202  0.00  0.00    -0.224 NA
ATOM      7  N   UNL d   1      50.065  33.843  51.825  0.00  0.00    -0.223 NA
ATOM      8  C   UNL d   1      49.703  34.895  52.716  0.00  0.00     0.101 A 
ATOM      9  C   UNL d   1      49.566  34.462  52.026  0.00  0.00     0.101 A 
ATOM     10  C   UNL d   1      49.203  35.523  52.927  0.00  0.00     0.021 A 
ATOM     11  C   UNL d   1      48.931  34.654  51.547  0.00  0.00     0.021 A 
ATOM     12  C   UNL d   1      48.430  35.276  51.749  0.00  0.00     0.002 A 
ATOM     13  C   UNL d   1      48.567  35.709  52.439  0.00  0.00     0.002 A 
ENDROOT
BRANCH   2  14
ATOM     14  C   UNL d   1      52.443  32.666  53.056  0.00  0.00     0.039 A 
ATOM     15  C   UNL d   1      52.329  31.866  53.309  0.00  0.00     0.029 A 
ATOM     16  C   UNL d   1      52.981  31.374  53.473  0.00  0.00     0.118 A 
ATOM     17  C   UNL d   1      53.750  31.688  53.383  0.00  0.00     0.138 A 
ATOM     18  C   UNL d   1      53.864  32.488  53.130  0.00  0.00     0.118 A 
ATOM     19  C   UNL d   1      53.209  32.985  52.964  0.00  0.00     0.029 A 
BRANCH  16  20
ATOM     20  O   UNL d   1      52.870  30.591  53.721  0.00  0.00    -0.326 OA
ATOM     21  C   UNL d   1      51.929  30.143  53.631  0.00  0.00     0.181 C 
ENDBRANCH  16  20
BRANCH  17  22
ATOM     22  O   UNL d   1      54.406  31.223  53.538  0.00  0.00    -0.324 OA
ATOM     23  C   UNL d   1      54.624  30.329  52.969  0.00  0.00     0.182 C 
ENDBRANCH  17  22
BRANCH  18  24
ATOM     24  O   UNL d   1      54.630  32.807  53.037  0.00  0.00    -0.326 OA
ATOM     25  C   UNL d   1      55.143  33.315  53.879  0.00  0.00     0.181 C 
ENDBRANCH  18  24
ENDBRANCH   2  14
BRANCH   3  26
ATOM     26  C   UNL d   1      51.851  34.026  54.068  0.00  0.00     0.083 C 
BRANCH  26  27
ATOM     27  C   UNL d   1      52.069  34.814  54.153  0.00  0.00     0.019 C 
ATOM     28  C   UNL d   1      52.435  35.067  54.844  0.00  0.00     0.002 C 
ENDBRANCH  26  27
ENDBRANCH   3  26
TORSDOF 6
ENDMDL
MODEL 8
REMARK VINA RESULT:      -1.6      3.157      5.909
REMARK  6 active torsions:
REMARK  status: ('A' for Active; 'I' for Inactive)
REMARK    1  A    between atoms: C_7  and  C_2 
REMARK    2  A    between atoms: C_16  and  N_3 
REMARK    3  A    between atoms: O_17  and  C_9 
REMARK    4  A    between atoms: O_19  and  C_10 
REMARK    5  A    between atoms: O_18  and  C_11 
REMARK    6  A    between atoms: C_25  and  C_16 
ROOT
ATOM      1  N   UNL d   1      52.668  32.036  54.412  0.00  0.00    -0.206 NA
ATOM      2  C   UNL d   1      53.121  32.596  54.000  0.00  0.00     0.151 A 
ATOM      3  N   UNL d   1      53.730  32.191  53.607  0.00  0.00    -0.273 N 
ATOM      4  C   UNL d   1      53.646  31.390  53.782  0.00  0.00     0.185 A 
ATOM      5  C   UNL d   1      52.993  31.292  54.276  0.00  0.00     0.199 A 
ATOM      6  N   UNL d   1      54.086  30.721  53.551  0.00  0.00    -0.224 NA
ATOM      7  N   UNL d   1      52.779  30.542  54.539  0.00  0.00    -0.223 NA
ATOM      8  C   UNL d   1      53.868  29.971  53.817  0.00  0.00     0.101 A 
ATOM      9  C   UNL d   1      53.212  29.884  54.312  0.00  0.00     0.101 A 
ATOM     10  C   UNL d   1      54.311  29.311  53.582  0.00  0.00     0.021 A 
ATOM     11  C   UNL d   1      52.999  29.139  54.573  0.00  0.00     0.021 A 
ATOM     12  C   UNL d   1      53.435  28.477  54.345  0.00  0.00     0.002 A 
ATOM     13  C   UNL d   1      54.090  28.565  53.850  0.00  0.00     0.002 A 
ENDROOT
BRANCH   2  14
ATOM     14  C   UNL d   1      52.990  33.406  53.982  0.00  0.00     0.039 A 
ATOM     15  C   UNL d   1      53.331  33.896  54.583  0.00  0.00     0.029 A 
ATOM     16  C   UNL d   1      53.209  34.720  54.581  0.00  0.00     0.118 A 
ATOM     17  C   UNL d   1      52.743  35.053  53.973  0.00  0.00     0.138 A 
ATOM     18  C   UNL d   1      52.402  34.563  53.372  0.00  0.00     0.118 A 
ATOM     19  C   UNL d   1      52.523  33.733  53.373  0.00  0.00     0.029 A 
BRANCH  16  20
ATOM     20  O   UNL d   1      53.543  35.199  55.169  0.00  0.00    -0.326 OA
ATOM     21  C   UNL d   1      54.205  34.786  55.866  0.00  0.00     0.181 C 
ENDBRANCH  16  20
BRANCH  17  22
ATOM     22  O   UNL d   1      52.610  35.860  53.951  0.00  0.00    -0.324 OA
ATOM     23  C   UNL d   1      52.027  36.367  54.709  0.00  0.00     0.182 C 
ENDBRANCH  17  22
BRANCH  18  24
ATOM     24  O   UNL d   1      51.935  34.890  52.763  0.00  0.00    -0.326 OA
ATOM     25  C   UNL d   1      51.286  34.249  52.131  0.00  0.00     0.181 C 
ENDBRANCH  18  24
ENDBRANCH   2  14
BRANCH   3  26
ATOM     26  C   UNL d   1      54.307  32.528  53.135  0.00  0.00     0.083 C 
BRANCH  26  27
ATOM     27  C   UNL d   1      55.099  32.475  53.348  0.00  0.00     0.019 C 
ATOM     28  C   UNL d   1      55.672  32.862  52.903  0.00  0.00     0.002 C 
ENDBRANCH  26  27
ENDBRANCH   3  26
TORSDOF 6
ENDMDL
MODEL 9
REMARK VINA RESULT:      -1.6      2.448      5.423
REMARK  6 active torsions:
REMARK  status: ('A' for Active; 'I' for Inactive)
REMARK    1  A    between atoms: C_7  and  C_2 
REMARK    2  A    between atoms: C_16  and  N_3 
REMARK    3  A    between atoms: O_17  and  C_9 
REMARK    4  A    between atoms: O_19  and  C_10 
REMARK    5  A    between atoms: O_18  and  C_11 
REMARK    6  A    between atoms: C_25  and  C_16 
ROOT
ATOM      1  N   UNL d   1      51.431  31.864  53.419  0.00  0.00    -0.206 NA
ATOM      2  C   UNL d   1      51.773  32.602  53.255  0.00  0.00     0.151 A 
ATOM      3  N   UNL d   1      52.593  32.492  53.186  0.00  0.00    -0.273 N 
ATOM      4  C   UNL d   1      52.745  31.691  53.307  0.00  0.00     0.185 A 
ATOM      5  C   UNL d   1      52.032  31.303  53.451  0.00  0.00     0.199 A 
ATOM      6  N   UNL d   1      53.454  31.254  53.306  0.00  0.00    -0.224 NA
ATOM      7  N   UNL d   1      52.021  30.492  53.591  0.00  0.00    -0.223 NA
ATOM      8  C   UNL d   1      53.438  30.441  53.447  0.00  0.00     0.101 A 
ATOM      9  C   UNL d   1      52.719  30.062  53.590  0.00  0.00     0.101 A 
ATOM     10  C   UNL d   1      54.149  30.013  53.444  0.00  0.00     0.021 A 
ATOM     11  C   UNL d   1      52.707  29.256  53.730  0.00  0.00     0.021 A 
ATOM     12  C   UNL d   1      53.409  28.823  53.729  0.00  0.00     0.002 A 
ATOM     13  C   UNL d   1      54.128  29.203  53.586  0.00  0.00     0.002 A 
ENDROOT
BRANCH   2  14
ATOM     14  C   UNL d   1      51.373  33.314  53.176  0.00  0.00     0.039 A 
ATOM     15  C   UNL d   1      50.848  33.427  52.521  0.00  0.00     0.029 A 
ATOM     16  C   UNL d   1      50.434  34.143  52.425  0.00  0.00     0.118 A 
ATOM     17  C   UNL d   1      50.548  34.749  52.989  0.00  0.00     0.138 A 
ATOM     18  C   UNL d   1      51.073  34.636  53.644  0.00  0.00     0.118 A 
ATOM     19  C   UNL d   1      51.490  33.916  53.743  0.00  0.00     0.029 A 
BRANCH  16  20
ATOM     20  O   UNL d   1      49.921  34.254  51.784  0.00  0.00    -0.326 OA
ATOM     21  C   UNL d   1      50.287  34.195  50.805  0.00  0.00     0.181 C 
ENDBRANCH  16  20
BRANCH  17  22
ATOM     22  O   UNL d   1      50.151  35.461  52.915  0.00  0.00    -0.324 OA
ATOM     23  C   UNL d   1      49.124  35.582  53.232  0.00  0.00     0.182 C 
ENDBRANCH  17  22
BRANCH  18  24
ATOM     24  O   UNL d   1      51.190  35.237  54.211  0.00  0.00    -0.326 OA
ATOM     25  C   UNL d   1      52.210  35.566  54.495  0.00  0.00     0.181 C 
ENDBRANCH  18  24
ENDBRANCH   2  14
BRANCH   3  26
ATOM     26  C   UNL d   1      53.146  33.075  53.026  0.00  0.00     0.083 C 
BRANCH  26  27
ATOM     27  C   UNL d   1      53.900  33.027  53.348  0.00  0.00     0.019 C 
ATOM     28  C   UNL d   1      54.470  33.585  53.146  0.00  0.00     0.002 C 
ENDBRANCH  26  27
ENDBRANCH   3  26
TORSDOF 6
ENDMDL
