MODEL 1
REMARK VINA RESULT:      -8.9      0.000      0.000
REMARK  5 active torsions:
REMARK  status: ('A' for Active; 'I' for Inactive)
REMARK    1  A    between atoms: C_2  and  N_1 
REMARK    2  A    between atoms: C_5  and  N_1 
REMARK    3  A    between atoms: C_7  and  C_2 
REMARK    4  A    between atoms: C_4  and  O_6 
REMARK    5  A    between atoms: O_6  and  C_8 
ROOT
ATOM      1  C   UNL d   1      52.968  31.220  53.190  0.00  0.00     0.020 A 
ATOM      2  C   UNL d   1      53.078  29.648  53.685  0.00  0.00     0.105 A 
ATOM      3  C   UNL d   1      52.286  30.755  53.231  0.00  0.00     0.004 A 
ATOM      4  C   UNL d   1      53.701  30.915  53.392  0.00  0.00     0.004 A 
ATOM      5  C   UNL d   1      52.346  29.976  53.477  0.00  0.00     0.025 A 
ATOM      6  C   UNL d   1      53.761  30.136  53.638  0.00  0.00     0.025 A 
ENDROOT
BRANCH   1   7
ATOM      7  C   UNL d   1      52.906  32.021  52.937  0.00  0.00     0.108 C 
BRANCH   7   8
ATOM      8  N   UNL d   1      52.900  32.622  53.509  0.00  0.00    -0.184 N 
ATOM      9  O   UNL d   1      53.157  32.477  54.279  0.00  0.00    -0.080 OA
BRANCH   8  10
ATOM     10  C   UNL d   1      52.632  33.370  53.296  0.00  0.00     0.090 A 
ATOM     11  C   UNL d   1      53.060  34.036  53.548  0.00  0.00     0.020 A 
ATOM     12  C   UNL d   1      52.791  34.786  53.334  0.00  0.00     0.002 A 
ATOM     13  C   UNL d   1      52.094  34.873  52.868  0.00  0.00     0.000 A 
ATOM     14  C   UNL d   1      51.686  34.189  52.630  0.00  0.00     0.002 A 
ATOM     15  C   UNL d   1      51.955  33.439  52.844  0.00  0.00     0.020 A 
ENDBRANCH   8  10
ENDBRANCH   7   8
ENDBRANCH   1   7
BRANCH   2  16
ATOM     16  O   UNL d   1      53.129  28.870  53.930  0.00  0.00    -0.260 OA
BRANCH  16  17
ATOM     17  C   UNL d   1      53.414  28.694  54.676  0.00  0.00     0.391 C 
ATOM     18  F   UNL d   1      54.155  28.341  54.750  0.00  0.00    -0.145 F 
ATOM     19  F   UNL d   1      52.965  28.868  55.339  0.00  0.00    -0.145 F 
ENDBRANCH  16  17
ENDBRANCH   2  16
TORSDOF 5
ENDMDL
MODEL 2
REMARK VINA RESULT:      -8.8      2.799      4.627
REMARK  5 active torsions:
REMARK  status: ('A' for Active; 'I' for Inactive)
REMARK    1  A    between atoms: C_2  and  N_1 
REMARK    2  A    between atoms: C_5  and  N_1 
REMARK    3  A    between atoms: C_7  and  C_2 
REMARK    4  A    between atoms: C_4  and  O_6 
REMARK    5  A    between atoms: O_6  and  C_8 
ROOT
ATOM      1  C   UNL d   1      53.714  32.789  54.587  0.00  0.00     0.020 A 
ATOM      2  C   UNL d   1      53.717  34.426  54.800  0.00  0.00     0.105 A 
ATOM      3  C   UNL d   1      54.407  33.169  54.829  0.00  0.00     0.004 A 
ATOM      4  C   UNL d   1      53.025  33.210  54.450  0.00  0.00     0.004 A 
ATOM      5  C   UNL d   1      54.402  33.981  54.933  0.00  0.00     0.025 A 
ATOM      6  C   UNL d   1      53.021  34.022  54.554  0.00  0.00     0.025 A 
ENDROOT
BRANCH   1   7
ATOM      7  C   UNL d   1      53.718  31.954  54.480  0.00  0.00     0.108 C 
BRANCH   7   8
ATOM      8  N   UNL d   1      53.736  31.648  53.709  0.00  0.00    -0.184 N 
ATOM      9  O   UNL d   1      54.052  32.087  53.087  0.00  0.00    -0.080 OA
BRANCH   8  10
ATOM     10  C   UNL d   1      53.432  30.897  53.572  0.00  0.00     0.090 A 
ATOM     11  C   UNL d   1      53.639  30.280  54.088  0.00  0.00     0.020 A 
ATOM     12  C   UNL d   1      53.334  29.526  53.951  0.00  0.00     0.002 A 
ATOM     13  C   UNL d   1      52.820  29.386  53.297  0.00  0.00     0.000 A 
ATOM     14  C   UNL d   1      52.630  30.021  52.797  0.00  0.00     0.002 A 
ATOM     15  C   UNL d   1      52.936  30.775  52.934  0.00  0.00     0.020 A 
ENDBRANCH   8  10
ENDBRANCH   7   8
ENDBRANCH   1   7
BRANCH   2  16
ATOM     16  O   UNL d   1      53.721  35.237  54.906  0.00  0.00    -0.260 OA
BRANCH  16  17
ATOM     17  C   UNL d   1      53.210  35.708  54.475  0.00  0.00     0.391 C 
ATOM     18  F   UNL d   1      52.534  36.007  54.841  0.00  0.00    -0.145 F 
ATOM     19  F   UNL d   1      53.371  35.879  53.690  0.00  0.00    -0.145 F 
ENDBRANCH  16  17
ENDBRANCH   2  16
TORSDOF 5
ENDMDL
MODEL 3
REMARK VINA RESULT:      -8.4      2.897      3.460
REMARK  5 active torsions:
REMARK  status: ('A' for Active; 'I' for Inactive)
REMARK    1  A    between atoms: C_2  and  N_1 
REMARK    2  A    between atoms: C_5  and  N_1 
REMARK    3  A    between atoms: C_7  and  C_2 
REMARK    4  A    between atoms: C_4  and  O_6 
REMARK    5  A    between atoms: O_6  and  C_8 
ROOT
ATOM      1  C   UNL d   1      52.856  33.309  53.677  0.00  0.00     0.020 A 
ATOM      2  C   UNL d   1      54.298  33.140  54.463  0.00  0.00     0.105 A 
ATOM      3  C   UNL d   1      53.469  32.886  53.320  0.00  0.00     0.004 A 
ATOM      4  C   UNL d   1      52.949  33.647  54.417  0.00  0.00     0.004 A 
ATOM      5  C   UNL d   1      54.183  32.805  53.714  0.00  0.00     0.025 A 
ATOM      6  C   UNL d   1      53.662  33.566  54.811  0.00  0.00     0.025 A 
ENDROOT
BRANCH   1   7
ATOM      7  C   UNL d   1      52.123  33.393  53.271  0.00  0.00     0.108 C 
BRANCH   7   8
ATOM      8  N   UNL d   1      51.935  34.125  52.928  0.00  0.00    -0.184 N 
ATOM      9  O   UNL d   1      52.479  34.744  52.928  0.00  0.00    -0.080 OA
BRANCH   8  10
ATOM     10  C   UNL d   1      51.195  34.225  52.585  0.00  0.00     0.090 A 
ATOM     11  C   UNL d   1      51.108  34.083  51.771  0.00  0.00     0.020 A 
ATOM     12  C   UNL d   1      50.365  34.184  51.427  0.00  0.00     0.002 A 
ATOM     13  C   UNL d   1      49.706  34.425  51.895  0.00  0.00     0.000 A 
ATOM     14  C   UNL d   1      49.823  34.559  52.706  0.00  0.00     0.002 A 
ATOM     15  C   UNL d   1      50.566  34.459  53.050  0.00  0.00     0.020 A 
ENDBRANCH   8  10
ENDBRANCH   7   8
ENDBRANCH   1   7
BRANCH   2  16
ATOM     16  O   UNL d   1      55.013  33.054  54.850  0.00  0.00    -0.260 OA
BRANCH  16  17
ATOM     17  C   UNL d   1      55.382  33.707  55.176  0.00  0.00     0.391 C 
ATOM     18  F   UNL d   1      55.203  33.924  55.951  0.00  0.00    -0.145 F 
ATOM     19  F   UNL d   1      55.922  34.138  54.734  0.00  0.00    -0.145 F 
ENDBRANCH  16  17
ENDBRANCH   2  16
TORSDOF 5
ENDMDL
MODEL 4
REMARK VINA RESULT:      -8.2      3.611      4.764
REMARK  5 active torsions:
REMARK  status: ('A' for Active; 'I' for Inactive)
REMARK    1  A    between atoms: C_2  and  N_1 
REMARK    2  A    between atoms: C_5  and  N_1 
REMARK    3  A    between atoms: C_7  and  C_2 
REMARK    4  A    between atoms: C_4  and  O_6 
REMARK    5  A    between atoms: O_6  and  C_8 
ROOT
ATOM      1  C   UNL d   1      51.705  34.119  52.991  0.00  0.00     0.020 A 
ATOM      2  C   UNL d   1      50.232  34.108  52.246  0.00  0.00     0.105 A 
ATOM      3  C   UNL d   1      51.017  34.080  53.447  0.00  0.00     0.004 A 
ATOM      4  C   UNL d   1      51.672  34.153  52.174  0.00  0.00     0.004 A 
ATOM      5  C   UNL d   1      50.289  34.074  53.072  0.00  0.00     0.025 A 
ATOM      6  C   UNL d   1      50.943  34.148  51.799  0.00  0.00     0.025 A 
ENDROOT
BRANCH   1   7
ATOM      7  C   UNL d   1      52.454  34.125  53.377  0.00  0.00     0.108 C 
BRANCH   7   8
ATOM      8  N   UNL d   1      52.796  33.402  53.598  0.00  0.00    -0.184 N 
ATOM      9  O   UNL d   1      52.425  32.687  53.423  0.00  0.00    -0.080 OA
BRANCH   8  10
ATOM     10  C   UNL d   1      53.515  33.408  53.997  0.00  0.00     0.090 A 
ATOM     11  C   UNL d   1      54.180  33.070  53.631  0.00  0.00     0.020 A 
ATOM     12  C   UNL d   1      54.901  33.077  54.031  0.00  0.00     0.002 A 
ATOM     13  C   UNL d   1      54.961  33.422  54.798  0.00  0.00     0.000 A 
ATOM     14  C   UNL d   1      54.280  33.753  55.139  0.00  0.00     0.002 A 
ATOM     15  C   UNL d   1      53.559  33.746  54.739  0.00  0.00     0.020 A 
ENDBRANCH   8  10
ENDBRANCH   7   8
ENDBRANCH   1   7
BRANCH   2  16
ATOM     16  O   UNL d   1      49.501  34.102  51.880  0.00  0.00    -0.260 OA
BRANCH  16  17
ATOM     17  C   UNL d   1      49.120  34.807  51.717  0.00  0.00     0.391 C 
ATOM     18  F   UNL d   1      49.100  35.082  50.940  0.00  0.00    -0.145 F 
ATOM     19  F   UNL d   1      48.764  35.231  52.321  0.00  0.00    -0.145 F 
ENDBRANCH  16  17
ENDBRANCH   2  16
TORSDOF 5
ENDMDL
MODEL 5
REMARK VINA RESULT:      -8.1      2.819      4.770
REMARK  5 active torsions:
REMARK  status: ('A' for Active; 'I' for Inactive)
REMARK    1  A    between atoms: C_2  and  N_1 
REMARK    2  A    between atoms: C_5  and  N_1 
REMARK    3  A    between atoms: C_7  and  C_2 
REMARK    4  A    between atoms: C_4  and  O_6 
REMARK    5  A    between atoms: O_6  and  C_8 
ROOT
ATOM      1  C   UNL d   1      52.034  33.151  53.309  0.00  0.00     0.020 A 
ATOM      2  C   UNL d   1      50.986  34.371  52.938  0.00  0.00     0.105 A 
ATOM      3  C   UNL d   1      52.319  33.841  52.955  0.00  0.00     0.004 A 
ATOM      4  C   UNL d   1      51.239  33.060  53.481  0.00  0.00     0.004 A 
ATOM      5  C   UNL d   1      51.794  34.443  52.772  0.00  0.00     0.025 A 
ATOM      6  C   UNL d   1      50.715  33.661  53.299  0.00  0.00     0.025 A 
ENDROOT
BRANCH   1   7
ATOM      7  C   UNL d   1      52.574  32.532  53.496  0.00  0.00     0.108 C 
BRANCH   7   8
ATOM      8  N   UNL d   1      52.680  31.915  52.952  0.00  0.00    -0.184 N 
ATOM      9  O   UNL d   1      52.522  32.025  52.150  0.00  0.00    -0.080 OA
BRANCH   8  10
ATOM     10  C   UNL d   1      52.948  31.187  53.224  0.00  0.00     0.090 A 
ATOM     11  C   UNL d   1      52.548  30.499  52.989  0.00  0.00     0.020 A 
ATOM     12  C   UNL d   1      52.816  29.768  53.262  0.00  0.00     0.002 A 
ATOM     13  C   UNL d   1      53.486  29.723  53.772  0.00  0.00     0.000 A 
ATOM     14  C   UNL d   1      53.867  30.427  53.991  0.00  0.00     0.002 A 
ATOM     15  C   UNL d   1      53.599  31.158  53.717  0.00  0.00     0.020 A 
ENDBRANCH   8  10
ENDBRANCH   7   8
ENDBRANCH   1   7
BRANCH   2  16
ATOM     16  O   UNL d   1      50.469  34.977  52.753  0.00  0.00    -0.260 OA
BRANCH  16  17
ATOM     17  C   UNL d   1      49.684  34.810  52.593  0.00  0.00     0.391 C 
ATOM     18  F   UNL d   1      49.118  34.946  53.176  0.00  0.00    -0.145 F 
ATOM     19  F   UNL d   1      49.468  34.511  51.861  0.00  0.00    -0.145 F 
ENDBRANCH  16  17
ENDBRANCH   2  16
TORSDOF 5
ENDMDL
