MODEL 1
REMARK VINA RESULT:      38.6      0.000      0.000
REMARK  6 active torsions:
REMARK  status: ('A' for Active; 'I' for Inactive)
REMARK    1  A    between atoms: C_6  and  N_1 
REMARK    2  A    between atoms: C_13  and  C_6 
REMARK    3  A    between atoms: N_12  and  C_22 
REMARK    4  A    between atoms: C_23  and  N_12 
REMARK    5  A    between atoms: C_22  and  C_13 
REMARK    6  A    between atoms: C_20  and  C_23 
ROOT
ATOM      1  N   UNL d   1      44.926 -16.410  37.546  0.00  0.00    -0.303 N 
ATOM      2  C   UNL d   1      45.024 -15.201  36.996  0.00  0.00     0.018 A 
ATOM      3  C   UNL d   1      44.232 -15.442  36.939  0.00  0.00     0.018 A 
ATOM      4  C   UNL d   1      45.452 -15.798  37.370  0.00  0.00     0.064 A 
ATOM      5  C   UNL d   1      44.180 -16.195  37.284  0.00  0.00     0.064 A 
ATOM      6  C   UNL d   1      43.459 -16.584  37.312  0.00  0.00     0.018 A 
ATOM      7  C   UNL d   1      46.258 -15.703  37.499  0.00  0.00     0.018 A 
ATOM      8  C   UNL d   1      43.562 -15.083  36.625  0.00  0.00     0.008 A 
ATOM      9  C   UNL d   1      45.402 -14.509  36.750  0.00  0.00     0.008 A 
ATOM     10  C   UNL d   1      46.211 -14.420  36.882  0.00  0.00     0.035 A 
ATOM     11  C   UNL d   1      42.830 -15.472  36.651  0.00  0.00     0.035 A 
ATOM     12  C   UNL d   1      42.774 -16.227  36.996  0.00  0.00     0.008 A 
ATOM     13  C   UNL d   1      46.639 -15.018  37.257  0.00  0.00     0.008 A 
ATOM     14 BR   UNL d   1      46.590 -13.732  36.639  0.00  0.00    -0.049 Br
ATOM     15 BR   UNL d   1      42.160 -15.113  36.337  0.00  0.00    -0.049 Br
ENDROOT
BRANCH   1  16
ATOM     16  C   UNL d   1      45.127 -17.116  37.923  0.00  0.00     0.124 C 
BRANCH  16  17
ATOM     17  C   UNL d   1      45.153 -17.159  38.744  0.00  0.00     0.232 C 
ATOM     18  O   UNL d   1      44.495 -16.916  39.189  0.00  0.00    -0.283 OA
BRANCH  17  19
ATOM     19  C   UNL d   1      45.827 -17.442  39.128  0.00  0.00     0.142 C 
BRANCH  19  20
ATOM     20  N   UNL d   1      45.767 -17.720  39.903  0.00  0.00    -0.237 NA
BRANCH  20  21
ATOM     21  C   UNL d   1      46.408 -18.101  40.258  0.00  0.00     0.124 C 
BRANCH  21  22
ATOM     22  C   UNL d   1      46.324 -18.458  40.987  0.00  0.00     0.119 A 
ATOM     23  O   UNL d   1      46.252 -19.275  41.121  0.00  0.00    -0.304 OA
ATOM     24  C   UNL d   1      46.180 -19.390  41.941  0.00  0.00     0.123 A 
ATOM     25  C   UNL d   1      46.208 -18.649  42.304  0.00  0.00     0.029 A 
ATOM     26  C   UNL d   1      46.296 -18.078  41.720  0.00  0.00     0.028 A 
ENDBRANCH  21  22
ENDBRANCH  20  21
ENDBRANCH  19  20
ENDBRANCH  17  19
ENDBRANCH  16  17
ENDBRANCH   1  16
TORSDOF 6
ENDMDL
MODEL 2
REMARK VINA RESULT:      39.0      0.168      2.251
REMARK  6 active torsions:
REMARK  status: ('A' for Active; 'I' for Inactive)
REMARK    1  A    between atoms: C_6  and  N_1 
REMARK    2  A    between atoms: C_13  and  C_6 
REMARK    3  A    between atoms: N_12  and  C_22 
REMARK    4  A    between atoms: C_23  and  N_12 
REMARK    5  A    between atoms: C_22  and  C_13 
REMARK    6  A    between atoms: C_20  and  C_23 
ROOT
ATOM      1  N   UNL d   1      44.891 -16.440  37.684  0.00  0.00    -0.303 N 
ATOM      2  C   UNL d   1      44.222 -15.529  36.979  0.00  0.00     0.018 A 
ATOM      3  C   UNL d   1      45.017 -15.295  37.006  0.00  0.00     0.018 A 
ATOM      4  C   UNL d   1      44.144 -16.235  37.397  0.00  0.00     0.064 A 
ATOM      5  C   UNL d   1      45.426 -15.867  37.447  0.00  0.00     0.064 A 
ATOM      6  C   UNL d   1      46.232 -15.788  37.573  0.00  0.00     0.018 A 
ATOM      7  C   UNL d   1      43.407 -16.594  37.459  0.00  0.00     0.018 A 
ATOM      8  C   UNL d   1      45.418 -14.648  36.694  0.00  0.00     0.008 A 
ATOM      9  C   UNL d   1      43.563 -15.181  36.622  0.00  0.00     0.008 A 
ATOM     10  C   UNL d   1      42.827 -15.547  36.688  0.00  0.00     0.035 A 
ATOM     11  C   UNL d   1      46.234 -14.563  36.818  0.00  0.00     0.035 A 
ATOM     12  C   UNL d   1      46.647 -15.134  37.259  0.00  0.00     0.008 A 
ATOM     13  C   UNL d   1      42.749 -16.253  37.107  0.00  0.00     0.008 A 
ATOM     14 BR   UNL d   1      42.169 -15.203  36.334  0.00  0.00    -0.049 Br
ATOM     15 BR   UNL d   1      46.635 -13.916  36.506  0.00  0.00    -0.049 Br
ENDROOT
BRANCH   1  16
ATOM     16  C   UNL d   1      45.060 -17.111  38.134  0.00  0.00     0.124 C 
BRANCH  16  17
ATOM     17  C   UNL d   1      45.211 -17.046  38.940  0.00  0.00     0.232 C 
ATOM     18  O   UNL d   1      44.700 -16.603  39.421  0.00  0.00    -0.283 OA
BRANCH  17  19
ATOM     19  C   UNL d   1      45.869 -17.419  39.273  0.00  0.00     0.142 C 
BRANCH  19  20
ATOM     20  N   UNL d   1      45.787 -17.827  39.987  0.00  0.00    -0.237 NA
BRANCH  20  21
ATOM     21  C   UNL d   1      46.440 -18.199  40.329  0.00  0.00     0.124 C 
BRANCH  21  22
ATOM     22  C   UNL d   1      46.374 -18.561  41.057  0.00  0.00     0.119 A 
ATOM     23  O   UNL d   1      46.234 -19.370  41.185  0.00  0.00    -0.304 OA
ATOM     24  C   UNL d   1      46.209 -19.495  42.006  0.00  0.00     0.123 A 
ATOM     25  C   UNL d   1      46.333 -18.767  42.376  0.00  0.00     0.029 A 
ATOM     26  C   UNL d   1      46.434 -18.195  41.795  0.00  0.00     0.028 A 
ENDBRANCH  21  22
ENDBRANCH  20  21
ENDBRANCH  19  20
ENDBRANCH  17  19
ENDBRANCH  16  17
ENDBRANCH   1  16
TORSDOF 6
ENDMDL
