MODEL 1
REMARK VINA RESULT:       7.8      0.000      0.000
REMARK  4 active torsions:
REMARK  status: ('A' for Active; 'I' for Inactive)
REMARK    1  A    between atoms: N_7  and  C_2 
REMARK    2  A    between atoms: C_6  and  C_3 
REMARK    3  A    between atoms: C_16  and  N_7 
REMARK    4  A    between atoms: C_10  and  C_16 
ROOT
ATOM      1  N   UNL d   1     -55.000-101.592 -36.673  0.00  0.00    -0.222 NA
ATOM      2  C   UNL d   1     -54.887-101.685 -35.863  0.00  0.00     0.172 A 
ATOM      3  C   UNL d   1     -55.167-102.343 -36.995  0.00  0.00     0.090 A 
ATOM      4  S   UNL d   1     -54.982-102.474 -35.683  0.00  0.00    -0.048 SA
ATOM      5  C   UNL d   1     -55.152-102.877 -36.375  0.00  0.00     0.057 A 
ENDROOT
BRANCH   3   6
ATOM      6  C   UNL d   1     -55.315-102.479 -37.808  0.00  0.00     0.018 A 
ATOM      7  C   UNL d   1     -56.055-102.743 -38.042  0.00  0.00     0.002 A 
ATOM      8  C   UNL d   1     -56.203-102.880 -38.854  0.00  0.00     0.011 A 
ATOM      9  C   UNL d   1     -55.603-102.744 -39.388  0.00  0.00     0.058 A 
ATOM     10  C   UNL d   1     -54.857-102.478 -39.154  0.00  0.00     0.011 A 
ATOM     11 CL   UNL d   1     -55.748-102.878 -40.183  0.00  0.00    -0.082 Cl
ATOM     12  C   UNL d   1     -54.711-102.344 -38.354  0.00  0.00     0.002 A 
ENDBRANCH   3   6
BRANCH   2  13
ATOM     13  N   UNL d   1     -54.711-101.102 -35.316  0.00  0.00    -0.332 N 
ATOM     14  H   UNL d   1     -54.124-101.238 -34.742  0.00  0.00     0.168 HD
BRANCH  13  15
ATOM     15  C   UNL d   1     -55.116-100.374 -35.329  0.00  0.00     0.074 C 
BRANCH  15  16
ATOM     16  C   UNL d   1     -54.711 -99.674 -35.368  0.00  0.00     0.018 C 
ATOM     17  C   UNL d   1     -55.118 -98.933 -35.331  0.00  0.00     0.002 C 
ENDBRANCH  15  16
ENDBRANCH  13  15
ENDBRANCH   2  13
TORSDOF 4
ENDMDL
