MODEL 1
REMARK VINA RESULT:      68.7      0.000      0.000
REMARK  5 active torsions:
REMARK  status: ('A' for Active; 'I' for Inactive)
REMARK    1  A    between atoms: C_2  and  C_1 
REMARK    2  A    between atoms: C_4  and  C_1 
REMARK       I    between atoms: N_3  and  C_2 
REMARK    3  A    between atoms: C_5  and  N_3 
REMARK    4  A    between atoms: C_11  and  C_5 
REMARK    5  A    between atoms: C_12  and  C_5 
ROOT
ATOM      1  C   UNL d   1     -56.052 -99.654 -45.212  0.00  0.00     0.315 C 
ATOM      2  N   UNL d   1     -56.829 -99.416 -45.063  0.00  0.00    -0.367 NA
ATOM      3  O   UNL d   1     -55.712 -99.519 -45.952  0.00  0.00    -0.255 OA
ENDROOT
BRANCH   2   4
ATOM      4  C   UNL d   1     -57.836 -99.106 -44.876  0.00  0.00     0.135 C 
BRANCH   4   5
ATOM      5  C   UNL d   1     -58.066 -98.998 -44.177  0.00  0.00     0.030 A 
ATOM      6  C   UNL d   1     -58.849 -98.957 -44.009  0.00  0.00     0.003 A 
ATOM      7  C   UNL d   1     -59.125 -98.837 -43.237  0.00  0.00     0.000 A 
ATOM      8  C   UNL d   1     -58.544 -98.757 -42.612  0.00  0.00     0.000 A 
ATOM      9  C   UNL d   1     -57.760 -98.798 -42.780  0.00  0.00     0.000 A 
ATOM     10  C   UNL d   1     -57.495 -98.923 -43.587  0.00  0.00     0.003 A 
ENDBRANCH   4   5
BRANCH   4  11
ATOM     11  C   UNL d   1     -58.309 -98.996 -45.428  0.00  0.00     0.030 A 
ATOM     12  C   UNL d   1     -59.087 -98.926 -45.278  0.00  0.00     0.003 A 
ATOM     13  C   UNL d   1     -59.632 -98.802 -45.890  0.00  0.00     0.000 A 
ATOM     14  C   UNL d   1     -59.324 -98.757 -46.649  0.00  0.00     0.000 A 
ATOM     15  C   UNL d   1     -58.542 -98.828 -46.795  0.00  0.00     0.000 A 
ATOM     16  C   UNL d   1     -58.002 -98.951 -46.184  0.00  0.00     0.003 A 
ENDBRANCH   4  11
ENDBRANCH   2   4
BRANCH   1  17
ATOM     17  C   UNL d   1     -55.606-100.030 -44.622  0.00  0.00     0.150 A 
ATOM     18  C   UNL d   1     -55.168-100.402 -44.040  0.00  0.00     0.019 A 
ATOM     19  C   UNL d   1     -54.720 -99.949 -43.500  0.00  0.00     0.119 A 
ATOM     20  O   UNL d   1     -54.716 -99.133 -43.550  0.00  0.00    -0.304 OA
ATOM     21  C   UNL d   1     -55.159 -98.755 -44.138  0.00  0.00     0.119 A 
ATOM     22  C   UNL d   1     -55.606 -99.203 -44.676  0.00  0.00     0.019 A 
BRANCH  17  23
ATOM     23  C   UNL d   1     -55.610-100.859 -44.571  0.00  0.00     0.024 A 
ATOM     24  S   UNL d   1     -55.183-101.390 -45.050  0.00  0.00    -0.090 SA
ATOM     25  C   UNL d   1     -55.348-102.164 -44.810  0.00  0.00     0.035 A 
ATOM     26  C   UNL d   1     -55.877-102.133 -44.180  0.00  0.00     0.007 A 
ATOM     27  C   UNL d   1     -56.041-101.325 -44.029  0.00  0.00     0.004 A 
ENDBRANCH  17  23
ENDBRANCH   1  17
TORSDOF 5
ENDMDL
MODEL 2
REMARK VINA RESULT:      70.7      0.672      2.171
REMARK  5 active torsions:
REMARK  status: ('A' for Active; 'I' for Inactive)
REMARK    1  A    between atoms: C_2  and  C_1 
REMARK    2  A    between atoms: C_4  and  C_1 
REMARK       I    between atoms: N_3  and  C_2 
REMARK    3  A    between atoms: C_5  and  N_3 
REMARK    4  A    between atoms: C_11  and  C_5 
REMARK    5  A    between atoms: C_12  and  C_5 
ROOT
ATOM      1  C   UNL d   1     -55.927 -99.684 -43.875  0.00  0.00     0.315 C 
ATOM      2  N   UNL d   1     -56.712 -99.455 -44.001  0.00  0.00    -0.367 NA
ATOM      3  O   UNL d   1     -55.532 -99.449 -43.190  0.00  0.00    -0.255 OA
ENDROOT
BRANCH   2   4
ATOM      4  C   UNL d   1     -57.727 -99.156 -44.158  0.00  0.00     0.135 C 
BRANCH   4   5
ATOM      5  C   UNL d   1     -57.975 -99.037 -44.849  0.00  0.00     0.030 A 
ATOM      6  C   UNL d   1     -58.761 -99.047 -45.006  0.00  0.00     0.003 A 
ATOM      7  C   UNL d   1     -59.057 -98.917 -45.769  0.00  0.00     0.000 A 
ATOM      8  C   UNL d   1     -58.493 -98.769 -46.397  0.00  0.00     0.000 A 
ATOM      9  C   UNL d   1     -57.706 -98.758 -46.240  0.00  0.00     0.000 A 
ATOM     10  C   UNL d   1     -57.420 -98.895 -45.442  0.00  0.00     0.003 A 
ENDBRANCH   4   5
BRANCH   4  11
ATOM     11  C   UNL d   1     -58.189 -99.064 -43.593  0.00  0.00     0.030 A 
ATOM     12  C   UNL d   1     -58.971 -99.159 -43.698  0.00  0.00     0.003 A 
ATOM     13  C   UNL d   1     -59.503 -99.060 -43.070  0.00  0.00     0.000 A 
ATOM     14  C   UNL d   1     -59.178 -98.859 -42.344  0.00  0.00     0.000 A 
ATOM     15  C   UNL d   1     -58.391 -98.765 -42.244  0.00  0.00     0.000 A 
ATOM     16  C   UNL d   1     -57.864 -98.865 -42.870  0.00  0.00     0.003 A 
ENDBRANCH   4  11
ENDBRANCH   2   4
BRANCH   1  17
ATOM     17  C   UNL d   1     -55.531-100.150 -44.435  0.00  0.00     0.150 A 
ATOM     18  C   UNL d   1     -55.140-100.611 -44.986  0.00  0.00     0.019 A 
ATOM     19  C   UNL d   1     -54.730-100.251 -45.617  0.00  0.00     0.119 A 
ATOM     20  O   UNL d   1     -54.716 -99.437 -45.689  0.00  0.00    -0.304 OA
ATOM     21  C   UNL d   1     -55.111 -98.968 -45.132  0.00  0.00     0.119 A 
ATOM     22  C   UNL d   1     -55.520 -99.324 -44.503  0.00  0.00     0.019 A 
BRANCH  17  23
ATOM     23  C   UNL d   1     -55.544-100.978 -44.362  0.00  0.00     0.024 A 
ATOM     24  S   UNL d   1     -55.044-101.445 -43.888  0.00  0.00    -0.090 SA
ATOM     25  C   UNL d   1     -55.249-102.241 -43.982  0.00  0.00     0.035 A 
ATOM     26  C   UNL d   1     -55.876-102.287 -44.513  0.00  0.00     0.007 A 
ATOM     27  C   UNL d   1     -56.062-101.505 -44.750  0.00  0.00     0.004 A 
ENDBRANCH  17  23
ENDBRANCH   1  17
TORSDOF 5
ENDMDL
