MODEL 1
REMARK VINA RESULT:      -4.2      0.000      0.000
REMARK  7 active torsions:
REMARK  status: ('A' for Active; 'I' for Inactive)
REMARK    1  A    between atoms: C_3  and  S_1 
REMARK    2  A    between atoms: N_8  and  S_1 
REMARK    3  A    between atoms: C_4  and  N_2 
REMARK    4  A    between atoms: N_5  and  C_19 
REMARK    5  A    between atoms: C_14  and  N_8 
REMARK    6  A    between atoms: O_21  and  C_11 
REMARK    7  A    between atoms: C_19  and  C_14 
ROOT
ATOM      1  N   UNL d   1     -47.100  13.699  22.559  0.00  0.00    -0.300 N 
ATOM      2  N   UNL d   1     -45.658  12.927  22.310  0.00  0.00    -0.299 N 
ATOM      3  C   UNL d   1     -46.954  13.318  21.844  0.00  0.00     0.100 A 
ATOM      4  C   UNL d   1     -46.521  13.695  23.156  0.00  0.00     0.100 A 
ATOM      5  C   UNL d   1     -46.235  12.933  21.720  0.00  0.00     0.100 A 
ATOM      6  C   UNL d   1     -45.805  13.312  23.033  0.00  0.00     0.100 A 
ENDROOT
BRANCH   2   7
ATOM      7  C   UNL d   1     -44.939  12.542  22.186  0.00  0.00     0.102 C 
BRANCH   7   8
ATOM      8  C   UNL d   1     -44.324  12.920  21.781  0.00  0.00     0.131 C 
BRANCH   8   9
ATOM      9  N   UNL d   1     -43.650  12.509  21.573  0.00  0.00    -0.155 NA
BRANCH   9  10
ATOM     10  S   UNL d   1     -42.968  12.916  21.357  0.00  0.00     0.285 S 
ATOM     11  O   UNL d   1     -42.688  12.852  22.133  0.00  0.00    -0.198 OA
ATOM     12  O   UNL d   1     -43.247  12.981  20.582  0.00  0.00    -0.198 OA
BRANCH  10  13
ATOM     13  C   UNL d   1     -42.282  13.322  21.151  0.00  0.00     0.105 A 
ATOM     14  C   UNL d   1     -41.611  13.264  21.627  0.00  0.00     0.013 A 
ATOM     15  C   UNL d   1     -40.920  13.667  21.429  0.00  0.00     0.001 A 
ATOM     16  C   UNL d   1     -40.908  14.134  20.743  0.00  0.00     0.000 A 
ATOM     17  C   UNL d   1     -41.581  14.190  20.271  0.00  0.00     0.001 A 
ATOM     18  C   UNL d   1     -40.220  14.534  20.547  0.00  0.00     0.000 C 
ATOM     19  C   UNL d   1     -42.266  13.781  20.481  0.00  0.00     0.013 A 
ENDBRANCH  10  13
ENDBRANCH   9  10
ENDBRANCH   8   9
ENDBRANCH   7   8
ENDBRANCH   2   7
BRANCH   1  20
ATOM     20  C   UNL d   1     -47.819  14.084  22.683  0.00  0.00     0.086 A 
ATOM     21  C   UNL d   1     -48.467  13.674  22.995  0.00  0.00     0.110 A 
ATOM     22  C   UNL d   1     -49.190  14.061  23.120  0.00  0.00     0.026 A 
ATOM     23  C   UNL d   1     -49.257  14.854  22.932  0.00  0.00     0.002 A 
ATOM     24  C   UNL d   1     -48.613  15.274  22.619  0.00  0.00     0.002 A 
ATOM     25  C   UNL d   1     -47.901  14.892  22.496  0.00  0.00     0.019 A 
BRANCH  21  26
ATOM     26  O   UNL d   1     -48.387  12.861  23.184  0.00  0.00    -0.327 OA
ATOM     27  C   UNL d   1     -49.041  12.452  23.488  0.00  0.00     0.181 C 
ENDBRANCH  21  26
ENDBRANCH   1  20
TORSDOF 7
ENDMDL
MODEL 2
REMARK VINA RESULT:      -4.0      1.446      6.300
REMARK  7 active torsions:
REMARK  status: ('A' for Active; 'I' for Inactive)
REMARK    1  A    between atoms: C_3  and  S_1 
REMARK    2  A    between atoms: N_8  and  S_1 
REMARK    3  A    between atoms: C_4  and  N_2 
REMARK    4  A    between atoms: N_5  and  C_19 
REMARK    5  A    between atoms: C_14  and  N_8 
REMARK    6  A    between atoms: O_21  and  C_11 
REMARK    7  A    between atoms: C_19  and  C_14 
ROOT
ATOM      1  N   UNL d   1     -41.381  14.174  20.949  0.00  0.00    -0.300 N 
ATOM      2  N   UNL d   1     -42.726  13.265  21.268  0.00  0.00    -0.299 N 
ATOM      3  C   UNL d   1     -42.129  14.514  20.900  0.00  0.00     0.100 A 
ATOM      4  C   UNL d   1     -41.302  13.373  21.159  0.00  0.00     0.100 A 
ATOM      5  C   UNL d   1     -42.800  14.061  21.058  0.00  0.00     0.100 A 
ATOM      6  C   UNL d   1     -41.970  12.922  21.317  0.00  0.00     0.100 A 
ENDROOT
BRANCH   2   7
ATOM      7  C   UNL d   1     -43.397  12.812  21.427  0.00  0.00     0.102 C 
BRANCH   7   8
ATOM      8  C   UNL d   1     -44.082  13.166  21.728  0.00  0.00     0.131 C 
BRANCH   8   9
ATOM      9  N   UNL d   1     -44.676  12.710  22.052  0.00  0.00    -0.155 NA
BRANCH   9  10
ATOM     10  S   UNL d   1     -45.410  13.044  22.218  0.00  0.00     0.285 S 
ATOM     11  O   UNL d   1     -45.211  13.077  23.020  0.00  0.00    -0.198 OA
ATOM     12  O   UNL d   1     -45.609  13.012  21.416  0.00  0.00    -0.198 OA
BRANCH  10  13
ATOM     13  C   UNL d   1     -46.141  13.379  22.393  0.00  0.00     0.105 A 
ATOM     14  C   UNL d   1     -46.180  14.128  22.737  0.00  0.00     0.013 A 
ATOM     15  C   UNL d   1     -46.907  14.471  22.916  0.00  0.00     0.001 A 
ATOM     16  C   UNL d   1     -47.603  14.053  22.745  0.00  0.00     0.000 A 
ATOM     17  C   UNL d   1     -47.560  13.305  22.401  0.00  0.00     0.001 A 
ATOM     18  C   UNL d   1     -48.326  14.396  22.924  0.00  0.00     0.000 C 
ATOM     19  C   UNL d   1     -46.825  12.974  22.227  0.00  0.00     0.013 A 
ENDBRANCH  10  13
ENDBRANCH   9  10
ENDBRANCH   8   9
ENDBRANCH   7   8
ENDBRANCH   2   7
BRANCH   1  20
ATOM     20  C   UNL d   1     -40.710  14.627  20.790  0.00  0.00     0.086 A 
ATOM     21  C   UNL d   1     -40.399  14.663  20.024  0.00  0.00     0.110 A 
ATOM     22  C   UNL d   1     -39.724  15.118  19.864  0.00  0.00     0.026 A 
ATOM     23  C   UNL d   1     -39.369  15.533  20.472  0.00  0.00     0.002 A 
ATOM     24  C   UNL d   1     -39.673  15.504  21.243  0.00  0.00     0.002 A 
ATOM     25  C   UNL d   1     -40.337  15.055  21.401  0.00  0.00     0.019 A 
BRANCH  21  26
ATOM     26  O   UNL d   1     -40.772  14.233  19.408  0.00  0.00    -0.327 OA
ATOM     27  C   UNL d   1     -40.462  14.279  18.640  0.00  0.00     0.181 C 
ENDBRANCH  21  26
ENDBRANCH   1  20
TORSDOF 7
ENDMDL
MODEL 3
REMARK VINA RESULT:      -4.0      1.379      2.270
REMARK  7 active torsions:
REMARK  status: ('A' for Active; 'I' for Inactive)
REMARK    1  A    between atoms: C_3  and  S_1 
REMARK    2  A    between atoms: N_8  and  S_1 
REMARK    3  A    between atoms: C_4  and  N_2 
REMARK    4  A    between atoms: N_5  and  C_19 
REMARK    5  A    between atoms: C_14  and  N_8 
REMARK    6  A    between atoms: O_21  and  C_11 
REMARK    7  A    between atoms: C_19  and  C_14 
ROOT
ATOM      1  N   UNL d   1     -48.938  13.995  23.129  0.00  0.00    -0.300 N 
ATOM      2  N   UNL d   1     -47.519  13.157  23.265  0.00  0.00    -0.299 N 
ATOM      3  C   UNL d   1     -48.942  13.220  23.408  0.00  0.00     0.100 A 
ATOM      4  C   UNL d   1     -48.220  14.356  22.917  0.00  0.00     0.100 A 
ATOM      5  C   UNL d   1     -48.234  12.802  23.476  0.00  0.00     0.100 A 
ATOM      6  C   UNL d   1     -47.515  13.940  22.984  0.00  0.00     0.100 A 
ENDROOT
BRANCH   2   7
ATOM      7  C   UNL d   1     -46.810  12.739  23.333  0.00  0.00     0.102 C 
BRANCH   7   8
ATOM      8  C   UNL d   1     -46.207  12.840  22.775  0.00  0.00     0.131 C 
BRANCH   8   9
ATOM      9  N   UNL d   1     -45.674  12.240  22.626  0.00  0.00    -0.155 NA
BRANCH   9  10
ATOM     10  S   UNL d   1     -44.942  12.411  22.293  0.00  0.00     0.285 S 
ATOM     11  O   UNL d   1     -44.570  11.978  22.892  0.00  0.00    -0.198 OA
ATOM     12  O   UNL d   1     -45.312  12.843  21.693  0.00  0.00    -0.198 OA
BRANCH  10  13
ATOM     13  C   UNL d   1     -44.205  12.577  21.966  0.00  0.00     0.105 A 
ATOM     14  C   UNL d   1     -44.115  13.218  21.455  0.00  0.00     0.013 A 
ATOM     15  C   UNL d   1     -43.381  13.392  21.124  0.00  0.00     0.001 A 
ATOM     16  C   UNL d   1     -42.731  12.912  21.311  0.00  0.00     0.000 A 
ATOM     17  C   UNL d   1     -42.824  12.271  21.822  0.00  0.00     0.001 A 
ATOM     18  C   UNL d   1     -42.001  13.086  20.981  0.00  0.00     0.000 C 
ATOM     19  C   UNL d   1     -43.565  12.110  22.147  0.00  0.00     0.013 A 
ENDBRANCH  10  13
ENDBRANCH   9  10
ENDBRANCH   8   9
ENDBRANCH   7   8
ENDBRANCH   2   7
BRANCH   1  20
ATOM     20  C   UNL d   1     -49.646  14.412  23.062  0.00  0.00     0.086 A 
ATOM     21  C   UNL d   1     -50.155  14.278  22.423  0.00  0.00     0.110 A 
ATOM     22  C   UNL d   1     -50.867  14.698  22.355  0.00  0.00     0.026 A 
ATOM     23  C   UNL d   1     -51.062  15.248  22.926  0.00  0.00     0.002 A 
ATOM     24  C   UNL d   1     -50.560  15.391  23.570  0.00  0.00     0.002 A 
ATOM     25  C   UNL d   1     -49.858  14.977  23.638  0.00  0.00     0.019 A 
BRANCH  21  26
ATOM     26  O   UNL d   1     -49.944  13.710  21.843  0.00  0.00    -0.327 OA
ATOM     27  C   UNL d   1     -50.443  13.597  21.191  0.00  0.00     0.181 C 
ENDBRANCH  21  26
ENDBRANCH   1  20
TORSDOF 7
ENDMDL
MODEL 4
REMARK VINA RESULT:      -3.6      2.827      3.411
REMARK  7 active torsions:
REMARK  status: ('A' for Active; 'I' for Inactive)
REMARK    1  A    between atoms: C_3  and  S_1 
REMARK    2  A    between atoms: N_8  and  S_1 
REMARK    3  A    between atoms: C_4  and  N_2 
REMARK    4  A    between atoms: N_5  and  C_19 
REMARK    5  A    between atoms: C_14  and  N_8 
REMARK    6  A    between atoms: O_21  and  C_11 
REMARK    7  A    between atoms: C_19  and  C_14 
ROOT
ATOM      1  N   UNL d   1     -49.147  13.594  22.832  0.00  0.00    -0.300 N 
ATOM      2  N   UNL d   1     -48.258  12.224  23.093  0.00  0.00    -0.299 N 
ATOM      3  C   UNL d   1     -48.488  13.436  22.365  0.00  0.00     0.100 A 
ATOM      4  C   UNL d   1     -49.366  13.065  23.435  0.00  0.00     0.100 A 
ATOM      5  C   UNL d   1     -48.044  12.752  22.495  0.00  0.00     0.100 A 
ATOM      6  C   UNL d   1     -48.925  12.384  23.564  0.00  0.00     0.100 A 
ENDROOT
BRANCH   2   7
ATOM      7  C   UNL d   1     -47.815  11.540  23.223  0.00  0.00     0.102 C 
BRANCH   7   8
ATOM      8  C   UNL d   1     -46.988  11.565  23.203  0.00  0.00     0.131 C 
BRANCH   8   9
ATOM      9  N   UNL d   1     -46.546  11.089  23.698  0.00  0.00    -0.155 NA
BRANCH   9  10
ATOM     10  S   UNL d   1     -45.745  10.972  23.552  0.00  0.00     0.285 S 
ATOM     11  O   UNL d   1     -45.605  11.776  23.688  0.00  0.00    -0.198 OA
ATOM     12  O   UNL d   1     -45.884  10.168  23.415  0.00  0.00    -0.198 OA
BRANCH  10  13
ATOM     13  C   UNL d   1     -44.942  10.864  23.407  0.00  0.00     0.105 A 
ATOM     14  C   UNL d   1     -44.557  10.194  23.696  0.00  0.00     0.013 A 
ATOM     15  C   UNL d   1     -43.754  10.078  23.556  0.00  0.00     0.001 A 
ATOM     16  C   UNL d   1     -43.335  10.645  23.120  0.00  0.00     0.000 A 
ATOM     17  C   UNL d   1     -43.722  11.314  22.832  0.00  0.00     0.001 A 
ATOM     18  C   UNL d   1     -42.535  10.529  22.981  0.00  0.00     0.000 C 
ATOM     19  C   UNL d   1     -44.527  11.417  22.980  0.00  0.00     0.013 A 
ENDBRANCH  10  13
ENDBRANCH   9  10
ENDBRANCH   8   9
ENDBRANCH   7   8
ENDBRANCH   2   7
BRANCH   1  20
ATOM     20  C   UNL d   1     -49.591  14.277  22.702  0.00  0.00     0.086 A 
ATOM     21  C   UNL d   1     -50.247  14.264  22.197  0.00  0.00     0.110 A 
ATOM     22  C   UNL d   1     -50.692  14.951  22.067  0.00  0.00     0.026 A 
ATOM     23  C   UNL d   1     -50.477  15.645  22.443  0.00  0.00     0.002 A 
ATOM     24  C   UNL d   1     -49.822  15.669  22.951  0.00  0.00     0.002 A 
ATOM     25  C   UNL d   1     -49.383  14.992  23.079  0.00  0.00     0.019 A 
BRANCH  21  26
ATOM     26  O   UNL d   1     -50.457  13.547  21.818  0.00  0.00    -0.327 OA
ATOM     27  C   UNL d   1     -50.956  13.574  21.156  0.00  0.00     0.181 C 
ENDBRANCH  21  26
ENDBRANCH   1  20
TORSDOF 7
ENDMDL
MODEL 5
REMARK VINA RESULT:      -3.6      6.204      8.454
REMARK  7 active torsions:
REMARK  status: ('A' for Active; 'I' for Inactive)
REMARK    1  A    between atoms: C_3  and  S_1 
REMARK    2  A    between atoms: N_8  and  S_1 
REMARK    3  A    between atoms: C_4  and  N_2 
REMARK    4  A    between atoms: N_5  and  C_19 
REMARK    5  A    between atoms: C_14  and  N_8 
REMARK    6  A    between atoms: O_21  and  C_11 
REMARK    7  A    between atoms: C_19  and  C_14 
ROOT
ATOM      1  N   UNL d   1     -39.137  14.940  16.807  0.00  0.00    -0.300 N 
ATOM      2  N   UNL d   1     -39.934  15.405  18.179  0.00  0.00    -0.299 N 
ATOM      3  C   UNL d   1     -39.891  14.648  16.964  0.00  0.00     0.100 A 
ATOM      4  C   UNL d   1     -38.776  15.468  17.339  0.00  0.00     0.100 A 
ATOM      5  C   UNL d   1     -40.289  14.881  17.649  0.00  0.00     0.100 A 
ATOM      6  C   UNL d   1     -39.172  15.699  18.020  0.00  0.00     0.100 A 
ENDROOT
BRANCH   2   7
ATOM      7  C   UNL d   1     -40.332  15.638  18.864  0.00  0.00     0.102 C 
BRANCH   7   8
ATOM      8  C   UNL d   1     -39.952  15.618  19.599  0.00  0.00     0.131 C 
BRANCH   8   9
ATOM      9  N   UNL d   1     -40.360  15.403  20.272  0.00  0.00    -0.155 NA
BRANCH   9  10
ATOM     10  S   UNL d   1     -39.966  15.041  20.897  0.00  0.00     0.285 S 
ATOM     11  O   UNL d   1     -39.520  15.728  21.011  0.00  0.00    -0.198 OA
ATOM     12  O   UNL d   1     -40.411  14.353  20.783  0.00  0.00    -0.198 OA
BRANCH  10  13
ATOM     13  C   UNL d   1     -39.566  14.686  21.523  0.00  0.00     0.105 A 
ATOM     14  C   UNL d   1     -38.939  15.080  21.887  0.00  0.00     0.013 A 
ATOM     15  C   UNL d   1     -38.533  14.734  22.514  0.00  0.00     0.001 A 
ATOM     16  C   UNL d   1     -38.762  13.981  22.776  0.00  0.00     0.000 A 
ATOM     17  C   UNL d   1     -39.390  13.590  22.410  0.00  0.00     0.001 A 
ATOM     18  C   UNL d   1     -38.358  13.637  23.401  0.00  0.00     0.000 C 
ATOM     19  C   UNL d   1     -39.787  13.949  21.783  0.00  0.00     0.013 A 
ENDBRANCH  10  13
ENDBRANCH   9  10
ENDBRANCH   8   9
ENDBRANCH   7   8
ENDBRANCH   2   7
BRANCH   1  20
ATOM     20  C   UNL d   1     -38.739  14.707  16.123  0.00  0.00     0.086 A 
ATOM     21  C   UNL d   1     -38.366  13.969  16.082  0.00  0.00     0.110 A 
ATOM     22  C   UNL d   1     -37.966  13.736  15.395  0.00  0.00     0.026 A 
ATOM     23  C   UNL d   1     -37.944  14.243  14.754  0.00  0.00     0.002 A 
ATOM     24  C   UNL d   1     -38.314  14.985  14.783  0.00  0.00     0.002 A 
ATOM     25  C   UNL d   1     -38.708  15.215  15.461  0.00  0.00     0.019 A 
BRANCH  21  26
ATOM     26  O   UNL d   1     -38.396  13.458  16.746  0.00  0.00    -0.327 OA
ATOM     27  C   UNL d   1     -37.940  12.765  16.741  0.00  0.00     0.181 C 
ENDBRANCH  21  26
ENDBRANCH   1  20
TORSDOF 7
ENDMDL
MODEL 6
REMARK VINA RESULT:      -3.5      1.494      6.431
REMARK  7 active torsions:
REMARK  status: ('A' for Active; 'I' for Inactive)
REMARK    1  A    between atoms: C_3  and  S_1 
REMARK    2  A    between atoms: N_8  and  S_1 
REMARK    3  A    between atoms: C_4  and  N_2 
REMARK    4  A    between atoms: N_5  and  C_19 
REMARK    5  A    between atoms: C_14  and  N_8 
REMARK    6  A    between atoms: O_21  and  C_11 
REMARK    7  A    between atoms: C_19  and  C_14 
ROOT
ATOM      1  N   UNL d   1     -41.105  14.316  20.471  0.00  0.00    -0.300 N 
ATOM      2  N   UNL d   1     -42.272  13.347  21.131  0.00  0.00    -0.299 N 
ATOM      3  C   UNL d   1     -41.414  13.688  20.036  0.00  0.00     0.100 A 
ATOM      4  C   UNL d   1     -41.380  14.462  21.242  0.00  0.00     0.100 A 
ATOM      5  C   UNL d   1     -41.996  13.205  20.366  0.00  0.00     0.100 A 
ATOM      6  C   UNL d   1     -41.959  13.981  21.570  0.00  0.00     0.100 A 
ENDROOT
BRANCH   2   7
ATOM      7  C   UNL d   1     -42.854  12.864  21.460  0.00  0.00     0.102 C 
BRANCH   7   8
ATOM      8  C   UNL d   1     -43.635  13.130  21.524  0.00  0.00     0.131 C 
BRANCH   8   9
ATOM      9  N   UNL d   1     -44.226  12.625  21.774  0.00  0.00    -0.155 NA
BRANCH   9  10
ATOM     10  S   UNL d   1     -44.961  12.926  21.993  0.00  0.00     0.285 S 
ATOM     11  O   UNL d   1     -44.784  12.772  22.786  0.00  0.00    -0.198 OA
ATOM     12  O   UNL d   1     -45.138  13.080  21.200  0.00  0.00    -0.198 OA
BRANCH  10  13
ATOM     13  C   UNL d   1     -45.693  13.224  22.222  0.00  0.00     0.105 A 
ATOM     14  C   UNL d   1     -46.384  12.822  22.017  0.00  0.00     0.013 A 
ATOM     15  C   UNL d   1     -47.121  13.114  22.242  0.00  0.00     0.001 A 
ATOM     16  C   UNL d   1     -47.160  13.818  22.678  0.00  0.00     0.000 A 
ATOM     17  C   UNL d   1     -46.467  14.217  22.881  0.00  0.00     0.001 A 
ATOM     18  C   UNL d   1     -47.894  14.107  22.901  0.00  0.00     0.000 C 
ATOM     19  C   UNL d   1     -45.736  13.914  22.649  0.00  0.00     0.013 A 
ENDBRANCH  10  13
ENDBRANCH   9  10
ENDBRANCH   8   9
ENDBRANCH   7   8
ENDBRANCH   2   7
BRANCH   1  20
ATOM     20  C   UNL d   1     -40.523  14.799  20.141  0.00  0.00     0.086 A 
ATOM     21  C   UNL d   1     -39.722  14.658  20.296  0.00  0.00     0.110 A 
ATOM     22  C   UNL d   1     -39.137  15.144  19.965  0.00  0.00     0.026 A 
ATOM     23  C   UNL d   1     -39.359  15.765  19.483  0.00  0.00     0.002 A 
ATOM     24  C   UNL d   1     -40.159  15.915  19.321  0.00  0.00     0.002 A 
ATOM     25  C   UNL d   1     -40.735  15.437  19.648  0.00  0.00     0.019 A 
BRANCH  21  26
ATOM     26  O   UNL d   1     -39.506  14.018  20.792  0.00  0.00    -0.327 OA
ATOM     27  C   UNL d   1     -38.705  13.896  20.967  0.00  0.00     0.181 C 
ENDBRANCH  21  26
ENDBRANCH   1  20
TORSDOF 7
ENDMDL
MODEL 7
REMARK VINA RESULT:      -3.0      6.420      7.709
REMARK  7 active torsions:
REMARK  status: ('A' for Active; 'I' for Inactive)
REMARK    1  A    between atoms: C_3  and  S_1 
REMARK    2  A    between atoms: N_8  and  S_1 
REMARK    3  A    between atoms: C_4  and  N_2 
REMARK    4  A    between atoms: N_5  and  C_19 
REMARK    5  A    between atoms: C_14  and  N_8 
REMARK    6  A    between atoms: O_21  and  C_11 
REMARK    7  A    between atoms: C_19  and  C_14 
ROOT
ATOM      1  N   UNL d   1     -39.248  15.272  21.376  0.00  0.00    -0.300 N 
ATOM      2  N   UNL d   1     -39.816  15.349  19.824  0.00  0.00    -0.299 N 
ATOM      3  C   UNL d   1     -40.024  15.508  21.232  0.00  0.00     0.100 A 
ATOM      4  C   UNL d   1     -38.750  15.073  20.740  0.00  0.00     0.100 A 
ATOM      5  C   UNL d   1     -40.307  15.547  20.459  0.00  0.00     0.100 A 
ATOM      6  C   UNL d   1     -39.032  15.111  19.970  0.00  0.00     0.100 A 
ENDROOT
BRANCH   2   7
ATOM      7  C   UNL d   1     -40.099  15.388  19.051  0.00  0.00     0.102 C 
BRANCH   7   8
ATOM      8  C   UNL d   1     -39.577  15.484  18.415  0.00  0.00     0.131 C 
BRANCH   8   9
ATOM      9  N   UNL d   1     -39.859  15.550  17.653  0.00  0.00    -0.155 NA
BRANCH   9  10
ATOM     10  S   UNL d   1     -39.481  15.156  17.037  0.00  0.00     0.285 S 
ATOM     11  O   UNL d   1     -38.763  15.502  17.260  0.00  0.00    -0.198 OA
ATOM     12  O   UNL d   1     -40.198  14.811  16.813  0.00  0.00    -0.198 OA
BRANCH  10  13
ATOM     13  C   UNL d   1     -39.094  14.767  16.424  0.00  0.00     0.105 A 
ATOM     14  C   UNL d   1     -39.171  15.040  15.649  0.00  0.00     0.013 A 
ATOM     15  C   UNL d   1     -38.787  14.656  15.029  0.00  0.00     0.001 A 
ATOM     16  C   UNL d   1     -38.321  13.990  15.193  0.00  0.00     0.000 A 
ATOM     17  C   UNL d   1     -38.247  13.720  15.969  0.00  0.00     0.001 A 
ATOM     18  C   UNL d   1     -37.940  13.609  14.575  0.00  0.00     0.000 C 
ATOM     19  C   UNL d   1     -38.637  14.114  16.580  0.00  0.00     0.013 A 
ENDBRANCH  10  13
ENDBRANCH   9  10
ENDBRANCH   8   9
ENDBRANCH   7   8
ENDBRANCH   2   7
BRANCH   1  20
ATOM     20  C   UNL d   1     -38.965  15.234  22.150  0.00  0.00     0.086 A 
ATOM     21  C   UNL d   1     -38.953  14.514  22.559  0.00  0.00     0.110 A 
ATOM     22  C   UNL d   1     -38.668  14.476  23.336  0.00  0.00     0.026 A 
ATOM     23  C   UNL d   1     -38.398  15.157  23.698  0.00  0.00     0.002 A 
ATOM     24  C   UNL d   1     -38.406  15.884  23.297  0.00  0.00     0.002 A 
ATOM     25  C   UNL d   1     -38.686  15.922  22.531  0.00  0.00     0.019 A 
BRANCH  21  26
ATOM     26  O   UNL d   1     -39.232  13.821  22.178  0.00  0.00    -0.327 OA
ATOM     27  C   UNL d   1     -39.167  13.093  22.569  0.00  0.00     0.181 C 
ENDBRANCH  21  26
ENDBRANCH   1  20
TORSDOF 7
ENDMDL
