MODEL 1
REMARK VINA RESULT:      56.8      0.000      0.000
REMARK  7 active torsions:
REMARK  status: ('A' for Active; 'I' for Inactive)
REMARK    1  A    between atoms: C_3  and  C_1 
REMARK    2  A    between atoms: C_6  and  C_2 
REMARK       I    between atoms: N_5  and  C_3 
REMARK    3  A    between atoms: C_9  and  N_5 
REMARK    4  A    between atoms: N_10  and  C_9 
REMARK    5  A    between atoms: C_15  and  N_10 
REMARK    6  A    between atoms: C_13  and  C_15 
REMARK    7  A    between atoms: C_17  and  C_13 
ROOT
ATOM      1  C   UNL d   1     -56.509 -99.021 -44.044  0.00  0.00     0.285 C 
ATOM      2  N   UNL d   1     -55.736 -99.272 -44.179  0.00  0.00    -0.179 NA
ATOM      3  O   UNL d   1     -56.771 -98.869 -43.277  0.00  0.00    -0.265 OA
ENDROOT
BRANCH   1   4
ATOM      4  C   UNL d   1     -57.023 -98.921 -44.693  0.00  0.00     0.103 A 
ATOM      5  C   UNL d   1     -57.838 -98.840 -44.654  0.00  0.00     0.116 A 
ATOM      6  N   UNL d   1     -58.124 -98.755 -45.419  0.00  0.00    -0.126 NA
ATOM      7  O   UNL d   1     -57.478 -98.784 -45.932  0.00  0.00    -0.211 OA
ATOM      8  C   UNL d   1     -56.801 -98.886 -45.482  0.00  0.00     0.131 A 
ATOM      9  C   UNL d   1     -56.033 -98.943 -45.783  0.00  0.00     0.029 C 
BRANCH   5  10
ATOM     10  C   UNL d   1     -58.322 -98.839 -43.988  0.00  0.00     0.031 A 
ATOM     11  C   UNL d   1     -59.140 -98.864 -44.068  0.00  0.00     0.059 A 
ATOM     12 CL   UNL d   1     -59.488 -98.890 -44.828  0.00  0.00    -0.082 Cl
ATOM     13  C   UNL d   1     -59.620 -98.863 -43.410  0.00  0.00     0.011 A 
ATOM     14  C   UNL d   1     -59.281 -98.836 -42.659  0.00  0.00     0.001 A 
ATOM     15  C   UNL d   1     -58.471 -98.812 -42.572  0.00  0.00     0.000 A 
ATOM     16  C   UNL d   1     -57.983 -98.813 -43.235  0.00  0.00     0.002 A 
ENDBRANCH   5  10
ENDBRANCH   1   4
BRANCH   2  17
ATOM     17  C   UNL d   1     -55.221 -99.373 -43.543  0.00  0.00     0.224 C 
ATOM     18  S   UNL d   1     -55.168 -98.789 -42.962  0.00  0.00    -0.037 SA
BRANCH  17  19
ATOM     19  N   UNL d   1     -54.764-100.056 -43.491  0.00  0.00    -0.212 NA
BRANCH  19  20
ATOM     20  C   UNL d   1     -54.717-100.462 -42.773  0.00  0.00     0.143 C 
BRANCH  20  21
ATOM     21  C   UNL d   1     -54.850-101.279 -42.745  0.00  0.00     0.215 C 
ATOM     22  O   UNL d   1     -54.904-101.715 -43.437  0.00  0.00    -0.285 OA
BRANCH  21  23
ATOM     23  C   UNL d   1     -54.929-101.654 -42.014  0.00  0.00     0.041 A 
ATOM     24  C   UNL d   1     -54.715-101.268 -41.322  0.00  0.00     0.003 A 
ATOM     25  C   UNL d   1     -54.793-101.643 -40.591  0.00  0.00     0.000 A 
ATOM     26  C   UNL d   1     -55.090-102.414 -40.557  0.00  0.00     0.000 A 
ATOM     27  C   UNL d   1     -55.304-102.800 -41.248  0.00  0.00     0.000 A 
ATOM     28  C   UNL d   1     -55.226-102.425 -41.980  0.00  0.00     0.003 A 
ENDBRANCH  21  23
ENDBRANCH  20  21
ENDBRANCH  19  20
ENDBRANCH  17  19
ENDBRANCH   2  17
TORSDOF 7
ENDMDL
