MODEL 1
REMARK VINA RESULT:      13.3      0.000      0.000
REMARK  2 active torsions:
REMARK  status: ('A' for Active; 'I' for Inactive)
REMARK    1  A    between atoms: C_6  and  C_1 
REMARK    2  A    between atoms: C_7  and  C_5 
ROOT
ATOM      1  C   UNL d   1      57.360  49.606  50.023  0.00  0.00     0.169 A 
ATOM      2  C   UNL d   1      58.010  49.566  49.643  0.00  0.00     0.048 A 
ATOM      3  N   UNL d   1      58.024  49.700  51.151  0.00  0.00    -0.148 NA
ATOM      4  N   UNL d   1      57.361  49.673  50.778  0.00  0.00    -0.142 NA
ATOM      5  C   UNL d   1      58.674  49.661  50.772  0.00  0.00     0.105 A 
ENDROOT
BRANCH   5   6
ATOM      6  C   UNL d   1      59.471  49.672  50.976  0.00  0.00     0.020 A 
ATOM      7  C   UNL d   1      59.698  49.697  51.772  0.00  0.00     0.004 A 
ATOM      8  C   UNL d   1      60.501  49.708  51.976  0.00  0.00     0.030 A 
ATOM      9  C   UNL d   1      61.079  49.694  51.384  0.00  0.00     0.140 A 
ATOM     10  C   UNL d   1      60.846  49.668  50.581  0.00  0.00     0.030 A 
ATOM     11  F   UNL d   1      61.871  49.704  51.580  0.00  0.00    -0.204 F 
ATOM     12  C   UNL d   1      60.045  49.657  50.385  0.00  0.00     0.004 A 
ENDBRANCH   5   6
BRANCH   1  13
ATOM     13  C   UNL d   1      56.697  49.578  49.649  0.00  0.00     0.231 C 
ATOM     14  O   UNL d   1      56.674  49.701  48.906  0.00  0.00    -0.643 OA
ATOM     15  O   UNL d   1      56.060  49.427  50.032  0.00  0.00    -0.643 OA
ENDBRANCH   1  13
TORSDOF 2
ENDMDL
MODEL 2
REMARK VINA RESULT:      15.5      2.692      3.773
REMARK  2 active torsions:
REMARK  status: ('A' for Active; 'I' for Inactive)
REMARK    1  A    between atoms: C_6  and  C_1 
REMARK    2  A    between atoms: C_7  and  C_5 
ROOT
ATOM      1  C   UNL d   1      60.446  49.509  51.091  0.00  0.00     0.169 A 
ATOM      2  C   UNL d   1      60.207  49.437  50.380  0.00  0.00     0.048 A 
ATOM      3  N   UNL d   1      59.207  49.674  51.492  0.00  0.00    -0.148 NA
ATOM      4  N   UNL d   1      59.949  49.628  51.652  0.00  0.00    -0.142 NA
ATOM      5  C   UNL d   1      58.967  49.601  50.780  0.00  0.00     0.105 A 
ENDROOT
BRANCH   5   6
ATOM      6  C   UNL d   1      58.235  49.618  50.406  0.00  0.00     0.020 A 
ATOM      7  C   UNL d   1      57.538  49.565  50.849  0.00  0.00     0.004 A 
ATOM      8  C   UNL d   1      56.801  49.581  50.471  0.00  0.00     0.030 A 
ATOM      9  C   UNL d   1      56.760  49.651  49.647  0.00  0.00     0.140 A 
ATOM     10  C   UNL d   1      57.467  49.704  49.202  0.00  0.00     0.030 A 
ATOM     11  F   UNL d   1      56.037  49.667  49.270  0.00  0.00    -0.204 F 
ATOM     12  C   UNL d   1      58.196  49.687  49.586  0.00  0.00     0.004 A 
ENDBRANCH   5   6
BRANCH   1  13
ATOM     13  C   UNL d   1      61.189  49.464  51.252  0.00  0.00     0.231 C 
ATOM     14  O   UNL d   1      61.448  49.704  51.918  0.00  0.00    -0.643 OA
ATOM     15  O   UNL d   1      61.664  49.175  50.737  0.00  0.00    -0.643 OA
ENDBRANCH   1  13
TORSDOF 2
ENDMDL
