MODEL 1
REMARK VINA RESULT:      -6.5      0.000      0.000
REMARK  6 active torsions:
REMARK  status: ('A' for Active; 'I' for Inactive)
REMARK    1  A    between atoms: C_2  and  C_1 
REMARK       I    between atoms: N_6  and  C_1 
REMARK    2  A    between atoms: O_15  and  C_3 
REMARK    3  A    between atoms: O_17  and  C_4 
REMARK    4  A    between atoms: O_16  and  C_5 
REMARK    5  A    between atoms: C_12  and  N_6 
REMARK    6  A    between atoms: N_11  and  C_9 
ROOT
ATOM      1  C   UNL d   1      51.905  33.887  52.752  0.00  0.00     0.074 A 
ATOM      2  C   UNL d   1      52.856  33.314  53.968  0.00  0.00     0.138 A 
ATOM      3  C   UNL d   1      52.793  34.120  53.841  0.00  0.00     0.118 A 
ATOM      4  C   UNL d   1      52.441  32.799  53.484  0.00  0.00     0.118 A 
ATOM      5  C   UNL d   1      52.323  34.417  53.239  0.00  0.00     0.032 A 
ATOM      6  C   UNL d   1      51.961  33.072  52.870  0.00  0.00     0.032 A 
ENDROOT
BRANCH   1   7
ATOM      7  C   UNL d   1      51.429  34.174  52.142  0.00  0.00     0.328 C 
ATOM      8  N   UNL d   1      50.689  34.478  52.317  0.00  0.00    -0.365 NA
ATOM      9  O   UNL d   1      51.699  34.155  51.361  0.00  0.00    -0.251 OA
BRANCH   8  10
ATOM     10  C   UNL d   1      49.944  34.784  52.485  0.00  0.00     0.135 A 
ATOM     11  C   UNL d   1      49.772  35.090  53.237  0.00  0.00     0.034 A 
ATOM     12  C   UNL d   1      49.027  35.397  53.405  0.00  0.00     0.020 A 
ATOM     13  C   UNL d   1      48.449  35.400  52.826  0.00  0.00     0.064 A 
ATOM     14  C   UNL d   1      48.613  35.098  52.076  0.00  0.00     0.020 A 
ATOM     15  C   UNL d   1      49.366  34.788  51.906  0.00  0.00     0.034 A 
BRANCH  13  16
ATOM     16  N   UNL d   1      47.698  35.708  52.993  0.00  0.00    -0.301 N 
ATOM     17  C   UNL d   1      47.132  35.758  52.391  0.00  0.00     0.100 C 
ATOM     18  C   UNL d   1      47.516  35.967  53.766  0.00  0.00     0.100 C 
ENDBRANCH  13  16
ENDBRANCH   8  10
ENDBRANCH   1   7
BRANCH   3  19
ATOM     19  O   UNL d   1      53.208  34.644  54.326  0.00  0.00    -0.326 OA
ATOM     20  C   UNL d   1      53.022  35.462  54.310  0.00  0.00     0.181 C 
ENDBRANCH   3  19
BRANCH   4  21
ATOM     21  O   UNL d   1      52.505  31.976  53.613  0.00  0.00    -0.326 OA
ATOM     22  C   UNL d   1      52.288  31.444  53.011  0.00  0.00     0.181 C 
ENDBRANCH   4  21
BRANCH   2  23
ATOM     23  O   UNL d   1      53.331  33.027  54.577  0.00  0.00    -0.324 OA
ATOM     24  C   UNL d   1      54.133  32.885  54.453  0.00  0.00     0.182 C 
ENDBRANCH   2  23
TORSDOF 6
ENDMDL
MODEL 2
REMARK VINA RESULT:      -6.4      1.092      1.680
REMARK  6 active torsions:
REMARK  status: ('A' for Active; 'I' for Inactive)
REMARK    1  A    between atoms: C_2  and  C_1 
REMARK       I    between atoms: N_6  and  C_1 
REMARK    2  A    between atoms: O_15  and  C_3 
REMARK    3  A    between atoms: O_17  and  C_4 
REMARK    4  A    between atoms: O_16  and  C_5 
REMARK    5  A    between atoms: C_12  and  N_6 
REMARK    6  A    between atoms: N_11  and  C_9 
ROOT
ATOM      1  C   UNL d   1      53.035  33.282  53.512  0.00  0.00     0.074 A 
ATOM      2  C   UNL d   1      53.941  33.724  54.814  0.00  0.00     0.138 A 
ATOM      3  C   UNL d   1      53.673  34.291  54.289  0.00  0.00     0.118 A 
ATOM      4  C   UNL d   1      53.753  32.937  54.684  0.00  0.00     0.118 A 
ATOM      5  C   UNL d   1      53.221  34.083  53.637  0.00  0.00     0.032 A 
ATOM      6  C   UNL d   1      53.300  32.700  54.035  0.00  0.00     0.032 A 
ENDROOT
BRANCH   1   7
ATOM      7  C   UNL d   1      52.581  33.060  52.859  0.00  0.00     0.328 C 
ATOM      8  N   UNL d   1      51.866  33.433  52.720  0.00  0.00    -0.365 NA
ATOM      9  O   UNL d   1      52.849  32.466  52.352  0.00  0.00    -0.251 OA
BRANCH   8  10
ATOM     10  C   UNL d   1      51.146  33.803  52.574  0.00  0.00     0.135 A 
ATOM     11  C   UNL d   1      50.557  33.829  53.158  0.00  0.00     0.034 A 
ATOM     12  C   UNL d   1      49.837  34.199  53.011  0.00  0.00     0.020 A 
ATOM     13  C   UNL d   1      49.698  34.545  52.283  0.00  0.00     0.064 A 
ATOM     14  C   UNL d   1      50.279  34.523  51.697  0.00  0.00     0.020 A 
ATOM     15  C   UNL d   1      51.007  34.149  51.846  0.00  0.00     0.034 A 
BRANCH  13  16
ATOM     16  N   UNL d   1      48.974  34.918  52.133  0.00  0.00    -0.301 N 
ATOM     17  C   UNL d   1      48.599  34.809  51.404  0.00  0.00     0.100 C 
ATOM     18  C   UNL d   1      48.625  35.403  52.717  0.00  0.00     0.100 C 
ENDBRANCH  13  16
ENDBRANCH   8  10
ENDBRANCH   1   7
BRANCH   3  19
ATOM     19  O   UNL d   1      53.859  35.086  54.415  0.00  0.00    -0.326 OA
ATOM     20  C   UNL d   1      53.250  35.663  54.395  0.00  0.00     0.181 C 
ENDBRANCH   3  19
BRANCH   4  21
ATOM     21  O   UNL d   1      54.027  32.358  55.220  0.00  0.00    -0.326 OA
ATOM     22  C   UNL d   1      53.731  31.581  55.177  0.00  0.00     0.181 C 
ENDBRANCH   4  21
BRANCH   2  23
ATOM     23  O   UNL d   1      54.394  33.945  55.466  0.00  0.00    -0.324 OA
ATOM     24  C   UNL d   1      55.217  33.927  55.432  0.00  0.00     0.182 C 
ENDBRANCH   2  23
TORSDOF 6
ENDMDL
MODEL 3
REMARK VINA RESULT:      -6.4      2.719      4.957
REMARK  6 active torsions:
REMARK  status: ('A' for Active; 'I' for Inactive)
REMARK    1  A    between atoms: C_2  and  C_1 
REMARK       I    between atoms: N_6  and  C_1 
REMARK    2  A    between atoms: O_15  and  C_3 
REMARK    3  A    between atoms: O_17  and  C_4 
REMARK    4  A    between atoms: O_16  and  C_5 
REMARK    5  A    between atoms: C_12  and  N_6 
REMARK    6  A    between atoms: N_11  and  C_9 
ROOT
ATOM      1  C   UNL d   1      53.809  33.500  53.658  0.00  0.00     0.074 A 
ATOM      2  C   UNL d   1      53.149  34.749  54.504  0.00  0.00     0.138 A 
ATOM      3  C   UNL d   1      53.808  34.360  54.793  0.00  0.00     0.118 A 
ATOM      4  C   UNL d   1      52.823  34.509  53.791  0.00  0.00     0.118 A 
ATOM      5  C   UNL d   1      54.146  33.738  54.381  0.00  0.00     0.032 A 
ATOM      6  C   UNL d   1      53.143  33.884  53.356  0.00  0.00     0.032 A 
ENDROOT
BRANCH   1   7
ATOM      7  C   UNL d   1      54.140  32.874  53.234  0.00  0.00     0.328 C 
ATOM      8  N   UNL d   1      53.887  32.110  53.380  0.00  0.00    -0.365 NA
ATOM      9  O   UNL d   1      54.723  33.020  52.667  0.00  0.00    -0.251 OA
BRANCH   8  10
ATOM     10  C   UNL d   1      53.637  31.339  53.520  0.00  0.00     0.135 A 
ATOM     11  C   UNL d   1      53.140  30.950  52.982  0.00  0.00     0.034 A 
ATOM     12  C   UNL d   1      52.891  30.178  53.123  0.00  0.00     0.020 A 
ATOM     13  C   UNL d   1      53.134  29.789  53.800  0.00  0.00     0.064 A 
ATOM     14  C   UNL d   1      53.629  30.170  54.340  0.00  0.00     0.020 A 
ATOM     15  C   UNL d   1      53.881  30.950  54.198  0.00  0.00     0.034 A 
BRANCH  13  16
ATOM     16  N   UNL d   1      52.884  29.012  53.944  0.00  0.00    -0.301 N 
ATOM     17  C   UNL d   1      52.310  28.670  53.456  0.00  0.00     0.100 C 
ATOM     18  C   UNL d   1      53.212  28.579  54.578  0.00  0.00     0.100 C 
ENDBRANCH  13  16
ENDBRANCH   8  10
ENDBRANCH   1   7
BRANCH   3  19
ATOM     19  O   UNL d   1      54.141  34.598  55.511  0.00  0.00    -0.326 OA
ATOM     20  C   UNL d   1      54.738  34.129  55.868  0.00  0.00     0.181 C 
ENDBRANCH   3  19
BRANCH   4  21
ATOM     21  O   UNL d   1      52.150  34.905  53.496  0.00  0.00    -0.326 OA
ATOM     22  C   UNL d   1      51.586  34.487  53.048  0.00  0.00     0.181 C 
ENDBRANCH   4  21
BRANCH   2  23
ATOM     23  O   UNL d   1      52.818  35.374  54.928  0.00  0.00    -0.324 OA
ATOM     24  C   UNL d   1      53.065  36.148  54.796  0.00  0.00     0.182 C 
ENDBRANCH   2  23
TORSDOF 6
ENDMDL
MODEL 4
REMARK VINA RESULT:      -6.4      2.717      5.019
REMARK  6 active torsions:
REMARK  status: ('A' for Active; 'I' for Inactive)
REMARK    1  A    between atoms: C_2  and  C_1 
REMARK       I    between atoms: N_6  and  C_1 
REMARK    2  A    between atoms: O_15  and  C_3 
REMARK    3  A    between atoms: O_17  and  C_4 
REMARK    4  A    between atoms: O_16  and  C_5 
REMARK    5  A    between atoms: C_12  and  N_6 
REMARK    6  A    between atoms: N_11  and  C_9 
ROOT
ATOM      1  C   UNL d   1      53.801  33.499  53.662  0.00  0.00     0.074 A 
ATOM      2  C   UNL d   1      53.129  34.745  54.503  0.00  0.00     0.138 A 
ATOM      3  C   UNL d   1      52.802  34.505  53.792  0.00  0.00     0.118 A 
ATOM      4  C   UNL d   1      53.793  34.358  54.789  0.00  0.00     0.118 A 
ATOM      5  C   UNL d   1      53.128  33.887  53.365  0.00  0.00     0.032 A 
ATOM      6  C   UNL d   1      54.141  33.731  54.378  0.00  0.00     0.032 A 
ENDROOT
BRANCH   1   7
ATOM      7  C   UNL d   1      54.138  32.875  53.240  0.00  0.00     0.328 C 
ATOM      8  N   UNL d   1      53.884  32.110  53.381  0.00  0.00    -0.365 NA
ATOM      9  O   UNL d   1      54.728  33.023  52.681  0.00  0.00    -0.251 OA
BRANCH   8  10
ATOM     10  C   UNL d   1      53.634  31.338  53.517  0.00  0.00     0.135 A 
ATOM     11  C   UNL d   1      53.140  30.951  52.973  0.00  0.00     0.034 A 
ATOM     12  C   UNL d   1      52.890  30.179  53.109  0.00  0.00     0.020 A 
ATOM     13  C   UNL d   1      53.129  29.787  53.787  0.00  0.00     0.064 A 
ATOM     14  C   UNL d   1      53.620  30.165  54.332  0.00  0.00     0.020 A 
ATOM     15  C   UNL d   1      53.873  30.946  54.194  0.00  0.00     0.034 A 
BRANCH  13  16
ATOM     16  N   UNL d   1      52.879  29.009  53.925  0.00  0.00    -0.301 N 
ATOM     17  C   UNL d   1      52.305  28.670  53.435  0.00  0.00     0.100 C 
ATOM     18  C   UNL d   1      53.205  28.573  54.558  0.00  0.00     0.100 C 
ENDBRANCH  13  16
ENDBRANCH   8  10
ENDBRANCH   1   7
BRANCH   3  19
ATOM     19  O   UNL d   1      52.133  34.892  53.499  0.00  0.00    -0.326 OA
ATOM     20  C   UNL d   1      51.585  34.471  53.024  0.00  0.00     0.181 C 
ENDBRANCH   3  19
BRANCH   4  21
ATOM     21  O   UNL d   1      54.127  34.602  55.515  0.00  0.00    -0.326 OA
ATOM     22  C   UNL d   1      54.723  34.143  55.871  0.00  0.00     0.181 C 
ENDBRANCH   4  21
BRANCH   2  23
ATOM     23  O   UNL d   1      52.793  35.368  54.924  0.00  0.00    -0.324 OA
ATOM     24  C   UNL d   1      53.035  36.144  54.792  0.00  0.00     0.182 C 
ENDBRANCH   2  23
TORSDOF 6
ENDMDL
MODEL 5
REMARK VINA RESULT:      -6.2      1.268      2.465
REMARK  6 active torsions:
REMARK  status: ('A' for Active; 'I' for Inactive)
REMARK    1  A    between atoms: C_2  and  C_1 
REMARK       I    between atoms: N_6  and  C_1 
REMARK    2  A    between atoms: O_15  and  C_3 
REMARK    3  A    between atoms: O_17  and  C_4 
REMARK    4  A    between atoms: O_16  and  C_5 
REMARK    5  A    between atoms: C_12  and  N_6 
REMARK    6  A    between atoms: N_11  and  C_9 
ROOT
ATOM      1  C   UNL d   1      53.231  32.909  53.321  0.00  0.00     0.074 A 
ATOM      2  C   UNL d   1      53.554  31.551  54.195  0.00  0.00     0.138 A 
ATOM      3  C   UNL d   1      53.227  31.490  53.447  0.00  0.00     0.118 A 
ATOM      4  C   UNL d   1      53.717  32.293  54.502  0.00  0.00     0.118 A 
ATOM      5  C   UNL d   1      53.062  32.158  53.003  0.00  0.00     0.032 A 
ATOM      6  C   UNL d   1      53.561  32.983  54.075  0.00  0.00     0.032 A 
ENDROOT
BRANCH   1   7
ATOM      7  C   UNL d   1      53.069  33.589  52.884  0.00  0.00     0.328 C 
ATOM      8  N   UNL d   1      52.293  33.832  52.788  0.00  0.00    -0.365 NA
ATOM      9  O   UNL d   1      53.687  34.021  52.546  0.00  0.00    -0.251 OA
BRANCH   8  10
ATOM     10  C   UNL d   1      51.516  34.082  52.687  0.00  0.00     0.135 A 
ATOM     11  C   UNL d   1      51.082  34.382  53.327  0.00  0.00     0.034 A 
ATOM     12  C   UNL d   1      50.304  34.633  53.226  0.00  0.00     0.020 A 
ATOM     13  C   UNL d   1      49.955  34.586  52.488  0.00  0.00     0.064 A 
ATOM     14  C   UNL d   1      50.380  34.289  51.846  0.00  0.00     0.020 A 
ATOM     15  C   UNL d   1      51.167  34.036  51.949  0.00  0.00     0.034 A 
BRANCH  13  16
ATOM     16  N   UNL d   1      49.172  34.838  52.384  0.00  0.00    -0.301 N 
ATOM     17  C   UNL d   1      48.811  35.305  52.964  0.00  0.00     0.100 C 
ATOM     18  C   UNL d   1      48.752  34.620  51.697  0.00  0.00     0.100 C 
ENDBRANCH  13  16
ENDBRANCH   8  10
ENDBRANCH   1   7
BRANCH   3  19
ATOM     19  O   UNL d   1      53.060  30.744  53.133  0.00  0.00    -0.326 OA
ATOM     20  C   UNL d   1      53.017  30.644  52.301  0.00  0.00     0.181 C 
ENDBRANCH   3  19
BRANCH   4  21
ATOM     21  O   UNL d   1      54.051  32.355  55.265  0.00  0.00    -0.326 OA
ATOM     22  C   UNL d   1      54.422  33.063  55.498  0.00  0.00     0.181 C 
ENDBRANCH   4  21
BRANCH   2  23
ATOM     23  O   UNL d   1      53.716  30.871  54.632  0.00  0.00    -0.324 OA
ATOM     24  C   UNL d   1      53.104  30.420  54.950  0.00  0.00     0.182 C 
ENDBRANCH   2  23
TORSDOF 6
ENDMDL
