MODEL 1
REMARK VINA RESULT:      56.0      0.000      0.000
REMARK  5 active torsions:
REMARK  status: ('A' for Active; 'I' for Inactive)
REMARK    1  A    between atoms: C_5  and  N_1 
REMARK    2  A    between atoms: C_8  and  C_2 
REMARK    3  A    between atoms: C_7  and  C_5 
REMARK    4  A    between atoms: N_10  and  C_8 
REMARK       I    between atoms: C_9  and  N_10 
REMARK    5  A    between atoms: C_17  and  C_9 
ROOT
ATOM      1  N   UNL d   1     -58.014 -98.802 -44.157  0.00  0.00    -0.288 N 
ATOM      2  C   UNL d   1     -57.299 -98.850 -43.750  0.00  0.00     0.167 A 
ATOM      3  N   UNL d   1     -57.461 -98.875 -42.950  0.00  0.00    -0.225 NA
ATOM      4  C   UNL d   1     -58.621 -98.798 -43.595  0.00  0.00     0.083 A 
ATOM      5  C   UNL d   1     -58.275 -98.843 -42.852  0.00  0.00     0.099 A 
ATOM      6  C   UNL d   1     -59.442 -98.759 -43.671  0.00  0.00     0.019 A 
ATOM      7  C   UNL d   1     -58.746 -98.849 -42.170  0.00  0.00     0.021 A 
ATOM      8  C   UNL d   1     -59.909 -98.765 -42.989  0.00  0.00     0.002 A 
ATOM      9  C   UNL d   1     -59.567 -98.810 -42.244  0.00  0.00     0.002 A 
ENDROOT
BRANCH   1  10
ATOM     10  C   UNL d   1     -58.103 -98.766 -44.976  0.00  0.00     0.084 C 
BRANCH  10  11
ATOM     11  C   UNL d   1     -58.716 -99.165 -45.339  0.00  0.00     0.045 A 
ATOM     12  C   UNL d   1     -58.776 -99.994 -45.256  0.00  0.00     0.141 A 
ATOM     13  F   UNL d   1     -58.219-100.403 -44.808  0.00  0.00    -0.204 F 
ATOM     14  C   UNL d   1     -59.396-100.405 -45.622  0.00  0.00     0.030 A 
ATOM     15  C   UNL d   1     -59.959 -99.996 -46.073  0.00  0.00     0.002 A 
ATOM     16  C   UNL d   1     -59.887 -99.165 -46.149  0.00  0.00     0.000 A 
ATOM     17  C   UNL d   1     -59.275 -98.760 -45.787  0.00  0.00     0.004 A 
ENDBRANCH  10  11
ENDBRANCH   1  10
BRANCH   2  18
ATOM     18  C   UNL d   1     -56.549 -98.870 -44.095  0.00  0.00     0.140 C 
BRANCH  18  19
ATOM     19  N   UNL d   1     -56.116 -99.573 -44.089  0.00  0.00    -0.203 NA
ATOM     20  C   UNL d   1     -55.302 -99.557 -44.142  0.00  0.00     0.279 C 
ATOM     21  O   UNL d   1     -54.909 -98.832 -44.202  0.00  0.00    -0.265 OA
BRANCH  20  22
ATOM     22  C   UNL d   1     -54.871-100.251 -44.136  0.00  0.00     0.062 C 
ATOM     23  C   UNL d   1     -55.215-100.945 -44.368  0.00  0.00     0.005 C 
ENDBRANCH  20  22
ENDBRANCH  18  19
ENDBRANCH   2  18
TORSDOF 5
ENDMDL
