MODEL 1
REMARK VINA RESULT:     -10.3      0.000      0.000
REMARK  3 active torsions:
REMARK  status: ('A' for Active; 'I' for Inactive)
REMARK    1  A    between atoms: O_7  and  C_1 
REMARK    2  A    between atoms: C_12  and  O_7 
REMARK    3  A    between atoms: O_20  and  C_14 
ROOT
ATOM      1  C   UNL d   1      53.084  32.525  53.132  0.00  0.00     0.163 A 
ATOM      2  C   UNL d   1      52.655  33.183  52.925  0.00  0.00     0.222 A 
ATOM      3  C   UNL d   1      52.734  33.869  53.367  0.00  0.00     0.064 A 
ATOM      4  C   UNL d   1      53.252  33.876  54.018  0.00  0.00     0.106 A 
ATOM      5  C   UNL d   1      53.573  32.532  53.747  0.00  0.00     0.150 A 
ATOM      6  O   UNL d   1      53.672  33.198  54.205  0.00  0.00    -0.303 OA
ATOM      7  C   UNL d   1      52.313  34.552  53.182  0.00  0.00     0.009 A 
ATOM      8  C   UNL d   1      53.329  34.567  54.461  0.00  0.00     0.067 A 
ATOM      9  O   UNL d   1      52.137  33.176  52.273  0.00  0.00    -0.284 OA
ATOM     10  C   UNL d   1      52.895  35.240  54.254  0.00  0.00     0.198 A 
ATOM     11  C   UNL d   1      52.406  35.233  53.639  0.00  0.00     0.042 A 
ATOM     12  O   UNL d   1      52.963  35.950  54.696  0.00  0.00    -0.286 OA
ENDROOT
BRANCH   1  13
ATOM     13  O   UNL d   1      53.004  31.790  52.664  0.00  0.00    -0.302 OA
BRANCH  13  14
ATOM     14  C   UNL d   1      53.041  31.064  53.036  0.00  0.00     0.100 A 
ATOM     15  C   UNL d   1      53.780  30.704  53.218  0.00  0.00     0.027 A 
ATOM     16  C   UNL d   1      53.809  29.977  53.590  0.00  0.00     0.026 A 
ATOM     17  C   UNL d   1      53.089  29.576  53.796  0.00  0.00     0.094 A 
ATOM     18  C   UNL d   1      52.350  29.935  53.614  0.00  0.00     0.026 A 
ATOM     19  C   UNL d   1      52.339  30.676  53.236  0.00  0.00     0.027 A 
BRANCH  17  20
ATOM     20  O   UNL d   1      53.079  28.831  54.178  0.00  0.00    -0.328 OA
ATOM     21  C   UNL d   1      53.410  28.608  54.920  0.00  0.00     0.181 C 
ENDBRANCH  17  20
ENDBRANCH  13  14
ENDBRANCH   1  13
TORSDOF 3
ENDMDL
MODEL 2
REMARK VINA RESULT:      -9.0      0.794      4.410
REMARK  3 active torsions:
REMARK  status: ('A' for Active; 'I' for Inactive)
REMARK    1  A    between atoms: O_7  and  C_1 
REMARK    2  A    between atoms: C_12  and  O_7 
REMARK    3  A    between atoms: O_20  and  C_14 
ROOT
ATOM      1  C   UNL d   1      53.205  31.937  53.168  0.00  0.00     0.163 A 
ATOM      2  C   UNL d   1      52.929  31.220  52.904  0.00  0.00     0.222 A 
ATOM      3  C   UNL d   1      53.034  30.554  53.368  0.00  0.00     0.064 A 
ATOM      4  C   UNL d   1      53.421  30.625  54.101  0.00  0.00     0.106 A 
ATOM      5  C   UNL d   1      53.571  32.004  53.860  0.00  0.00     0.150 A 
ATOM      6  O   UNL d   1      53.690  31.360  54.343  0.00  0.00    -0.303 OA
ATOM      7  C   UNL d   1      52.765  29.813  53.127  0.00  0.00     0.009 A 
ATOM      8  C   UNL d   1      53.526  29.953  54.566  0.00  0.00     0.067 A 
ATOM      9  O   UNL d   1      52.541  31.149  52.170  0.00  0.00    -0.284 OA
ATOM     10  C   UNL d   1      53.246  29.221  54.301  0.00  0.00     0.198 A 
ATOM     11  C   UNL d   1      52.880  29.154  53.609  0.00  0.00     0.042 A 
ATOM     12  O   UNL d   1      53.346  28.528  54.764  0.00  0.00    -0.286 OA
ENDROOT
BRANCH   1  13
ATOM     13  O   UNL d   1      53.096  32.653  52.677  0.00  0.00    -0.302 OA
BRANCH  13  14
ATOM     14  C   UNL d   1      52.927  33.369  53.031  0.00  0.00     0.100 A 
ATOM     15  C   UNL d   1      52.132  33.626  53.135  0.00  0.00     0.027 A 
ATOM     16  C   UNL d   1      51.971  34.345  53.490  0.00  0.00     0.026 A 
ATOM     17  C   UNL d   1      52.606  34.840  53.758  0.00  0.00     0.094 A 
ATOM     18  C   UNL d   1      53.401  34.583  53.653  0.00  0.00     0.026 A 
ATOM     19  C   UNL d   1      53.547  33.849  53.290  0.00  0.00     0.027 A 
BRANCH  17  20
ATOM     20  O   UNL d   1      52.480  35.581  54.125  0.00  0.00    -0.328 OA
ATOM     21  C   UNL d   1      52.875  35.921  54.788  0.00  0.00     0.181 C 
ENDBRANCH  17  20
ENDBRANCH  13  14
ENDBRANCH   1  13
TORSDOF 3
ENDMDL
MODEL 3
REMARK VINA RESULT:      -8.6      1.997      3.915
REMARK  3 active torsions:
REMARK  status: ('A' for Active; 'I' for Inactive)
REMARK    1  A    between atoms: O_7  and  C_1 
REMARK    2  A    between atoms: C_12  and  O_7 
REMARK    3  A    between atoms: O_20  and  C_14 
ROOT
ATOM      1  C   UNL d   1      52.611  33.467  53.237  0.00  0.00     0.163 A 
ATOM      2  C   UNL d   1      53.069  32.929  53.637  0.00  0.00     0.222 A 
ATOM      3  C   UNL d   1      53.631  33.196  54.169  0.00  0.00     0.064 A 
ATOM      4  C   UNL d   1      53.721  34.014  54.290  0.00  0.00     0.106 A 
ATOM      5  C   UNL d   1      52.696  34.240  53.352  0.00  0.00     0.150 A 
ATOM      6  O   UNL d   1      53.246  34.536  53.875  0.00  0.00    -0.303 OA
ATOM      7  C   UNL d   1      54.111  32.673  54.589  0.00  0.00     0.009 A 
ATOM      8  C   UNL d   1      54.288  34.280  54.827  0.00  0.00     0.067 A 
ATOM      9  O   UNL d   1      52.979  32.109  53.515  0.00  0.00    -0.284 OA
ATOM     10  C   UNL d   1      54.756  33.734  55.236  0.00  0.00     0.198 A 
ATOM     11  C   UNL d   1      54.671  32.962  55.121  0.00  0.00     0.042 A 
ATOM     12  O   UNL d   1      55.336  33.991  55.784  0.00  0.00    -0.286 OA
ENDROOT
BRANCH   1  13
ATOM     13  O   UNL d   1      52.009  33.189  52.667  0.00  0.00    -0.302 OA
BRANCH  13  14
ATOM     14  C   UNL d   1      51.317  33.610  52.565  0.00  0.00     0.100 A 
ATOM     15  C   UNL d   1      50.714  33.605  53.153  0.00  0.00     0.027 A 
ATOM     16  C   UNL d   1      50.024  34.029  53.044  0.00  0.00     0.026 A 
ATOM     17  C   UNL d   1      49.909  34.481  52.334  0.00  0.00     0.094 A 
ATOM     18  C   UNL d   1      50.512  34.486  51.746  0.00  0.00     0.026 A 
ATOM     19  C   UNL d   1      51.208  34.049  51.873  0.00  0.00     0.027 A 
BRANCH  17  20
ATOM     20  O   UNL d   1      49.216  34.927  52.187  0.00  0.00    -0.328 OA
ATOM     21  C   UNL d   1      48.660  34.855  51.558  0.00  0.00     0.181 C 
ENDBRANCH  17  20
ENDBRANCH  13  14
ENDBRANCH   1  13
TORSDOF 3
ENDMDL
MODEL 4
REMARK VINA RESULT:      -8.4      1.164      1.568
REMARK  3 active torsions:
REMARK  status: ('A' for Active; 'I' for Inactive)
REMARK    1  A    between atoms: O_7  and  C_1 
REMARK    2  A    between atoms: C_12  and  O_7 
REMARK    3  A    between atoms: O_20  and  C_14 
ROOT
ATOM      1  C   UNL d   1      52.566  32.307  52.901  0.00  0.00     0.163 A 
ATOM      2  C   UNL d   1      52.678  33.110  52.937  0.00  0.00     0.222 A 
ATOM      3  C   UNL d   1      52.031  33.603  53.026  0.00  0.00     0.064 A 
ATOM      4  C   UNL d   1      51.270  33.271  53.077  0.00  0.00     0.106 A 
ATOM      5  C   UNL d   1      51.847  31.993  52.949  0.00  0.00     0.150 A 
ATOM      6  O   UNL d   1      51.184  32.457  53.037  0.00  0.00    -0.303 OA
ATOM      7  C   UNL d   1      52.114  34.422  53.066  0.00  0.00     0.009 A 
ATOM      8  C   UNL d   1      50.619  33.769  53.166  0.00  0.00     0.067 A 
ATOM      9  O   UNL d   1      53.440  33.443  52.886  0.00  0.00    -0.284 OA
ATOM     10  C   UNL d   1      50.730  34.588  53.204  0.00  0.00     0.198 A 
ATOM     11  C   UNL d   1      51.449  34.902  53.156  0.00  0.00     0.042 A 
ATOM     12  O   UNL d   1      50.077  35.107  53.295  0.00  0.00    -0.286 OA
ENDROOT
BRANCH   1  13
ATOM     13  O   UNL d   1      53.253  31.775  52.806  0.00  0.00    -0.302 OA
BRANCH  13  14
ATOM     14  C   UNL d   1      53.271  31.057  53.195  0.00  0.00     0.100 A 
ATOM     15  C   UNL d   1      53.592  30.991  53.971  0.00  0.00     0.027 A 
ATOM     16  C   UNL d   1      53.606  30.269  54.354  0.00  0.00     0.026 A 
ATOM     17  C   UNL d   1      53.297  29.577  53.971  0.00  0.00     0.094 A 
ATOM     18  C   UNL d   1      52.976  29.643  53.196  0.00  0.00     0.026 A 
ATOM     19  C   UNL d   1      52.969  30.385  52.820  0.00  0.00     0.027 A 
BRANCH  17  20
ATOM     20  O   UNL d   1      53.295  28.822  54.332  0.00  0.00    -0.328 OA
ATOM     21  C   UNL d   1      53.307  28.623  55.151  0.00  0.00     0.181 C 
ENDBRANCH  17  20
ENDBRANCH  13  14
ENDBRANCH   1  13
TORSDOF 3
ENDMDL
MODEL 5
REMARK VINA RESULT:      -8.4      1.378      4.493
REMARK  3 active torsions:
REMARK  status: ('A' for Active; 'I' for Inactive)
REMARK    1  A    between atoms: O_7  and  C_1 
REMARK    2  A    between atoms: C_12  and  O_7 
REMARK    3  A    between atoms: O_20  and  C_14 
ROOT
ATOM      1  C   UNL d   1      52.702  32.432  53.053  0.00  0.00     0.163 A 
ATOM      2  C   UNL d   1      53.163  32.093  53.629  0.00  0.00     0.222 A 
ATOM      3  C   UNL d   1      53.213  31.277  53.676  0.00  0.00     0.064 A 
ATOM      4  C   UNL d   1      52.789  30.812  53.132  0.00  0.00     0.106 A 
ATOM      5  C   UNL d   1      52.302  31.992  52.539  0.00  0.00     0.150 A 
ATOM      6  O   UNL d   1      52.331  31.179  52.560  0.00  0.00    -0.303 OA
ATOM      7  C   UNL d   1      53.673  30.905  54.249  0.00  0.00     0.009 A 
ATOM      8  C   UNL d   1      52.841  29.991  53.181  0.00  0.00     0.067 A 
ATOM      9  O   UNL d   1      53.587  32.560  54.174  0.00  0.00    -0.284 OA
ATOM     10  C   UNL d   1      53.310  29.641  53.766  0.00  0.00     0.198 A 
ATOM     11  C   UNL d   1      53.710  30.081  54.280  0.00  0.00     0.042 A 
ATOM     12  O   UNL d   1      53.372  28.807  53.828  0.00  0.00    -0.286 OA
ENDROOT
BRANCH   1  13
ATOM     13  O   UNL d   1      52.644  33.303  52.997  0.00  0.00    -0.302 OA
BRANCH  13  14
ATOM     14  C   UNL d   1      51.921  33.657  52.865  0.00  0.00     0.100 A 
ATOM     15  C   UNL d   1      51.339  33.700  53.472  0.00  0.00     0.027 A 
ATOM     16  C   UNL d   1      50.616  34.056  53.331  0.00  0.00     0.026 A 
ATOM     17  C   UNL d   1      50.446  34.387  52.569  0.00  0.00     0.094 A 
ATOM     18  C   UNL d   1      51.028  34.345  51.961  0.00  0.00     0.026 A 
ATOM     19  C   UNL d   1      51.758  33.979  52.121  0.00  0.00     0.027 A 
BRANCH  17  20
ATOM     20  O   UNL d   1      49.719  34.760  52.388  0.00  0.00    -0.328 OA
ATOM     21  C   UNL d   1      49.179  35.152  52.903  0.00  0.00     0.181 C 
ENDBRANCH  17  20
ENDBRANCH  13  14
ENDBRANCH   1  13
TORSDOF 3
ENDMDL
