MODEL 1
REMARK VINA RESULT:      -4.8      0.000      0.000
REMARK  5 active torsions:
REMARK  status: ('A' for Active; 'I' for Inactive)
REMARK    1  A    between atoms: N_8  and  C_2 
REMARK    2  A    between atoms: C_6  and  C_5 
REMARK    3  A    between atoms: C_7  and  C_6 
REMARK       I    between atoms: N_9  and  C_7 
REMARK    4  A    between atoms: C_18  and  N_9 
REMARK    5  A    between atoms: C_11  and  C_12 
ROOT
ATOM      1  C   UNL d   1      58.259   0.121  30.202  0.00  0.00     0.280 C 
ATOM      2  N   UNL d   1      57.445  -0.023  30.295  0.00  0.00    -0.208 NA
ATOM      3  O   UNL d   1      58.731   0.256  30.860  0.00  0.00    -0.265 OA
ENDROOT
BRANCH   1   4
ATOM      4  C   UNL d   1      58.583   0.126  29.449  0.00  0.00     0.074 C 
BRANCH   4   5
ATOM      5  C   UNL d   1      59.162  -0.424  29.243  0.00  0.00     0.093 A 
ATOM      6  C   UNL d   1      59.918  -0.239  28.972  0.00  0.00     0.272 A 
ATOM      7  N   UNL d   1      60.320  -0.945  28.830  0.00  0.00    -0.251 N 
ATOM      8  O   UNL d   1      60.233   0.516  28.857  0.00  0.00    -0.266 OA
ATOM      9  C   UNL d   1      59.807  -1.573  29.016  0.00  0.00     0.182 A 
ATOM     10  C   UNL d   1      61.091  -1.028  28.554  0.00  0.00     0.104 C 
ATOM     11  S   UNL d   1      59.097  -1.239  29.269  0.00  0.00    -0.045 SA
BRANCH   9  12
ATOM     12  N   UNL d   1      59.982  -2.377  28.955  0.00  0.00    -0.219 NA
ATOM     13  C   UNL d   1      59.387  -2.941  29.029  0.00  0.00     0.122 C 
ENDBRANCH   9  12
ENDBRANCH   4   5
ENDBRANCH   1   4
BRANCH   2  14
ATOM     14  C   UNL d   1      57.118  -0.029  31.050  0.00  0.00     0.085 A 
ATOM     15  C   UNL d   1      56.970  -0.752  31.442  0.00  0.00     0.019 A 
ATOM     16  C   UNL d   1      56.642  -0.751  32.199  0.00  0.00     0.005 A 
ATOM     17  C   UNL d   1      56.458  -0.034  32.574  0.00  0.00     0.039 A 
ATOM     18  C   UNL d   1      56.604   0.680  32.187  0.00  0.00     0.005 A 
ATOM     19  C   UNL d   1      56.935   0.682  31.423  0.00  0.00     0.019 A 
BRANCH  17  20
ATOM     20  C   UNL d   1      56.131  -0.036  33.327  0.00  0.00     0.196 C 
ATOM     21  O   UNL d   1      56.578   0.215  33.974  0.00  0.00    -0.287 OA
ATOM     22  C   UNL d   1      55.353  -0.290  33.437  0.00  0.00     0.045 C 
ENDBRANCH  17  20
ENDBRANCH   2  14
TORSDOF 5
ENDMDL
MODEL 2
REMARK VINA RESULT:      -3.6      1.548      2.161
REMARK  5 active torsions:
REMARK  status: ('A' for Active; 'I' for Inactive)
REMARK    1  A    between atoms: N_8  and  C_2 
REMARK    2  A    between atoms: C_6  and  C_5 
REMARK    3  A    between atoms: C_7  and  C_6 
REMARK       I    between atoms: N_9  and  C_7 
REMARK    4  A    between atoms: C_18  and  N_9 
REMARK    5  A    between atoms: C_11  and  C_12 
ROOT
ATOM      1  C   UNL d   1      57.262  -0.845  31.401  0.00  0.00     0.280 C 
ATOM      2  N   UNL d   1      57.041  -1.201  32.120  0.00  0.00    -0.208 NA
ATOM      3  O   UNL d   1      56.993  -0.092  31.215  0.00  0.00    -0.265 OA
ENDROOT
BRANCH   1   4
ATOM      4  C   UNL d   1      57.748  -1.253  30.884  0.00  0.00     0.074 C 
BRANCH   4   5
ATOM      5  C   UNL d   1      58.238  -0.841  30.363  0.00  0.00     0.093 A 
ATOM      6  C   UNL d   1      58.335  -1.016  29.563  0.00  0.00     0.272 A 
ATOM      7  N   UNL d   1      58.869  -0.475  29.245  0.00  0.00    -0.251 N 
ATOM      8  O   UNL d   1      57.968  -1.623  29.140  0.00  0.00    -0.266 OA
ATOM      9  C   UNL d   1      59.106   0.040  29.855  0.00  0.00     0.182 A 
ATOM     10  C   UNL d   1      59.132  -0.438  28.465  0.00  0.00     0.104 C 
ATOM     11  S   UNL d   1      58.710  -0.197  30.538  0.00  0.00    -0.045 SA
BRANCH   9  12
ATOM     12  N   UNL d   1      59.638   0.667  29.782  0.00  0.00    -0.219 NA
ATOM     13  C   UNL d   1      60.330   0.682  30.227  0.00  0.00     0.122 C 
ENDBRANCH   9  12
ENDBRANCH   4   5
ENDBRANCH   1   4
BRANCH   2  14
ATOM     14  C   UNL d   1      56.552  -0.792  32.641  0.00  0.00     0.085 A 
ATOM     15  C   UNL d   1      56.877  -0.259  33.196  0.00  0.00     0.019 A 
ATOM     16  C   UNL d   1      56.382   0.148  33.717  0.00  0.00     0.005 A 
ATOM     17  C   UNL d   1      55.561   0.029  33.690  0.00  0.00     0.039 A 
ATOM     18  C   UNL d   1      55.240  -0.497  33.142  0.00  0.00     0.005 A 
ATOM     19  C   UNL d   1      55.738  -0.908  32.616  0.00  0.00     0.019 A 
BRANCH  17  20
ATOM     20  C   UNL d   1      55.071   0.435  34.209  0.00  0.00     0.196 C 
ATOM     21  O   UNL d   1      54.295   0.613  33.993  0.00  0.00    -0.287 OA
ATOM     22  C   UNL d   1      55.357   0.666  34.948  0.00  0.00     0.045 C 
ENDBRANCH  17  20
ENDBRANCH   2  14
TORSDOF 5
ENDMDL
MODEL 3
REMARK VINA RESULT:      -2.1      1.717      4.775
REMARK  5 active torsions:
REMARK  status: ('A' for Active; 'I' for Inactive)
REMARK    1  A    between atoms: N_8  and  C_2 
REMARK    2  A    between atoms: C_6  and  C_5 
REMARK    3  A    between atoms: C_7  and  C_6 
REMARK       I    between atoms: N_9  and  C_7 
REMARK    4  A    between atoms: C_18  and  N_9 
REMARK    5  A    between atoms: C_11  and  C_12 
ROOT
ATOM      1  C   UNL d   1      58.083  -0.872  30.235  0.00  0.00     0.280 C 
ATOM      2  N   UNL d   1      58.668  -0.871  29.643  0.00  0.00    -0.208 NA
ATOM      3  O   UNL d   1      57.820  -1.582  30.553  0.00  0.00    -0.265 OA
ENDROOT
BRANCH   1   4
ATOM      4  C   UNL d   1      57.774  -0.159  30.495  0.00  0.00     0.074 C 
BRANCH   4   5
ATOM      5  C   UNL d   1      57.439  -0.102  31.246  0.00  0.00     0.093 A 
ATOM      6  C   UNL d   1      57.777   0.285  31.890  0.00  0.00     0.272 A 
ATOM      7  N   UNL d   1      57.265   0.212  32.532  0.00  0.00    -0.251 N 
ATOM      8  O   UNL d   1      58.501   0.682  31.906  0.00  0.00    -0.266 OA
ATOM      9  C   UNL d   1      56.603  -0.226  32.283  0.00  0.00     0.182 A 
ATOM     10  C   UNL d   1      57.376   0.513  33.291  0.00  0.00     0.104 C 
ATOM     11  S   UNL d   1      56.722  -0.413  31.489  0.00  0.00    -0.045 SA
BRANCH   9  12
ATOM     12  N   UNL d   1      55.952  -0.430  32.748  0.00  0.00    -0.219 NA
ATOM     13  C   UNL d   1      55.809  -1.217  32.943  0.00  0.00     0.122 C 
ENDBRANCH   9  12
ENDBRANCH   4   5
ENDBRANCH   1   4
BRANCH   2  14
ATOM     14  C   UNL d   1      58.980  -1.586  29.380  0.00  0.00     0.085 A 
ATOM     15  C   UNL d   1      59.778  -1.637  29.142  0.00  0.00     0.019 A 
ATOM     16  C   UNL d   1      60.086  -2.357  28.879  0.00  0.00     0.005 A 
ATOM     17  C   UNL d   1      59.603  -3.032  28.851  0.00  0.00     0.039 A 
ATOM     18  C   UNL d   1      58.813  -2.981  29.087  0.00  0.00     0.005 A 
ATOM     19  C   UNL d   1      58.502  -2.256  29.352  0.00  0.00     0.019 A 
BRANCH  17  20
ATOM     20  C   UNL d   1      59.911  -3.747  28.589  0.00  0.00     0.196 C 
ATOM     21  O   UNL d   1      60.721  -3.825  28.455  0.00  0.00    -0.287 OA
ATOM     22  C   UNL d   1      59.407  -4.388  28.460  0.00  0.00     0.045 C 
ENDBRANCH  17  20
ENDBRANCH   2  14
TORSDOF 5
ENDMDL
