MODEL 1
REMARK VINA RESULT:       1.3      0.000      0.000
REMARK  6 active torsions:
REMARK  status: ('A' for Active; 'I' for Inactive)
REMARK    1  A    between atoms: N_5  and  C_1 
REMARK    2  A    between atoms: N_7  and  C_2 
REMARK    3  A    between atoms: C_8  and  N_3 
REMARK    4  A    between atoms: C_18  and  C_8 
REMARK    5  A    between atoms: C_14  and  N_9 
REMARK    6  A    between atoms: C_19  and  C_14 
ROOT
ATOM      1  C   UNL d   1     -42.955-121.916 -51.568  0.00  0.00     0.242 A 
ATOM      2  C   UNL d   1     -42.246-122.334 -51.630  0.00  0.00     0.175 A 
ATOM      3  N   UNL d   1     -41.979-122.266 -52.419  0.00  0.00    -0.274 N 
ATOM      4  N   UNL d   1     -43.131-121.587 -52.315  0.00  0.00    -0.203 NA
ATOM      5  C   UNL d   1     -42.523-121.810 -52.830  0.00  0.00     0.151 A 
ATOM      6  C   UNL d   1     -42.472-121.607 -53.628  0.00  0.00     0.041 C 
ENDROOT
BRANCH   2   7
ATOM      7  N   UNL d   1     -41.991-122.695 -50.937  0.00  0.00    -0.285 N 
ATOM      8  C   UNL d   1     -41.435-122.322 -50.450  0.00  0.00     0.101 A 
ATOM      9  C   UNL d   1     -41.186-122.696 -49.753  0.00  0.00     0.100 A 
ATOM     10  N   UNL d   1     -41.486-123.429 -49.547  0.00  0.00    -0.300 N 
ATOM     11  C   UNL d   1     -42.041-123.801 -50.035  0.00  0.00     0.100 A 
ATOM     12  C   UNL d   1     -42.291-123.436 -50.723  0.00  0.00     0.101 A 
BRANCH  10  13
ATOM     13  C   UNL d   1     -41.233-123.800 -48.848  0.00  0.00     0.080 C 
BRANCH  13  14
ATOM     14  C   UNL d   1     -41.563-123.589 -48.130  0.00  0.00     0.018 A 
ATOM     15  C   UNL d   1     -41.124-123.146 -47.586  0.00  0.00     0.002 A 
ATOM     16  C   UNL d   1     -41.450-122.932 -46.862  0.00  0.00     0.000 A 
ATOM     17  C   UNL d   1     -42.227-123.162 -46.677  0.00  0.00     0.000 A 
ATOM     18  C   UNL d   1     -42.666-123.605 -47.221  0.00  0.00     0.000 A 
ATOM     19  C   UNL d   1     -42.328-123.817 -47.950  0.00  0.00     0.002 A 
ENDBRANCH  13  14
ENDBRANCH  10  13
ENDBRANCH   2   7
BRANCH   1  20
ATOM     20  N   UNL d   1     -43.421-121.830 -50.886  0.00  0.00    -0.092 N 
ATOM     21  O   UNL d   1     -44.045-122.341 -50.743  0.00  0.00    -0.530 OA
ATOM     22  O   UNL d   1     -43.248-121.222 -50.351  0.00  0.00    -0.530 OA
ENDBRANCH   1  20
BRANCH   3  23
ATOM     23  C   UNL d   1     -41.288-122.603 -52.719  0.00  0.00     0.083 C 
BRANCH  23  24
ATOM     24  C   UNL d   1     -41.233-122.818 -53.512  0.00  0.00     0.018 A 
ATOM     25  C   UNL d   1     -41.179-122.228 -54.091  0.00  0.00     0.002 A 
ATOM     26  C   UNL d   1     -41.123-122.438 -54.892  0.00  0.00     0.000 A 
ATOM     27  C   UNL d   1     -41.122-123.231 -55.104  0.00  0.00     0.000 A 
ATOM     28  C   UNL d   1     -41.176-123.817 -54.532  0.00  0.00     0.000 A 
ATOM     29  C   UNL d   1     -41.232-123.607 -53.732  0.00  0.00     0.002 A 
ENDBRANCH  23  24
ENDBRANCH   3  23
TORSDOF 6
ENDMDL
MODEL 2
REMARK VINA RESULT:       3.9      0.965      1.327
REMARK  6 active torsions:
REMARK  status: ('A' for Active; 'I' for Inactive)
REMARK    1  A    between atoms: N_5  and  C_1 
REMARK    2  A    between atoms: N_7  and  C_2 
REMARK    3  A    between atoms: C_8  and  N_3 
REMARK    4  A    between atoms: C_18  and  C_8 
REMARK    5  A    between atoms: C_14  and  N_9 
REMARK    6  A    between atoms: C_19  and  C_14 
ROOT
ATOM      1  C   UNL d   1     -41.872-121.210 -52.197  0.00  0.00     0.242 A 
ATOM      2  C   UNL d   1     -41.621-121.991 -52.286  0.00  0.00     0.175 A 
ATOM      3  N   UNL d   1     -41.418-122.103 -53.088  0.00  0.00    -0.274 N 
ATOM      4  N   UNL d   1     -41.826-120.834 -52.941  0.00  0.00    -0.203 NA
ATOM      5  C   UNL d   1     -41.545-121.394 -53.481  0.00  0.00     0.151 A 
ATOM      6  C   UNL d   1     -41.413-121.262 -54.285  0.00  0.00     0.041 C 
ENDROOT
BRANCH   2   7
ATOM      7  N   UNL d   1     -41.633-122.442 -51.599  0.00  0.00    -0.285 N 
ATOM      8  C   UNL d   1     -41.123-122.265 -50.972  0.00  0.00     0.101 A 
ATOM      9  C   UNL d   1     -41.144-122.727 -50.284  0.00  0.00     0.100 A 
ATOM     10  N   UNL d   1     -41.665-123.355 -50.223  0.00  0.00    -0.300 N 
ATOM     11  C   UNL d   1     -42.175-123.531 -50.851  0.00  0.00     0.100 A 
ATOM     12  C   UNL d   1     -42.159-123.078 -51.531  0.00  0.00     0.101 A 
BRANCH  10  13
ATOM     13  C   UNL d   1     -41.684-123.816 -49.532  0.00  0.00     0.080 C 
BRANCH  13  14
ATOM     14  C   UNL d   1     -41.971-123.498 -48.835  0.00  0.00     0.018 A 
ATOM     15  C   UNL d   1     -42.757-123.242 -48.789  0.00  0.00     0.002 A 
ATOM     16  C   UNL d   1     -43.051-122.922 -48.091  0.00  0.00     0.000 A 
ATOM     17  C   UNL d   1     -42.555-122.856 -47.428  0.00  0.00     0.000 A 
ATOM     18  C   UNL d   1     -41.769-123.112 -47.474  0.00  0.00     0.000 A 
ATOM     19  C   UNL d   1     -41.481-123.435 -48.184  0.00  0.00     0.002 A 
ENDBRANCH  13  14
ENDBRANCH  10  13
ENDBRANCH   2   7
BRANCH   1  20
ATOM     20  N   UNL d   1     -42.129-120.849 -51.495  0.00  0.00    -0.092 N 
ATOM     21  O   UNL d   1     -41.593-120.470 -51.003  0.00  0.00    -0.530 OA
ATOM     22  O   UNL d   1     -42.932-120.875 -51.295  0.00  0.00    -0.530 OA
ENDBRANCH   1  20
BRANCH   3  23
ATOM     23  C   UNL d   1     -41.139-122.807 -53.415  0.00  0.00     0.083 C 
BRANCH  23  24
ATOM     24  C   UNL d   1     -41.506-123.143 -54.072  0.00  0.00     0.018 A 
ATOM     25  C   UNL d   1     -42.272-123.452 -53.996  0.00  0.00     0.002 A 
ATOM     26  C   UNL d   1     -42.647-123.791 -54.654  0.00  0.00     0.000 A 
ATOM     27  C   UNL d   1     -42.257-123.817 -55.375  0.00  0.00     0.000 A 
ATOM     28  C   UNL d   1     -41.499-123.511 -55.452  0.00  0.00     0.000 A 
ATOM     29  C   UNL d   1     -41.124-123.172 -54.794  0.00  0.00     0.002 A 
ENDBRANCH  23  24
ENDBRANCH   3  23
TORSDOF 6
ENDMDL
