MODEL 1
REMARK VINA RESULT:      -5.5      0.000      0.000
REMARK  6 active torsions:
REMARK  status: ('A' for Active; 'I' for Inactive)
REMARK    1  A    between atoms: C_10  and  C_1 
REMARK    2  A    between atoms: C_7  and  O_9 
REMARK       I    between atoms: N_12  and  C_7 
REMARK    3  A    between atoms: O_9  and  C_14 
REMARK    4  A    between atoms: C_24  and  N_12 
REMARK    5  A    between atoms: C_25  and  N_12 
REMARK    6  A    between atoms: O_23  and  C_20 
ROOT
ATOM      1  C   UNL d   1     -48.511  13.121  23.046  0.00  0.00     0.062 A 
ATOM      2  C   UNL d   1     -47.728  13.401  22.967  0.00  0.00     0.199 A 
ATOM      3  C   UNL d   1     -48.642  12.319  23.252  0.00  0.00     0.103 A 
ATOM      4  C   UNL d   1     -47.088  12.902  23.089  0.00  0.00     0.062 A 
ATOM      5  C   UNL d   1     -47.218  12.103  23.295  0.00  0.00     0.105 A 
ATOM      6  O   UNL d   1     -47.991  11.809  23.377  0.00  0.00    -0.307 OA
ATOM      7  C   UNL d   1     -46.572  11.595  23.420  0.00  0.00     0.050 A 
ATOM      8  C   UNL d   1     -46.306  13.173  23.013  0.00  0.00     0.007 A 
ATOM      9  O   UNL d   1     -47.602  14.192  22.763  0.00  0.00    -0.286 OA
ATOM     10  C   UNL d   1     -45.802  11.877  23.341  0.00  0.00     0.107 A 
ATOM     11  C   UNL d   1     -45.669  12.666  23.138  0.00  0.00     0.025 A 
ATOM     12  C   UNL d   1     -49.412  12.037  23.331  0.00  0.00     0.027 C 
ENDROOT
BRANCH   1  13
ATOM     13  C   UNL d   1     -49.148  13.625  22.922  0.00  0.00     0.005 A 
ATOM     14  C   UNL d   1     -49.405  14.124  23.534  0.00  0.00     0.002 A 
ATOM     15  C   UNL d   1     -50.044  14.628  23.410  0.00  0.00     0.024 A 
ATOM     16  C   UNL d   1     -50.427  14.637  22.681  0.00  0.00     0.094 A 
ATOM     17  C   UNL d   1     -50.169  14.136  22.066  0.00  0.00     0.024 A 
ATOM     18  C   UNL d   1     -49.533  13.635  22.192  0.00  0.00     0.002 A 
BRANCH  16  19
ATOM     19  O   UNL d   1     -51.064  15.139  22.554  0.00  0.00    -0.328 OA
ATOM     20  C   UNL d   1     -51.042  15.917  22.823  0.00  0.00     0.181 C 
ENDBRANCH  16  19
ENDBRANCH   1  13
BRANCH  10  21
ATOM     21  O   UNL d   1     -45.164  11.369  23.465  0.00  0.00    -0.259 OA
BRANCH  21  22
ATOM     22  C   UNL d   1     -44.502  11.415  22.978  0.00  0.00     0.377 C 
ATOM     23  N   UNL d   1     -43.870  10.898  23.093  0.00  0.00    -0.252 N 
ATOM     24  O   UNL d   1     -44.470  11.979  22.374  0.00  0.00    -0.237 OA
BRANCH  23  25
ATOM     25  C   UNL d   1     -43.898  10.331  23.698  0.00  0.00     0.085 C 
ATOM     26  C   UNL d   1     -43.644   9.556  23.567  0.00  0.00     0.021 C 
ENDBRANCH  23  25
BRANCH  23  27
ATOM     27  C   UNL d   1     -43.204  10.943  22.604  0.00  0.00     0.085 C 
ATOM     28  C   UNL d   1     -42.540  11.389  22.842  0.00  0.00     0.021 C 
ENDBRANCH  23  27
ENDBRANCH  21  22
ENDBRANCH  10  21
TORSDOF 6
ENDMDL
MODEL 2
REMARK VINA RESULT:      -4.0      8.093     10.215
REMARK  6 active torsions:
REMARK  status: ('A' for Active; 'I' for Inactive)
REMARK    1  A    between atoms: C_10  and  C_1 
REMARK    2  A    between atoms: C_7  and  O_9 
REMARK       I    between atoms: N_12  and  C_7 
REMARK    3  A    between atoms: O_9  and  C_14 
REMARK    4  A    between atoms: C_24  and  N_12 
REMARK    5  A    between atoms: C_25  and  N_12 
REMARK    6  A    between atoms: O_23  and  C_20 
ROOT
ATOM      1  C   UNL d   1     -38.887  14.667  17.766  0.00  0.00     0.062 A 
ATOM      2  C   UNL d   1     -39.440  14.213  18.198  0.00  0.00     0.199 A 
ATOM      3  C   UNL d   1     -38.486  15.298  18.146  0.00  0.00     0.103 A 
ATOM      4  C   UNL d   1     -39.593  14.378  18.987  0.00  0.00     0.062 A 
ATOM      5  C   UNL d   1     -39.194  15.006  19.366  0.00  0.00     0.105 A 
ATOM      6  O   UNL d   1     -38.641  15.466  18.950  0.00  0.00    -0.307 OA
ATOM      7  C   UNL d   1     -39.347  15.175  20.165  0.00  0.00     0.050 A 
ATOM      8  C   UNL d   1     -40.141  13.931  19.424  0.00  0.00     0.007 A 
ATOM      9  O   UNL d   1     -39.833  13.593  17.821  0.00  0.00    -0.286 OA
ATOM     10  C   UNL d   1     -39.893  14.725  20.587  0.00  0.00     0.107 A 
ATOM     11  C   UNL d   1     -40.290  14.103  20.216  0.00  0.00     0.025 A 
ATOM     12  C   UNL d   1     -37.940  15.748  17.724  0.00  0.00     0.027 C 
ENDROOT
BRANCH   1  13
ATOM     13  C   UNL d   1     -38.737  14.498  16.976  0.00  0.00     0.005 A 
ATOM     14  C   UNL d   1     -38.199  13.898  16.776  0.00  0.00     0.002 A 
ATOM     15  C   UNL d   1     -38.048  13.730  15.985  0.00  0.00     0.024 A 
ATOM     16  C   UNL d   1     -38.431  14.156  15.392  0.00  0.00     0.094 A 
ATOM     17  C   UNL d   1     -38.971  14.758  15.592  0.00  0.00     0.024 A 
ATOM     18  C   UNL d   1     -39.119  14.924  16.382  0.00  0.00     0.002 A 
BRANCH  16  19
ATOM     19  O   UNL d   1     -38.283  13.990  14.602  0.00  0.00    -0.328 OA
ATOM     20  C   UNL d   1     -37.964  14.568  14.108  0.00  0.00     0.181 C 
ENDBRANCH  16  19
ENDBRANCH   1  13
BRANCH  10  21
ATOM     21  O   UNL d   1     -40.042  14.896  21.380  0.00  0.00    -0.259 OA
BRANCH  21  22
ATOM     22  C   UNL d   1     -39.741  14.405  21.969  0.00  0.00     0.377 C 
ATOM     23  N   UNL d   1     -39.294  14.727  22.583  0.00  0.00    -0.252 N 
ATOM     24  O   UNL d   1     -39.886  13.593  21.945  0.00  0.00    -0.237 OA
BRANCH  23  25
ATOM     25  C   UNL d   1     -39.146  15.544  22.611  0.00  0.00     0.085 C 
ATOM     26  C   UNL d   1     -38.976  15.922  23.324  0.00  0.00     0.021 C 
ENDBRANCH  23  25
BRANCH  23  27
ATOM     27  C   UNL d   1     -38.991  14.236  23.176  0.00  0.00     0.085 C 
ATOM     28  C   UNL d   1     -38.166  14.157  23.271  0.00  0.00     0.021 C 
ENDBRANCH  23  27
ENDBRANCH  21  22
ENDBRANCH  10  21
TORSDOF 6
ENDMDL
MODEL 3
REMARK VINA RESULT:      -3.7      1.914      2.783
REMARK  6 active torsions:
REMARK  status: ('A' for Active; 'I' for Inactive)
REMARK    1  A    between atoms: C_10  and  C_1 
REMARK    2  A    between atoms: C_7  and  O_9 
REMARK       I    between atoms: N_12  and  C_7 
REMARK    3  A    between atoms: O_9  and  C_14 
REMARK    4  A    between atoms: C_24  and  N_12 
REMARK    5  A    between atoms: C_25  and  N_12 
REMARK    6  A    between atoms: O_23  and  C_20 
ROOT
ATOM      1  C   UNL d   1     -47.385  12.805  22.578  0.00  0.00     0.062 A 
ATOM      2  C   UNL d   1     -46.730  12.297  22.687  0.00  0.00     0.199 A 
ATOM      3  C   UNL d   1     -47.259  13.581  22.285  0.00  0.00     0.103 A 
ATOM      4  C   UNL d   1     -45.969  12.548  22.510  0.00  0.00     0.062 A 
ATOM      5  C   UNL d   1     -45.845  13.320  22.218  0.00  0.00     0.105 A 
ATOM      6  O   UNL d   1     -46.484  13.838  22.105  0.00  0.00    -0.307 OA
ATOM      7  C   UNL d   1     -45.075  13.578  22.038  0.00  0.00     0.050 A 
ATOM      8  C   UNL d   1     -45.314  12.049  22.615  0.00  0.00     0.007 A 
ATOM      9  O   UNL d   1     -46.858  11.534  22.975  0.00  0.00    -0.286 OA
ATOM     10  C   UNL d   1     -44.433  13.073  22.147  0.00  0.00     0.107 A 
ATOM     11  C   UNL d   1     -44.552  12.308  22.435  0.00  0.00     0.025 A 
ATOM     12  C   UNL d   1     -47.901  14.086  22.176  0.00  0.00     0.027 C 
ENDROOT
BRANCH   1  13
ATOM     13  C   UNL d   1     -48.145  12.549  22.757  0.00  0.00     0.005 A 
ATOM     14  C   UNL d   1     -48.452  12.665  23.519  0.00  0.00     0.002 A 
ATOM     15  C   UNL d   1     -49.213  12.409  23.697  0.00  0.00     0.024 A 
ATOM     16  C   UNL d   1     -49.670  12.038  23.120  0.00  0.00     0.094 A 
ATOM     17  C   UNL d   1     -49.362  11.922  22.354  0.00  0.00     0.024 A 
ATOM     18  C   UNL d   1     -48.603  12.178  22.180  0.00  0.00     0.002 A 
BRANCH  16  19
ATOM     19  O   UNL d   1     -50.430  11.782  23.295  0.00  0.00    -0.328 OA
ATOM     20  C   UNL d   1     -51.064  12.308  23.267  0.00  0.00     0.181 C 
ENDBRANCH  16  19
ENDBRANCH   1  13
BRANCH  10  21
ATOM     21  O   UNL d   1     -43.671  13.332  21.967  0.00  0.00    -0.259 OA
BRANCH  21  22
ATOM     22  C   UNL d   1     -43.319  13.110  21.256  0.00  0.00     0.377 C 
ATOM     23  N   UNL d   1     -42.602  13.449  21.029  0.00  0.00    -0.252 N 
ATOM     24  O   UNL d   1     -43.683  12.550  20.771  0.00  0.00    -0.237 OA
BRANCH  23  25
ATOM     25  C   UNL d   1     -42.232  14.012  21.514  0.00  0.00     0.085 C 
ATOM     26  C   UNL d   1     -41.423  14.161  21.453  0.00  0.00     0.021 C 
ENDBRANCH  23  25
BRANCH  23  27
ATOM     27  C   UNL d   1     -42.247  13.227  20.315  0.00  0.00     0.085 C 
ATOM     28  C   UNL d   1     -41.706  13.740  19.941  0.00  0.00     0.021 C 
ENDBRANCH  23  27
ENDBRANCH  21  22
ENDBRANCH  10  21
TORSDOF 6
ENDMDL
MODEL 4
REMARK VINA RESULT:      -3.0      2.373      3.723
REMARK  6 active torsions:
REMARK  status: ('A' for Active; 'I' for Inactive)
REMARK    1  A    between atoms: C_10  and  C_1 
REMARK    2  A    between atoms: C_7  and  O_9 
REMARK       I    between atoms: N_12  and  C_7 
REMARK    3  A    between atoms: O_9  and  C_14 
REMARK    4  A    between atoms: C_24  and  N_12 
REMARK    5  A    between atoms: C_25  and  N_12 
REMARK    6  A    between atoms: O_23  and  C_20 
ROOT
ATOM      1  C   UNL d   1     -46.057  12.989  22.498  0.00  0.00     0.062 A 
ATOM      2  C   UNL d   1     -45.434  12.450  22.359  0.00  0.00     0.199 A 
ATOM      3  C   UNL d   1     -45.914  13.812  22.416  0.00  0.00     0.103 A 
ATOM      4  C   UNL d   1     -44.688  12.714  22.145  0.00  0.00     0.062 A 
ATOM      5  C   UNL d   1     -44.546  13.533  22.064  0.00  0.00     0.105 A 
ATOM      6  O   UNL d   1     -45.154  14.083  22.198  0.00  0.00    -0.307 OA
ATOM      7  C   UNL d   1     -43.791  13.806  21.847  0.00  0.00     0.050 A 
ATOM      8  C   UNL d   1     -44.064  12.184  22.006  0.00  0.00     0.007 A 
ATOM      9  O   UNL d   1     -45.579  11.640  22.441  0.00  0.00    -0.286 OA
ATOM     10  C   UNL d   1     -43.180  13.269  21.712  0.00  0.00     0.107 A 
ATOM     11  C   UNL d   1     -43.317  12.458  21.791  0.00  0.00     0.025 A 
ATOM     12  C   UNL d   1     -46.525  14.348  22.552  0.00  0.00     0.027 C 
ENDROOT
BRANCH   1  13
ATOM     13  C   UNL d   1     -46.803  12.719  22.712  0.00  0.00     0.005 A 
ATOM     14  C   UNL d   1     -47.421  12.727  22.157  0.00  0.00     0.002 A 
ATOM     15  C   UNL d   1     -48.167  12.457  22.372  0.00  0.00     0.024 A 
ATOM     16  C   UNL d   1     -48.302  12.179  23.136  0.00  0.00     0.094 A 
ATOM     17  C   UNL d   1     -47.682  12.170  23.693  0.00  0.00     0.024 A 
ATOM     18  C   UNL d   1     -46.939  12.440  23.477  0.00  0.00     0.002 A 
BRANCH  16  19
ATOM     19  O   UNL d   1     -49.046  11.908  23.354  0.00  0.00    -0.328 OA
ATOM     20  C   UNL d   1     -49.694  12.418  23.343  0.00  0.00     0.181 C 
ENDBRANCH  16  19
ENDBRANCH   1  13
BRANCH  10  21
ATOM     21  O   UNL d   1     -42.433  13.542  21.497  0.00  0.00    -0.259 OA
BRANCH  21  22
ATOM     22  C   UNL d   1     -42.179  13.474  20.716  0.00  0.00     0.377 C 
ATOM     23  N   UNL d   1     -41.514  13.891  20.462  0.00  0.00    -0.252 N 
ATOM     24  O   UNL d   1     -42.591  12.990  20.188  0.00  0.00    -0.237 OA
BRANCH  23  25
ATOM     25  C   UNL d   1     -41.098  14.378  20.990  0.00  0.00     0.085 C 
ATOM     26  C   UNL d   1     -40.276  14.438  20.955  0.00  0.00     0.021 C 
ENDBRANCH  23  25
BRANCH  23  27
ATOM     27  C   UNL d   1     -41.259  13.824  19.678  0.00  0.00     0.085 C 
ATOM     28  C   UNL d   1     -41.095  14.509  19.232  0.00  0.00     0.021 C 
ENDBRANCH  23  27
ENDBRANCH  21  22
ENDBRANCH  10  21
TORSDOF 6
ENDMDL
