MODEL 1
REMARK VINA RESULT:      -9.3      0.000      0.000
REMARK  3 active torsions:
REMARK  status: ('A' for Active; 'I' for Inactive)
REMARK    1  A    between atoms: C_9  and  N_1 
REMARK    2  A    between atoms: C_8  and  C_3 
REMARK    3  A    between atoms: C_17  and  C_9 
ROOT
ATOM      1  N   UNL d   1      52.875  33.601  53.454  0.00  0.00    -0.269 N 
ATOM      2  N   UNL d   1      53.551  33.300  54.568  0.00  0.00    -0.204 NA
ATOM      3  C   UNL d   1      53.221  33.919  54.134  0.00  0.00     0.174 A 
ATOM      4  C   UNL d   1      52.993  32.784  53.468  0.00  0.00     0.185 A 
ATOM      5  C   UNL d   1      53.412  32.595  54.160  0.00  0.00     0.199 A 
ATOM      6  N   UNL d   1      52.774  32.185  52.945  0.00  0.00    -0.224 NA
ATOM      7  N   UNL d   1      53.609  31.818  54.322  0.00  0.00    -0.223 NA
ATOM      8  C   UNL d   1      52.976  31.398  53.115  0.00  0.00     0.101 A 
ATOM      9  C   UNL d   1      53.395  31.218  53.806  0.00  0.00     0.101 A 
ATOM     10  C   UNL d   1      52.758  30.793  52.591  0.00  0.00     0.021 A 
ATOM     11  C   UNL d   1      53.591  30.441  53.969  0.00  0.00     0.021 A 
ATOM     12  C   UNL d   1      52.959  30.017  52.762  0.00  0.00     0.002 A 
ATOM     13  C   UNL d   1      53.377  29.840  53.452  0.00  0.00     0.002 A 
ENDROOT
BRANCH   1  14
ATOM     14  C   UNL d   1      52.484  34.017  52.865  0.00  0.00     0.108 C 
BRANCH  14  15
ATOM     15  C   UNL d   1      51.663  33.977  52.817  0.00  0.00     0.118 A 
ATOM     16  O   UNL d   1      51.148  33.760  53.426  0.00  0.00    -0.304 OA
ATOM     17  C   UNL d   1      50.378  33.797  53.137  0.00  0.00     0.123 A 
ATOM     18  C   UNL d   1      50.413  34.036  52.350  0.00  0.00     0.029 A 
ATOM     19  C   UNL d   1      51.205  34.147  52.152  0.00  0.00     0.028 A 
ENDBRANCH  14  15
ENDBRANCH   1  14
BRANCH   3  20
ATOM     20  C   UNL d   1      53.237  34.712  54.347  0.00  0.00     0.135 A 
ATOM     21  O   UNL d   1      52.853  35.026  55.016  0.00  0.00    -0.302 OA
ATOM     22  C   UNL d   1      53.022  35.906  55.024  0.00  0.00     0.123 A 
ATOM     23  C   UNL d   1      53.511  36.090  54.345  0.00  0.00     0.029 A 
ATOM     24  C   UNL d   1      53.647  35.335  53.917  0.00  0.00     0.030 A 
ENDBRANCH   3  20
TORSDOF 3
ENDMDL
MODEL 2
REMARK VINA RESULT:      -9.2      1.522      4.115
REMARK  3 active torsions:
REMARK  status: ('A' for Active; 'I' for Inactive)
REMARK    1  A    between atoms: C_9  and  N_1 
REMARK    2  A    between atoms: C_8  and  C_3 
REMARK    3  A    between atoms: C_17  and  C_9 
ROOT
ATOM      1  N   UNL d   1      53.192  31.964  53.427  0.00  0.00    -0.269 N 
ATOM      2  N   UNL d   1      52.037  31.299  53.310  0.00  0.00    -0.204 NA
ATOM      3  C   UNL d   1      52.846  31.213  53.450  0.00  0.00     0.174 A 
ATOM      4  C   UNL d   1      52.595  32.513  53.274  0.00  0.00     0.185 A 
ATOM      5  C   UNL d   1      51.877  32.101  53.201  0.00  0.00     0.199 A 
ATOM      6  N   UNL d   1      52.607  33.334  53.190  0.00  0.00    -0.224 NA
ATOM      7  N   UNL d   1      51.184  32.507  53.047  0.00  0.00    -0.223 NA
ATOM      8  C   UNL d   1      51.900  33.740  53.034  0.00  0.00     0.101 A 
ATOM      9  C   UNL d   1      51.189  33.323  52.962  0.00  0.00     0.101 A 
ATOM     10  C   UNL d   1      51.909  34.565  52.949  0.00  0.00     0.021 A 
ATOM     11  C   UNL d   1      50.496  33.729  52.808  0.00  0.00     0.021 A 
ATOM     12  C   UNL d   1      51.209  34.964  52.795  0.00  0.00     0.002 A 
ATOM     13  C   UNL d   1      50.501  34.545  52.724  0.00  0.00     0.002 A 
ENDROOT
BRANCH   1  14
ATOM     14  C   UNL d   1      53.985  32.139  53.537  0.00  0.00     0.108 C 
BRANCH  14  15
ATOM     15  C   UNL d   1      54.220  32.563  54.203  0.00  0.00     0.118 A 
ATOM     16  O   UNL d   1      53.936  32.460  54.972  0.00  0.00    -0.304 OA
ATOM     17  C   UNL d   1      54.320  32.997  55.462  0.00  0.00     0.123 A 
ATOM     18  C   UNL d   1      54.842  33.435  55.000  0.00  0.00     0.029 A 
ATOM     19  C   UNL d   1      54.780  33.167  54.224  0.00  0.00     0.028 A 
ENDBRANCH  14  15
ENDBRANCH   1  14
BRANCH   3  20
ATOM     20  C   UNL d   1      53.234  30.502  53.587  0.00  0.00     0.135 A 
ATOM     21  O   UNL d   1      53.884  30.229  53.143  0.00  0.00    -0.302 OA
ATOM     22  C   UNL d   1      54.121  29.438  53.489  0.00  0.00     0.123 A 
ATOM     23  C   UNL d   1      53.594  29.262  54.141  0.00  0.00     0.029 A 
ATOM     24  C   UNL d   1      53.033  29.936  54.203  0.00  0.00     0.030 A 
ENDBRANCH   3  20
TORSDOF 3
ENDMDL
MODEL 3
REMARK VINA RESULT:      -8.7      1.395      2.705
REMARK  3 active torsions:
REMARK  status: ('A' for Active; 'I' for Inactive)
REMARK    1  A    between atoms: C_9  and  N_1 
REMARK    2  A    between atoms: C_8  and  C_3 
REMARK    3  A    between atoms: C_17  and  C_9 
ROOT
ATOM      1  N   UNL d   1      52.801  32.503  53.753  0.00  0.00    -0.269 N 
ATOM      2  N   UNL d   1      52.305  32.033  52.604  0.00  0.00    -0.204 NA
ATOM      3  C   UNL d   1      52.428  32.717  53.047  0.00  0.00     0.174 A 
ATOM      4  C   UNL d   1      52.908  31.684  53.745  0.00  0.00     0.185 A 
ATOM      5  C   UNL d   1      52.600  31.390  53.031  0.00  0.00     0.199 A 
ATOM      6  N   UNL d   1      53.244  31.164  54.291  0.00  0.00    -0.224 NA
ATOM      7  N   UNL d   1      52.629  30.589  52.870  0.00  0.00    -0.223 NA
ATOM      8  C   UNL d   1      53.271  30.353  54.121  0.00  0.00     0.101 A 
ATOM      9  C   UNL d   1      52.962  30.068  53.408  0.00  0.00     0.101 A 
ATOM     10  C   UNL d   1      53.608  29.828  54.668  0.00  0.00     0.021 A 
ATOM     11  C   UNL d   1      52.991  29.266  53.246  0.00  0.00     0.021 A 
ATOM     12  C   UNL d   1      53.633  29.026  54.497  0.00  0.00     0.002 A 
ATOM     13  C   UNL d   1      53.324  28.745  53.785  0.00  0.00     0.002 A 
ENDROOT
BRANCH   1  14
ATOM     14  C   UNL d   1      53.028  33.007  54.358  0.00  0.00     0.108 C 
BRANCH  14  15
ATOM     15  C   UNL d   1      53.827  33.164  54.479  0.00  0.00     0.118 A 
ATOM     16  O   UNL d   1      54.421  33.144  53.905  0.00  0.00    -0.304 OA
ATOM     17  C   UNL d   1      55.135  33.335  54.266  0.00  0.00     0.123 A 
ATOM     18  C   UNL d   1      54.987  33.474  55.064  0.00  0.00     0.029 A 
ATOM     19  C   UNL d   1      54.181  33.368  55.196  0.00  0.00     0.028 A 
ENDBRANCH  14  15
ENDBRANCH   1  14
BRANCH   3  20
ATOM     20  C   UNL d   1      52.215  33.478  52.821  0.00  0.00     0.135 A 
ATOM     21  O   UNL d   1      52.648  33.946  52.285  0.00  0.00    -0.302 OA
ATOM     22  C   UNL d   1      52.210  34.724  52.208  0.00  0.00     0.123 A 
ATOM     23  C   UNL d   1      51.517  34.692  52.711  0.00  0.00     0.029 A 
ATOM     24  C   UNL d   1      51.520  33.903  53.099  0.00  0.00     0.030 A 
ENDBRANCH   3  20
TORSDOF 3
ENDMDL
MODEL 4
REMARK VINA RESULT:      -8.5      1.342      3.281
REMARK  3 active torsions:
REMARK  status: ('A' for Active; 'I' for Inactive)
REMARK    1  A    between atoms: C_9  and  N_1 
REMARK    2  A    between atoms: C_8  and  C_3 
REMARK    3  A    between atoms: C_17  and  C_9 
ROOT
ATOM      1  N   UNL d   1      52.051  33.384  53.448  0.00  0.00    -0.269 N 
ATOM      2  N   UNL d   1      52.344  34.674  53.251  0.00  0.00    -0.204 NA
ATOM      3  C   UNL d   1      51.816  34.072  53.054  0.00  0.00     0.174 A 
ATOM      4  C   UNL d   1      52.725  33.563  53.889  0.00  0.00     0.185 A 
ATOM      5  C   UNL d   1      52.909  34.364  53.768  0.00  0.00     0.199 A 
ATOM      6  N   UNL d   1      53.199  33.105  54.386  0.00  0.00    -0.224 NA
ATOM      7  N   UNL d   1      53.556  34.699  54.140  0.00  0.00    -0.223 NA
ATOM      8  C   UNL d   1      53.854  33.450  54.760  0.00  0.00     0.101 A 
ATOM      9  C   UNL d   1      54.030  34.250  54.635  0.00  0.00     0.101 A 
ATOM     10  C   UNL d   1      54.332  32.992  55.260  0.00  0.00     0.021 A 
ATOM     11  C   UNL d   1      54.677  34.584  55.006  0.00  0.00     0.021 A 
ATOM     12  C   UNL d   1      54.979  33.336  55.629  0.00  0.00     0.002 A 
ATOM     13  C   UNL d   1      55.152  34.134  55.501  0.00  0.00     0.002 A 
ENDROOT
BRANCH   1  14
ATOM     14  C   UNL d   1      51.685  32.651  53.411  0.00  0.00     0.108 C 
BRANCH  14  15
ATOM     15  C   UNL d   1      52.094  32.008  53.099  0.00  0.00     0.118 A 
ATOM     16  O   UNL d   1      52.609  32.023  52.454  0.00  0.00    -0.304 OA
ATOM     17  C   UNL d   1      52.893  31.261  52.333  0.00  0.00     0.123 A 
ATOM     18  C   UNL d   1      52.556  30.771  52.902  0.00  0.00     0.029 A 
ATOM     19  C   UNL d   1      52.063  31.231  53.374  0.00  0.00     0.028 A 
ENDBRANCH  14  15
ENDBRANCH   1  14
BRANCH   3  20
ATOM     20  C   UNL d   1      51.170  34.148  52.552  0.00  0.00     0.135 A 
ATOM     21  O   UNL d   1      51.220  34.150  51.721  0.00  0.00    -0.302 OA
ATOM     22  C   UNL d   1      50.384  34.246  51.410  0.00  0.00     0.123 A 
ATOM     23  C   UNL d   1      49.855  34.299  52.082  0.00  0.00     0.029 A 
ATOM     24  C   UNL d   1      50.352  34.238  52.804  0.00  0.00     0.030 A 
ENDBRANCH   3  20
TORSDOF 3
ENDMDL
MODEL 5
REMARK VINA RESULT:      -8.2      1.295      3.230
REMARK  3 active torsions:
REMARK  status: ('A' for Active; 'I' for Inactive)
REMARK    1  A    between atoms: C_9  and  N_1 
REMARK    2  A    between atoms: C_8  and  C_3 
REMARK    3  A    between atoms: C_17  and  C_9 
ROOT
ATOM      1  N   UNL d   1      53.054  33.364  53.546  0.00  0.00    -0.269 N 
ATOM      2  N   UNL d   1      52.662  34.324  54.390  0.00  0.00    -0.204 NA
ATOM      3  C   UNL d   1      53.258  33.777  54.232  0.00  0.00     0.174 A 
ATOM      4  C   UNL d   1      52.330  33.657  53.280  0.00  0.00     0.185 A 
ATOM      5  C   UNL d   1      52.084  34.254  53.803  0.00  0.00     0.199 A 
ATOM      6  N   UNL d   1      51.858  33.462  52.631  0.00  0.00    -0.224 NA
ATOM      7  N   UNL d   1      51.378  34.648  53.677  0.00  0.00    -0.223 NA
ATOM      8  C   UNL d   1      51.143  33.865  52.508  0.00  0.00     0.101 A 
ATOM      9  C   UNL d   1      50.905  34.459  53.034  0.00  0.00     0.101 A 
ATOM     10  C   UNL d   1      50.667  33.671  51.857  0.00  0.00     0.021 A 
ATOM     11  C   UNL d   1      50.200  34.852  52.908  0.00  0.00     0.021 A 
ATOM     12  C   UNL d   1      49.961  34.071  51.738  0.00  0.00     0.002 A 
ATOM     13  C   UNL d   1      49.727  34.663  52.265  0.00  0.00     0.002 A 
ENDROOT
BRANCH   1  14
ATOM     14  C   UNL d   1      53.488  32.768  53.187  0.00  0.00     0.108 C 
BRANCH  14  15
ATOM     15  C   UNL d   1      53.214  31.992  53.215  0.00  0.00     0.118 A 
ATOM     16  O   UNL d   1      52.848  31.626  53.860  0.00  0.00    -0.304 OA
ATOM     17  C   UNL d   1      52.665  30.853  53.648  0.00  0.00     0.123 A 
ATOM     18  C   UNL d   1      52.916  30.736  52.873  0.00  0.00     0.029 A 
ATOM     19  C   UNL d   1      53.254  31.437  52.606  0.00  0.00     0.028 A 
ENDBRANCH  14  15
ENDBRANCH   1  14
BRANCH   3  20
ATOM     20  C   UNL d   1      53.936  33.666  54.683  0.00  0.00     0.135 A 
ATOM     21  O   UNL d   1      53.952  33.276  55.418  0.00  0.00    -0.302 OA
ATOM     22  C   UNL d   1      54.802  33.288  55.700  0.00  0.00     0.123 A 
ATOM     23  C   UNL d   1      55.274  33.694  55.112  0.00  0.00     0.029 A 
ATOM     24  C   UNL d   1      54.726  33.934  54.468  0.00  0.00     0.030 A 
ENDBRANCH   3  20
TORSDOF 3
ENDMDL
MODEL 6
REMARK VINA RESULT:      -8.1      0.992      2.514
REMARK  3 active torsions:
REMARK  status: ('A' for Active; 'I' for Inactive)
REMARK    1  A    between atoms: C_9  and  N_1 
REMARK    2  A    between atoms: C_8  and  C_3 
REMARK    3  A    between atoms: C_17  and  C_9 
ROOT
ATOM      1  N   UNL d   1      51.801  33.647  52.925  0.00  0.00    -0.269 N 
ATOM      2  N   UNL d   1      50.855  32.703  52.982  0.00  0.00    -0.204 NA
ATOM      3  C   UNL d   1      50.985  33.514  52.896  0.00  0.00     0.174 A 
ATOM      4  C   UNL d   1      52.173  32.918  53.030  0.00  0.00     0.185 A 
ATOM      5  C   UNL d   1      51.587  32.331  53.065  0.00  0.00     0.199 A 
ATOM      6  N   UNL d   1      52.969  32.708  53.097  0.00  0.00    -0.224 NA
ATOM      7  N   UNL d   1      51.797  31.547  53.167  0.00  0.00    -0.223 NA
ATOM      8  C   UNL d   1      53.175  31.911  53.200  0.00  0.00     0.101 A 
ATOM      9  C   UNL d   1      52.585  31.331  53.235  0.00  0.00     0.101 A 
ATOM     10  C   UNL d   1      53.973  31.697  53.269  0.00  0.00     0.021 A 
ATOM     11  C   UNL d   1      52.794  30.547  53.337  0.00  0.00     0.021 A 
ATOM     12  C   UNL d   1      54.174  30.909  53.371  0.00  0.00     0.002 A 
ATOM     13  C   UNL d   1      53.583  30.333  53.405  0.00  0.00     0.002 A 
ENDROOT
BRANCH   1  14
ATOM     14  C   UNL d   1      52.179  34.372  52.862  0.00  0.00     0.108 C 
BRANCH  14  15
ATOM     15  C   UNL d   1      52.549  34.696  53.523  0.00  0.00     0.118 A 
ATOM     16  O   UNL d   1      52.330  34.580  54.311  0.00  0.00    -0.304 OA
ATOM     17  C   UNL d   1      52.849  35.006  54.787  0.00  0.00     0.123 A 
ATOM     18  C   UNL d   1      53.390  35.386  54.297  0.00  0.00     0.029 A 
ATOM     19  C   UNL d   1      53.205  35.196  53.518  0.00  0.00     0.028 A 
ENDBRANCH  14  15
ENDBRANCH   1  14
BRANCH   3  20
ATOM     20  C   UNL d   1      50.402  34.083  52.799  0.00  0.00     0.135 A 
ATOM     21  O   UNL d   1      49.991  34.447  53.425  0.00  0.00    -0.302 OA
ATOM     22  C   UNL d   1      49.414  35.025  53.057  0.00  0.00     0.123 A 
ATOM     23  C   UNL d   1      49.502  34.986  52.206  0.00  0.00     0.029 A 
ATOM     24  C   UNL d   1      50.127  34.390  52.042  0.00  0.00     0.030 A 
ENDBRANCH   3  20
TORSDOF 3
ENDMDL
MODEL 7
REMARK VINA RESULT:      -7.1      1.334      3.585
REMARK  3 active torsions:
REMARK  status: ('A' for Active; 'I' for Inactive)
REMARK    1  A    between atoms: C_9  and  N_1 
REMARK    2  A    between atoms: C_8  and  C_3 
REMARK    3  A    between atoms: C_17  and  C_9 
ROOT
ATOM      1  N   UNL d   1      53.132  32.112  53.325  0.00  0.00    -0.269 N 
ATOM      2  N   UNL d   1      53.803  31.363  54.206  0.00  0.00    -0.204 NA
ATOM      3  C   UNL d   1      53.295  31.335  53.557  0.00  0.00     0.174 A 
ATOM      4  C   UNL d   1      53.540  32.618  53.832  0.00  0.00     0.185 A 
ATOM      5  C   UNL d   1      53.958  32.156  54.380  0.00  0.00     0.199 A 
ATOM      6  N   UNL d   1      53.589  33.442  53.869  0.00  0.00    -0.224 NA
ATOM      7  N   UNL d   1      54.417  32.513  54.956  0.00  0.00    -0.223 NA
ATOM      8  C   UNL d   1      54.056  33.798  54.455  0.00  0.00     0.101 A 
ATOM      9  C   UNL d   1      54.470  33.330  54.998  0.00  0.00     0.101 A 
ATOM     10  C   UNL d   1      54.107  34.625  54.496  0.00  0.00     0.021 A 
ATOM     11  C   UNL d   1      54.928  33.687  55.574  0.00  0.00     0.021 A 
ATOM     12  C   UNL d   1      54.570  34.975  55.076  0.00  0.00     0.002 A 
ATOM     13  C   UNL d   1      54.981  34.504  55.616  0.00  0.00     0.002 A 
ENDROOT
BRANCH   1  14
ATOM     14  C   UNL d   1      52.650  32.344  52.703  0.00  0.00     0.108 C 
BRANCH  14  15
ATOM     15  C   UNL d   1      51.964  32.771  52.857  0.00  0.00     0.118 A 
ATOM     16  O   UNL d   1      51.393  32.589  53.427  0.00  0.00    -0.304 OA
ATOM     17  C   UNL d   1      50.803  33.161  53.392  0.00  0.00     0.123 A 
ATOM     18  C   UNL d   1      51.005  33.699  52.802  0.00  0.00     0.029 A 
ATOM     19  C   UNL d   1      51.720  33.459  52.472  0.00  0.00     0.028 A 
ENDBRANCH  14  15
ENDBRANCH   1  14
BRANCH   3  20
ATOM     20  C   UNL d   1      53.005  30.651  53.207  0.00  0.00     0.135 A 
ATOM     21  O   UNL d   1      53.090  30.464  52.400  0.00  0.00    -0.302 OA
ATOM     22  C   UNL d   1      52.690  29.673  52.273  0.00  0.00     0.123 A 
ATOM     23  C   UNL d   1      52.373  29.409  53.024  0.00  0.00     0.029 A 
ATOM     24  C   UNL d   1      52.572  30.028  53.615  0.00  0.00     0.030 A 
ENDBRANCH   3  20
TORSDOF 3
ENDMDL
MODEL 8
REMARK VINA RESULT:      -6.6      1.290      3.821
REMARK  3 active torsions:
REMARK  status: ('A' for Active; 'I' for Inactive)
REMARK    1  A    between atoms: C_9  and  N_1 
REMARK    2  A    between atoms: C_8  and  C_3 
REMARK    3  A    between atoms: C_17  and  C_9 
ROOT
ATOM      1  N   UNL d   1      52.237  33.643  53.563  0.00  0.00    -0.269 N 
ATOM      2  N   UNL d   1      52.192  32.995  52.394  0.00  0.00    -0.204 NA
ATOM      3  C   UNL d   1      52.635  33.100  53.083  0.00  0.00     0.174 A 
ATOM      4  C   UNL d   1      51.549  33.873  53.170  0.00  0.00     0.185 A 
ATOM      5  C   UNL d   1      51.519  33.471  52.443  0.00  0.00     0.199 A 
ATOM      6  N   UNL d   1      50.943  34.395  53.374  0.00  0.00    -0.224 NA
ATOM      7  N   UNL d   1      50.893  33.591  51.932  0.00  0.00    -0.223 NA
ATOM      8  C   UNL d   1      50.310  34.512  52.851  0.00  0.00     0.101 A 
ATOM      9  C   UNL d   1      50.288  34.108  52.129  0.00  0.00     0.101 A 
ATOM     10  C   UNL d   1      49.699  35.036  53.054  0.00  0.00     0.021 A 
ATOM     11  C   UNL d   1      49.661  34.229  51.617  0.00  0.00     0.021 A 
ATOM     12  C   UNL d   1      49.075  35.151  52.535  0.00  0.00     0.002 A 
ATOM     13  C   UNL d   1      49.056  34.746  51.815  0.00  0.00     0.002 A 
ENDROOT
BRANCH   1  14
ATOM     14  C   UNL d   1      52.478  33.910  54.300  0.00  0.00     0.108 C 
BRANCH  14  15
ATOM     15  C   UNL d   1      52.776  34.674  54.378  0.00  0.00     0.118 A 
ATOM     16  O   UNL d   1      53.097  35.137  53.773  0.00  0.00    -0.304 OA
ATOM     17  C   UNL d   1      53.326  35.858  54.095  0.00  0.00     0.123 A 
ATOM     18  C   UNL d   1      53.149  35.845  54.899  0.00  0.00     0.029 A 
ATOM     19  C   UNL d   1      52.810  35.115  55.074  0.00  0.00     0.028 A 
ENDBRANCH  14  15
ENDBRANCH   1  14
BRANCH   3  20
ATOM     20  C   UNL d   1      53.346  32.727  53.255  0.00  0.00     0.135 A 
ATOM     21  O   UNL d   1      54.086  32.969  52.960  0.00  0.00    -0.302 OA
ATOM     22  C   UNL d   1      54.696  32.403  53.293  0.00  0.00     0.123 A 
ATOM     23  C   UNL d   1      54.290  31.831  53.785  0.00  0.00     0.029 A 
ATOM     24  C   UNL d   1      53.435  32.036  53.761  0.00  0.00     0.030 A 
ENDBRANCH   3  20
TORSDOF 3
ENDMDL
