MODEL 1
REMARK VINA RESULT:      17.6      0.000      0.000
REMARK  0 active torsions:
REMARK  status: ('A' for Active; 'I' for Inactive)
ROOT
ATOM      1  C   UNL d   1      13.644  12.098  -2.536  0.00  0.00     0.180 A 
ATOM      2  C   UNL d   1      13.821  12.891  -2.711  0.00  0.00     0.118 A 
ATOM      3  N   UNL d   1      14.229  13.354  -2.173  0.00  0.00    -0.241 NA
ATOM      4  N   UNL d   1      13.234  11.779  -3.177  0.00  0.00    -0.225 NA
ATOM      5  N   UNL d   1      13.884  11.781  -1.814  0.00  0.00    -0.224 NA
ATOM      6  C   UNL d   1      13.516  13.054  -3.463  0.00  0.00     0.038 A 
ATOM      7  C   UNL d   1      13.153  12.370  -3.753  0.00  0.00     0.085 A 
ATOM      8  C   UNL d   1      14.465  13.030  -1.455  0.00  0.00     0.099 A 
ATOM      9  C   UNL d   1      14.292  12.244  -1.277  0.00  0.00     0.101 A 
ATOM     10  C   UNL d   1      13.523  13.744  -3.921  0.00  0.00     0.003 A 
ATOM     11  C   UNL d   1      12.794  12.369  -4.505  0.00  0.00     0.019 A 
ATOM     12  C   UNL d   1      14.875  13.489  -0.910  0.00  0.00     0.021 A 
ATOM     13  C   UNL d   1      14.529  11.925  -0.560  0.00  0.00     0.021 A 
ATOM     14  C   UNL d   1      13.166  13.741  -4.670  0.00  0.00     0.000 A 
ATOM     15  C   UNL d   1      12.803  13.058  -4.960  0.00  0.00     0.002 A 
ATOM     16  C   UNL d   1      15.113  13.170  -0.193  0.00  0.00     0.002 A 
ATOM     17  C   UNL d   1      14.939  12.384  -0.016  0.00  0.00     0.002 A 
ENDROOT
TORSDOF 0
ENDMDL
