MODEL 1
REMARK VINA RESULT:      26.5      0.000      0.000
REMARK  3 active torsions:
REMARK  status: ('A' for Active; 'I' for Inactive)
REMARK    1  A    between atoms: C_7  and  N_1 
REMARK    2  A    between atoms: C_2  and  C_5 
REMARK    3  A    between atoms: N_3  and  C_2 
REMARK       I    between atoms: C_6  and  N_4 
ROOT
ATOM      1  C   UNL d   1      15.298  13.182  -0.456  0.00  0.00     0.120 C 
ATOM      2  S   UNL d   1      15.979  12.828  -0.150  0.00  0.00    -0.059 SA
ENDROOT
BRANCH   1   3
ATOM      3  C   UNL d   1      14.641  12.713  -0.657  0.00  0.00     0.028 A 
ATOM      4  C   UNL d   1      14.494  12.528  -1.450  0.00  0.00     0.026 A 
ATOM      5  C   UNL d   1      13.844  12.063  -1.652  0.00  0.00     0.127 A 
ATOM      6  C   UNL d   1      13.340  11.782  -1.062  0.00  0.00     0.024 A 
ATOM      7  C   UNL d   1      13.487  11.966  -0.269  0.00  0.00     0.002 A 
ATOM      8  C   UNL d   1      14.138  12.432  -0.066  0.00  0.00     0.002 A 
BRANCH   5   9
ATOM      9  N   UNL d   1      13.692  11.876  -2.443  0.00  0.00    -0.114 N 
ATOM     10  O   UNL d   1      12.919  11.780  -2.718  0.00  0.00    -0.532 OA
ATOM     11  O   UNL d   1      14.331  11.786  -2.958  0.00  0.00    -0.532 OA
ENDBRANCH   5   9
ENDBRANCH   1   3
BRANCH   1  12
ATOM     12  N   UNL d   1      15.270  14.000  -0.563  0.00  0.00    -0.293 N 
ATOM     13  C   UNL d   1      14.836  14.321  -1.192  0.00  0.00     0.100 A 
ATOM     14  C   UNL d   1      14.808  15.139  -1.299  0.00  0.00     0.102 A 
ATOM     15  N   UNL d   1      15.211  15.639  -0.778  0.00  0.00    -0.269 N 
ATOM     16  C   UNL d   1      15.644  15.318  -0.149  0.00  0.00     0.102 A 
ATOM     17  C   UNL d   1      15.182  16.456  -0.885  0.00  0.00     0.265 C 
ATOM     18  C   UNL d   1      15.673  14.501  -0.042  0.00  0.00     0.100 A 
ATOM     19  O   UNL d   1      15.585  16.956  -0.364  0.00  0.00    -0.267 OA
ATOM     20  C   UNL d   1      14.752  16.776  -1.509  0.00  0.00     0.066 C 
ENDBRANCH   1  12
TORSDOF 3
ENDMDL
