MODEL 1
REMARK VINA RESULT:     101.3      0.000      0.000
REMARK  5 active torsions:
REMARK  status: ('A' for Active; 'I' for Inactive)
REMARK    1  A    between atoms: N_10  and  C_4 
REMARK    2  A    between atoms: C_11  and  N_5 
REMARK    3  A    between atoms: C_14  and  N_10 
REMARK    4  A    between atoms: C_15  and  C_11 
REMARK    5  A    between atoms: C_18  and  C_14 
ROOT
ATOM      1  C   UNL d   1      60.697  47.483  50.014  0.00  0.00     0.191 A 
ATOM      2  C   UNL d   1      61.359  47.810  50.277  0.00  0.00     0.174 A 
ATOM      3  N   UNL d   1      60.010  47.885  50.008  0.00  0.00    -0.042 NA
ATOM      4  C   UNL d   1      60.002  48.623  50.273  0.00  0.00     0.722 A 
ATOM      5  N   UNL d   1      60.680  48.970  50.546  0.00  0.00    -0.132 N 
ATOM      6  N   UNL d   1      60.702  46.727  49.742  0.00  0.00    -0.239 N 
ATOM      7  C   UNL d   1      61.371  46.307  49.737  0.00  0.00     0.358 A 
ATOM      8  N   UNL d   1      62.045  46.639  50.004  0.00  0.00    -0.152 NA
ATOM      9  C   UNL d   1      62.041  47.388  50.273  0.00  0.00     0.303 A 
ATOM     10  O   UNL d   1      61.376  45.550  49.466  0.00  0.00    -0.244 OA
ATOM     11  O   UNL d   1      62.731  47.728  50.547  0.00  0.00    -0.263 OA
ATOM     12  C   UNL d   1      60.021  46.391  49.472  0.00  0.00     0.105 C 
ENDROOT
BRANCH   4  13
ATOM     13  N   UNL d   1      59.326  49.038  50.275  0.00  0.00    -0.137 N 
ATOM     14  C   UNL d   1      58.943  49.526  50.819  0.00  0.00     0.118 C 
BRANCH  13  15
ATOM     15  C   UNL d   1      58.836  49.031  49.615  0.00  0.00     0.098 C 
BRANCH  15  16
ATOM     16  C   UNL d   1      58.033  49.219  49.692  0.00  0.00     0.018 A 
ATOM     17  C   UNL d   1      57.562  49.288  49.011  0.00  0.00     0.002 A 
ATOM     18  C   UNL d   1      56.758  49.476  49.088  0.00  0.00     0.000 A 
ATOM     19  C   UNL d   1      56.432  49.594  49.840  0.00  0.00     0.000 A 
ATOM     20  C   UNL d   1      56.910  49.523  50.516  0.00  0.00     0.000 A 
ATOM     21  C   UNL d   1      57.713  49.335  50.439  0.00  0.00     0.002 A 
ENDBRANCH  15  16
ENDBRANCH  13  15
ENDBRANCH   4  13
BRANCH   5  22
ATOM     22  C   UNL d   1      61.077  49.619  50.867  0.00  0.00     0.098 C 
BRANCH  22  23
ATOM     23  C   UNL d   1      61.240  49.648  51.676  0.00  0.00     0.018 A 
ATOM     24  C   UNL d   1      60.615  49.655  52.205  0.00  0.00     0.002 A 
ATOM     25  C   UNL d   1      60.778  49.684  53.014  0.00  0.00     0.000 A 
ATOM     26  C   UNL d   1      60.322  49.700  53.700  0.00  0.00     0.000 C 
ATOM     27  C   UNL d   1      61.564  49.705  53.282  0.00  0.00     0.000 A 
ATOM     28  C   UNL d   1      62.180  49.696  52.731  0.00  0.00     0.000 A 
ATOM     29  C   UNL d   1      62.019  49.668  51.930  0.00  0.00     0.002 A 
ENDBRANCH  22  23
ENDBRANCH   5  22
TORSDOF 5
ENDMDL
