MODEL 1
REMARK VINA RESULT:      52.7      0.000      0.000
REMARK  5 active torsions:
REMARK  status: ('A' for Active; 'I' for Inactive)
REMARK    1  A    between atoms: N_6  and  C_1 
REMARK    2  A    between atoms: S_10  and  C_4 
REMARK       I    between atoms: C_7  and  N_6 
REMARK       I    between atoms: N_8  and  C_7 
REMARK    3  A    between atoms: C_11  and  N_8 
REMARK    4  A    between atoms: C_18  and  S_10 
REMARK    5  A    between atoms: C_19  and  C_18 
ROOT
ATOM      1  N   UNL d   1      61.073  47.799  50.343  0.00  0.00    -0.321 NA
ATOM      2  C   UNL d   1      61.563  47.333  50.133  0.00  0.00     0.422 C 
ATOM      3  N   UNL d   1      62.186  46.775  49.877  0.00  0.00    -0.180 NA
ATOM      4  O   UNL d   1      61.077  46.839  50.035  0.00  0.00    -0.228 OA
ENDROOT
BRANCH   1   5
ATOM      5  C   UNL d   1      60.608  48.481  50.619  0.00  0.00     0.271 A 
ATOM      6  S   UNL d   1      59.962  48.743  50.505  0.00  0.00    -0.006 SA
ATOM      7  C   UNL d   1      59.768  49.338  50.845  0.00  0.00     0.166 A 
ATOM      8  N   UNL d   1      60.215  49.659  51.289  0.00  0.00    -0.132 NA
ATOM      9  N   UNL d   1      61.055  48.802  51.063  0.00  0.00    -0.107 NA
BRANCH   7  10
ATOM     10  S   UNL d   1      59.146  49.707  50.819  0.00  0.00    -0.059 SA
BRANCH  10  11
ATOM     11  C   UNL d   1      58.485  49.371  50.465  0.00  0.00     0.037 C 
BRANCH  11  12
ATOM     12  C   UNL d   1      57.734  49.577  50.724  0.00  0.00     0.007 C 
ATOM     13  C   UNL d   1      57.086  49.488  50.230  0.00  0.00     0.001 C 
ENDBRANCH  11  12
ENDBRANCH  10  11
ENDBRANCH   7  10
ENDBRANCH   1   5
BRANCH   3  14
ATOM     14  C   UNL d   1      61.976  46.002  49.656  0.00  0.00     0.087 A 
ATOM     15  C   UNL d   1      62.382  45.627  49.041  0.00  0.00     0.022 A 
ATOM     16  C   UNL d   1      62.166  44.860  48.830  0.00  0.00     0.031 A 
ATOM     17  C   UNL d   1      61.555  44.467  49.221  0.00  0.00     0.140 A 
ATOM     18  C   UNL d   1      61.153  44.848  49.834  0.00  0.00     0.031 A 
ATOM     19  F   UNL d   1      61.345  43.695  49.000  0.00  0.00    -0.204 F 
ATOM     20  C   UNL d   1      61.364  45.615  50.051  0.00  0.00     0.022 A 
ENDBRANCH   3  14
TORSDOF 5
ENDMDL
