MODEL 1
REMARK VINA RESULT:      13.3      0.000      0.000
REMARK  7 active torsions:
REMARK  status: ('A' for Active; 'I' for Inactive)
REMARK       I    between atoms: C_2  and  N_1 
REMARK    1  A    between atoms: C_3  and  N_1 
REMARK    2  A    between atoms: C_4  and  C_2 
REMARK    3  A    between atoms: N_9  and  C_3 
REMARK    4  A    between atoms: O_19  and  C_6 
REMARK    5  A    between atoms: C_7  and  C_18 
REMARK    6  A    between atoms: C_18  and  N_9 
REMARK    7  A    between atoms: O_20  and  C_12 
ROOT
ATOM      1  N   UNL d   1      44.936 -15.992  44.730  0.00  0.00    -0.179 NA
ATOM      2  C   UNL d   1      44.550 -15.261  44.771  0.00  0.00     0.281 C 
ATOM      3  O   UNL d   1      43.742 -15.226  44.952  0.00  0.00    -0.265 OA
ENDROOT
BRANCH   2   4
ATOM      4  C   UNL d   1      44.964 -14.561  44.631  0.00  0.00     0.060 A 
ATOM      5  C   UNL d   1      44.628 -13.959  44.174  0.00  0.00     0.031 A 
ATOM      6  C   UNL d   1      45.045 -13.260  44.036  0.00  0.00     0.116 A 
ATOM      7  C   UNL d   1      45.802 -13.165  44.358  0.00  0.00     0.116 A 
ATOM      8  C   UNL d   1      46.139 -13.767  44.816  0.00  0.00     0.026 A 
ATOM      9  C   UNL d   1      45.711 -14.463  44.947  0.00  0.00     0.007 A 
BRANCH   6  10
ATOM     10  O   UNL d   1      44.708 -12.658  43.578  0.00  0.00    -0.326 OA
ATOM     11  C   UNL d   1      44.381 -12.828  42.841  0.00  0.00     0.181 C 
ENDBRANCH   6  10
BRANCH   7  12
ATOM     12  O   UNL d   1      46.218 -12.461  44.218  0.00  0.00    -0.326 OA
ATOM     13  C   UNL d   1      46.165 -12.087  43.485  0.00  0.00     0.181 C 
ENDBRANCH   7  12
ENDBRANCH   2   4
BRANCH   1  14
ATOM     14  C   UNL d   1      45.738 -16.020  44.549  0.00  0.00     0.224 C 
ATOM     15  S   UNL d   1      46.310 -15.444  44.738  0.00  0.00    -0.037 SA
BRANCH  14  16
ATOM     16  N   UNL d   1      46.129 -16.633  44.142  0.00  0.00    -0.214 NA
BRANCH  16  17
ATOM     17  C   UNL d   1      46.101 -17.437  44.338  0.00  0.00     0.126 C 
BRANCH  17  18
ATOM     18  C   UNL d   1      46.265 -18.003  43.762  0.00  0.00     0.119 A 
ATOM     19  O   UNL d   1      46.458 -18.801  43.811  0.00  0.00    -0.304 OA
ATOM     20  C   UNL d   1      46.560 -19.083  43.045  0.00  0.00     0.123 A 
ATOM     21  C   UNL d   1      46.431 -18.459  42.525  0.00  0.00     0.029 A 
ATOM     22  C   UNL d   1      46.248 -17.791  42.965  0.00  0.00     0.028 A 
ENDBRANCH  17  18
ENDBRANCH  16  17
ENDBRANCH  14  16
ENDBRANCH   1  14
TORSDOF 7
ENDMDL
MODEL 2
REMARK VINA RESULT:      15.7      1.198      5.069
REMARK  7 active torsions:
REMARK  status: ('A' for Active; 'I' for Inactive)
REMARK       I    between atoms: C_2  and  N_1 
REMARK    1  A    between atoms: C_3  and  N_1 
REMARK    2  A    between atoms: C_4  and  C_2 
REMARK    3  A    between atoms: N_9  and  C_3 
REMARK    4  A    between atoms: O_19  and  C_6 
REMARK    5  A    between atoms: C_7  and  C_18 
REMARK    6  A    between atoms: C_18  and  N_9 
REMARK    7  A    between atoms: O_20  and  C_12 
ROOT
ATOM      1  N   UNL d   1      45.571 -16.611  42.978  0.00  0.00    -0.179 NA
ATOM      2  C   UNL d   1      45.621 -17.358  42.624  0.00  0.00     0.281 C 
ATOM      3  O   UNL d   1      45.416 -17.457  41.828  0.00  0.00    -0.265 OA
ENDROOT
BRANCH   2   4
ATOM      4  C   UNL d   1      45.877 -18.010  43.061  0.00  0.00     0.060 A 
ATOM      5  C   UNL d   1      46.134 -18.696  42.676  0.00  0.00     0.031 A 
ATOM      6  C   UNL d   1      46.389 -19.348  43.116  0.00  0.00     0.116 A 
ATOM      7  C   UNL d   1      46.385 -19.310  43.944  0.00  0.00     0.116 A 
ATOM      8  C   UNL d   1      46.127 -18.624  44.328  0.00  0.00     0.026 A 
ATOM      9  C   UNL d   1      45.874 -17.977  43.877  0.00  0.00     0.007 A 
BRANCH   6  10
ATOM     10  O   UNL d   1      46.647 -20.034  42.732  0.00  0.00    -0.326 OA
ATOM     11  C   UNL d   1      46.347 -20.234  41.990  0.00  0.00     0.181 C 
ENDBRANCH   6  10
BRANCH   7  12
ATOM     12  O   UNL d   1      46.642 -19.966  44.382  0.00  0.00    -0.326 OA
ATOM     13  C   UNL d   1      46.146 -20.309  44.945  0.00  0.00     0.181 C 
ENDBRANCH   7  12
ENDBRANCH   2   4
BRANCH   1  14
ATOM     14  C   UNL d   1      45.776 -16.520  43.769  0.00  0.00     0.224 C 
ATOM     15  S   UNL d   1      46.351 -16.955  44.186  0.00  0.00    -0.037 SA
BRANCH  14  16
ATOM     16  N   UNL d   1      45.444 -15.972  44.302  0.00  0.00    -0.214 NA
BRANCH  16  17
ATOM     17  C   UNL d   1      45.829 -15.310  44.616  0.00  0.00     0.126 C 
BRANCH  17  18
ATOM     18  C   UNL d   1      45.524 -14.557  44.476  0.00  0.00     0.119 A 
ATOM     19  O   UNL d   1      44.897 -14.293  44.015  0.00  0.00    -0.304 OA
ATOM     20  C   UNL d   1      44.854 -13.475  44.093  0.00  0.00     0.123 A 
ATOM     21  C   UNL d   1      45.454 -13.236  44.602  0.00  0.00     0.029 A 
ATOM     22  C   UNL d   1      45.870 -13.903  44.841  0.00  0.00     0.028 A 
ENDBRANCH  17  18
ENDBRANCH  16  17
ENDBRANCH  14  16
ENDBRANCH   1  14
TORSDOF 7
ENDMDL
