MODEL 1
REMARK VINA RESULT:      -4.6      0.000      0.000
REMARK  3 active torsions:
REMARK  status: ('A' for Active; 'I' for Inactive)
REMARK    1  A    between atoms: N_2  and  S_1 
REMARK    2  A    between atoms: C_3  and  S_1 
REMARK    3  A    between atoms: C_5  and  N_4 
ROOT
ATOM      1  N   UNL d   1     -42.009-122.909 -51.672  0.00  0.00    -0.226 N 
ATOM      2  N   UNL d   1     -42.228-123.036 -50.042  0.00  0.00    -0.301 N 
ATOM      3  C   UNL d   1     -41.689-123.559 -51.262  0.00  0.00     0.111 A 
ATOM      4  C   UNL d   1     -42.431-122.334 -51.267  0.00  0.00     0.111 A 
ATOM      5  C   UNL d   1     -42.541-122.398 -50.451  0.00  0.00     0.100 A 
ATOM      6  C   UNL d   1     -41.798-123.622 -50.447  0.00  0.00     0.100 A 
ENDROOT
BRANCH   1   7
ATOM      7  S   UNL d   1     -41.899-122.845 -52.488  0.00  0.00     0.271 S 
ATOM      8  O   UNL d   1     -42.039-123.653 -52.569  0.00  0.00    -0.200 OA
ATOM      9  O   UNL d   1     -41.759-122.035 -52.406  0.00  0.00    -0.200 OA
BRANCH   7  10
ATOM     10  C   UNL d   1     -41.790-122.782 -53.303  0.00  0.00     0.104 A 
ATOM     11  C   UNL d   1     -42.225-122.239 -53.736  0.00  0.00     0.015 A 
ATOM     12  C   UNL d   1     -42.116-122.175 -54.550  0.00  0.00     0.028 A 
ATOM     13  C   UNL d   1     -42.557-121.626 -54.984  0.00  0.00     0.002 C 
ATOM     14  C   UNL d   1     -41.571-122.655 -54.931  0.00  0.00     0.140 A 
ATOM     15  C   UNL d   1     -41.125-123.208 -54.498  0.00  0.00     0.030 A 
ATOM     16  F   UNL d   1     -41.461-122.591 -55.747  0.00  0.00    -0.204 F 
ATOM     17  C   UNL d   1     -41.235-123.271 -53.683  0.00  0.00     0.015 A 
ENDBRANCH   7  10
ENDBRANCH   1   7
BRANCH   2  18
ATOM     18  C   UNL d   1     -42.337-123.099 -49.231  0.00  0.00     0.064 A 
ATOM     19  C   UNL d   1     -41.788-122.775 -48.714  0.00  0.00     0.016 A 
ATOM     20  C   UNL d   1     -41.898-122.839 -47.899  0.00  0.00     0.001 A 
ATOM     21  C   UNL d   1     -41.123-122.384 -49.012  0.00  0.00     0.002 C 
ATOM     22  C   UNL d   1     -42.556-123.226 -47.602  0.00  0.00     0.000 A 
ATOM     23  C   UNL d   1     -43.117-123.557 -48.118  0.00  0.00     0.001 A 
ATOM     24  C   UNL d   1     -43.007-123.493 -48.934  0.00  0.00     0.016 A 
ATOM     25  C   UNL d   1     -43.557-123.817 -49.451  0.00  0.00     0.002 C 
ENDBRANCH   2  18
TORSDOF 3
ENDMDL
MODEL 2
REMARK VINA RESULT:      -4.3      1.957      5.035
REMARK  3 active torsions:
REMARK  status: ('A' for Active; 'I' for Inactive)
REMARK    1  A    between atoms: N_2  and  S_1 
REMARK    2  A    between atoms: C_3  and  S_1 
REMARK    3  A    between atoms: C_5  and  N_4 
ROOT
ATOM      1  N   UNL d   1     -41.739-122.902 -51.554  0.00  0.00    -0.226 N 
ATOM      2  N   UNL d   1     -41.740-122.630 -53.181  0.00  0.00    -0.301 N 
ATOM      3  C   UNL d   1     -42.293-123.293 -52.037  0.00  0.00     0.111 A 
ATOM      4  C   UNL d   1     -41.196-122.384 -51.886  0.00  0.00     0.111 A 
ATOM      5  C   UNL d   1     -41.197-122.248 -52.700  0.00  0.00     0.100 A 
ATOM      6  C   UNL d   1     -42.293-123.157 -52.851  0.00  0.00     0.100 A 
ENDROOT
BRANCH   1   7
ATOM      7  S   UNL d   1     -41.738-123.038 -50.740  0.00  0.00     0.271 S 
ATOM      8  O   UNL d   1     -42.266-123.662 -50.844  0.00  0.00    -0.200 OA
ATOM      9  O   UNL d   1     -41.209-122.412 -50.636  0.00  0.00    -0.200 OA
BRANCH   7  10
ATOM     10  C   UNL d   1     -41.737-123.174 -49.926  0.00  0.00     0.104 A 
ATOM     11  C   UNL d   1     -42.338-122.870 -49.457  0.00  0.00     0.015 A 
ATOM     12  C   UNL d   1     -42.337-123.006 -48.645  0.00  0.00     0.028 A 
ATOM     13  C   UNL d   1     -42.944-122.699 -48.175  0.00  0.00     0.002 C 
ATOM     14  C   UNL d   1     -41.736-123.445 -48.301  0.00  0.00     0.140 A 
ATOM     15  C   UNL d   1     -41.123-123.756 -48.771  0.00  0.00     0.030 A 
ATOM     16  F   UNL d   1     -41.735-123.581 -47.487  0.00  0.00    -0.204 F 
ATOM     17  C   UNL d   1     -41.124-123.620 -49.584  0.00  0.00     0.015 A 
ENDBRANCH   7  10
ENDBRANCH   1   7
BRANCH   2  18
ATOM     18  C   UNL d   1     -41.741-122.495 -53.991  0.00  0.00     0.064 A 
ATOM     19  C   UNL d   1     -41.434-123.057 -54.504  0.00  0.00     0.016 A 
ATOM     20  C   UNL d   1     -41.435-122.921 -55.318  0.00  0.00     0.001 A 
ATOM     21  C   UNL d   1     -41.124-123.763 -54.203  0.00  0.00     0.002 C 
ATOM     22  C   UNL d   1     -41.742-122.223 -55.616  0.00  0.00     0.000 A 
ATOM     23  C   UNL d   1     -42.055-121.648 -55.104  0.00  0.00     0.001 A 
ATOM     24  C   UNL d   1     -42.054-121.784 -54.291  0.00  0.00     0.016 A 
ATOM     25  C   UNL d   1     -42.361-121.221 -53.778  0.00  0.00     0.002 C 
ENDBRANCH   2  18
TORSDOF 3
ENDMDL
MODEL 3
REMARK VINA RESULT:      -4.0      0.222      1.247
REMARK  3 active torsions:
REMARK  status: ('A' for Active; 'I' for Inactive)
REMARK    1  A    between atoms: N_2  and  S_1 
REMARK    2  A    between atoms: C_3  and  S_1 
REMARK    3  A    between atoms: C_5  and  N_4 
ROOT
ATOM      1  N   UNL d   1     -41.957-122.734 -51.647  0.00  0.00    -0.226 N 
ATOM      2  N   UNL d   1     -42.149-122.881 -50.015  0.00  0.00    -0.301 N 
ATOM      3  C   UNL d   1     -42.542-122.288 -51.258  0.00  0.00     0.111 A 
ATOM      4  C   UNL d   1     -41.478-123.244 -51.219  0.00  0.00     0.111 A 
ATOM      5  C   UNL d   1     -41.574-123.318 -50.403  0.00  0.00     0.100 A 
ATOM      6  C   UNL d   1     -42.638-122.361 -50.442  0.00  0.00     0.100 A 
ENDROOT
BRANCH   1   7
ATOM      7  S   UNL d   1     -41.861-122.660 -52.463  0.00  0.00     0.271 S 
ATOM      8  O   UNL d   1     -41.633-121.874 -52.365  0.00  0.00    -0.200 OA
ATOM      9  O   UNL d   1     -42.089-123.448 -52.561  0.00  0.00    -0.200 OA
BRANCH   7  10
ATOM     10  C   UNL d   1     -41.765-122.586 -53.279  0.00  0.00     0.104 A 
ATOM     11  C   UNL d   1     -42.202-122.033 -53.697  0.00  0.00     0.015 A 
ATOM     12  C   UNL d   1     -42.106-121.960 -54.512  0.00  0.00     0.028 A 
ATOM     13  C   UNL d   1     -42.549-121.400 -54.931  0.00  0.00     0.002 C 
ATOM     14  C   UNL d   1     -41.573-122.439 -54.909  0.00  0.00     0.140 A 
ATOM     15  C   UNL d   1     -41.126-123.003 -54.491  0.00  0.00     0.030 A 
ATOM     16  F   UNL d   1     -41.477-122.366 -55.725  0.00  0.00    -0.204 F 
ATOM     17  C   UNL d   1     -41.222-123.076 -53.676  0.00  0.00     0.015 A 
ENDBRANCH   7  10
ENDBRANCH   1   7
BRANCH   2  18
ATOM     18  C   UNL d   1     -42.244-122.954 -49.203  0.00  0.00     0.064 A 
ATOM     19  C   UNL d   1     -42.848-123.420 -48.898  0.00  0.00     0.016 A 
ATOM     20  C   UNL d   1     -42.944-123.494 -48.082  0.00  0.00     0.001 A 
ATOM     21  C   UNL d   1     -43.361-123.817 -49.412  0.00  0.00     0.002 C 
ATOM     22  C   UNL d   1     -42.436-123.101 -47.573  0.00  0.00     0.000 A 
ATOM     23  C   UNL d   1     -41.822-122.628 -47.872  0.00  0.00     0.001 A 
ATOM     24  C   UNL d   1     -41.726-122.554 -48.688  0.00  0.00     0.016 A 
ATOM     25  C   UNL d   1     -41.123-122.088 -48.993  0.00  0.00     0.002 C 
ENDBRANCH   2  18
TORSDOF 3
ENDMDL
