MODEL 1
REMARK VINA RESULT:      74.9      0.000      0.000
REMARK  6 active torsions:
REMARK  status: ('A' for Active; 'I' for Inactive)
REMARK    1  A    between atoms: C_9  and  S_1 
REMARK    2  A    between atoms: N_10  and  S_1 
REMARK    3  A    between atoms: C_2  and  N_6 
REMARK       I    between atoms: N_6  and  C_8 
REMARK    4  A    between atoms: C_8  and  C_15 
REMARK    5  A    between atoms: O_24  and  C_13 
REMARK    6  A    between atoms: O_23  and  C_14 
ROOT
ATOM      1  N   UNL d   1     -54.714 -99.925 -44.668  0.00  0.00    -0.183 NA
ATOM      2  C   UNL d   1     -55.192 -99.299 -44.928  0.00  0.00     0.281 C 
ATOM      3  O   UNL d   1     -54.890 -98.761 -45.473  0.00  0.00    -0.265 OA
ENDROOT
BRANCH   1   4
ATOM      4  C   UNL d   1     -55.011-100.476 -44.115  0.00  0.00     0.197 A 
ATOM      5  N   UNL d   1     -55.496-101.120 -44.284  0.00  0.00    -0.218 NA
ATOM      6  C   UNL d   1     -55.652-101.510 -43.578  0.00  0.00     0.114 A 
ATOM      7  C   UNL d   1     -56.096-102.178 -43.399  0.00  0.00     0.112 A 
ATOM      8  C   UNL d   1     -55.263-101.106 -42.976  0.00  0.00     0.074 A 
ATOM      9  C   UNL d   1     -56.154-102.448 -42.622  0.00  0.00     0.028 A 
ATOM     10  C   UNL d   1     -55.758-102.035 -42.018  0.00  0.00     0.027 A 
ATOM     11  C   UNL d   1     -55.316-101.370 -42.194  0.00  0.00     0.102 A 
ATOM     12  S   UNL d   1     -54.865-100.464 -43.318  0.00  0.00    -0.045 SA
BRANCH   7  13
ATOM     13  O   UNL d   1     -56.494-102.594 -44.005  0.00  0.00    -0.327 OA
ATOM     14  C   UNL d   1     -56.226-102.544 -44.784  0.00  0.00     0.181 C 
ENDBRANCH   7  13
BRANCH  11  15
ATOM     15  O   UNL d   1     -54.917-100.954 -41.588  0.00  0.00    -0.328 OA
ATOM     16  C   UNL d   1     -54.711-101.343 -40.893  0.00  0.00     0.181 C 
ENDBRANCH  11  15
ENDBRANCH   1   4
BRANCH   2  17
ATOM     17  C   UNL d   1     -55.946 -99.230 -44.641  0.00  0.00     0.058 A 
ATOM     18  C   UNL d   1     -56.087 -98.916 -43.898  0.00  0.00     0.005 A 
ATOM     19  C   UNL d   1     -56.853 -98.846 -43.607  0.00  0.00     0.013 A 
ATOM     20  C   UNL d   1     -57.492 -99.097 -44.071  0.00  0.00     0.104 A 
ATOM     21  C   UNL d   1     -57.356 -99.416 -44.822  0.00  0.00     0.013 A 
ATOM     22  C   UNL d   1     -56.585 -99.481 -45.105  0.00  0.00     0.005 A 
BRANCH  20  23
ATOM     23  S   UNL d   1     -58.263 -99.029 -43.782  0.00  0.00     0.271 S 
ATOM     24  O   UNL d   1     -57.962 -98.887 -43.023  0.00  0.00    -0.200 OA
ATOM     25  O   UNL d   1     -58.555 -99.171 -44.539  0.00  0.00    -0.200 OA
BRANCH  23  26
ATOM     26  N   UNL d   1     -59.031 -98.962 -43.498  0.00  0.00    -0.226 N 
ATOM     27  C   UNL d   1     -59.166 -98.761 -42.716  0.00  0.00     0.111 C 
ATOM     28  C   UNL d   1     -59.666 -99.098 -44.005  0.00  0.00     0.111 C 
ENDBRANCH  23  26
ENDBRANCH  20  23
ENDBRANCH   2  17
TORSDOF 6
ENDMDL
