MODEL 1
REMARK VINA RESULT:      -5.8      0.000      0.000
REMARK  10 active torsions:
REMARK  status: ('A' for Active; 'I' for Inactive)
REMARK    1  A    between atoms: P_2  and  C_1 
REMARK    2  A    between atoms: N_3  and  C_1 
REMARK    3  A    between atoms: C_4  and  C_1 
REMARK    4  A    between atoms: O_9  and  P_2 
REMARK    5  A    between atoms: O_10  and  P_2 
REMARK       I    between atoms: C_5  and  N_3 
REMARK    6  A    between atoms: C_8  and  C_5 
REMARK    7  A    between atoms: C_16  and  O_9 
REMARK    8  A    between atoms: C_15  and  O_10 
REMARK    9  A    between atoms: C_18  and  C_15 
REMARK   10  A    between atoms: C_17  and  C_16 
ROOT
ATOM      1  C   UNL d   1      53.184  32.168  53.583  0.00  0.00     0.186 C 
ENDROOT
BRANCH   1   2
ATOM      2  P   UNL d   1      53.532  31.914  54.301  0.00  0.00     0.393 P 
ATOM      3  O   UNL d   1      53.869  31.645  55.004  0.00  0.00    -0.251 OA
BRANCH   2   4
ATOM      4  O   UNL d   1      53.277  31.149  54.129  0.00  0.00    -0.263 OA
BRANCH   4   5
ATOM      5  C   UNL d   1      53.388  30.546  54.689  0.00  0.00     0.126 C 
BRANCH   5   6
ATOM      6  C   UNL d   1      53.152  29.760  54.528  0.00  0.00     0.027 C 
ATOM      7  C   UNL d   1      53.320  28.990  54.949  0.00  0.00     0.002 C 
ENDBRANCH   5   6
ENDBRANCH   4   5
ENDBRANCH   2   4
BRANCH   2   8
ATOM      8  O   UNL d   1      53.791  32.661  54.487  0.00  0.00    -0.263 OA
BRANCH   8   9
ATOM      9  C   UNL d   1      54.251  32.772  55.155  0.00  0.00     0.126 C 
BRANCH   9  10
ATOM     10  C   UNL d   1      54.342  33.534  55.477  0.00  0.00     0.027 C 
ATOM     11  C   UNL d   1      55.101  33.677  55.573  0.00  0.00     0.002 C 
ENDBRANCH   9  10
ENDBRANCH   8   9
ENDBRANCH   2   8
ENDBRANCH   1   2
BRANCH   1  12
ATOM     12  N   UNL d   1      52.472  32.604  53.623  0.00  0.00    -0.199 NA
ATOM     13  C   UNL d   1      52.283  33.109  52.985  0.00  0.00     0.279 C 
ATOM     14  O   UNL d   1      52.774  33.176  52.348  0.00  0.00    -0.265 OA
BRANCH  13  15
ATOM     15  C   UNL d   1      51.603  33.549  52.982  0.00  0.00     0.058 A 
ATOM     16  C   UNL d   1      51.649  34.365  52.865  0.00  0.00     0.005 A 
ATOM     17  C   UNL d   1      50.958  34.806  52.863  0.00  0.00     0.000 A 
ATOM     18  C   UNL d   1      50.220  34.432  52.978  0.00  0.00     0.000 A 
ATOM     19  C   UNL d   1      50.174  33.629  53.094  0.00  0.00     0.000 A 
ATOM     20  C   UNL d   1      50.871  33.174  53.097  0.00  0.00     0.005 A 
ENDBRANCH  13  15
ENDBRANCH   1  12
BRANCH   1  21
ATOM     21  C   UNL d   1      53.530  31.997  52.868  0.00  0.00     0.140 C 
ATOM     22 CL   UNL d   1      53.132  31.505  52.434  0.00  0.00    -0.068 Cl
ATOM     23 CL   UNL d   1      54.294  32.361  52.641  0.00  0.00    -0.068 Cl
ENDBRANCH   1  21
TORSDOF 10
ENDMDL
MODEL 2
REMARK VINA RESULT:      -5.7      1.045      3.545
REMARK  10 active torsions:
REMARK  status: ('A' for Active; 'I' for Inactive)
REMARK    1  A    between atoms: P_2  and  C_1 
REMARK    2  A    between atoms: N_3  and  C_1 
REMARK    3  A    between atoms: C_4  and  C_1 
REMARK    4  A    between atoms: O_9  and  P_2 
REMARK    5  A    between atoms: O_10  and  P_2 
REMARK       I    between atoms: C_5  and  N_3 
REMARK    6  A    between atoms: C_8  and  C_5 
REMARK    7  A    between atoms: C_16  and  O_9 
REMARK    8  A    between atoms: C_15  and  O_10 
REMARK    9  A    between atoms: C_18  and  C_15 
REMARK   10  A    between atoms: C_17  and  C_16 
ROOT
ATOM      1  C   UNL d   1      53.509  32.650  53.618  0.00  0.00     0.186 C 
ENDROOT
BRANCH   1   2
ATOM      2  P   UNL d   1      53.145  33.277  54.036  0.00  0.00     0.393 P 
ATOM      3  O   UNL d   1      52.803  33.896  54.460  0.00  0.00    -0.251 OA
BRANCH   2   4
ATOM      4  O   UNL d   1      53.800  33.297  54.536  0.00  0.00    -0.263 OA
BRANCH   4   5
ATOM      5  C   UNL d   1      53.834  33.862  55.143  0.00  0.00     0.126 C 
BRANCH   5   6
ATOM      6  C   UNL d   1      54.396  33.798  55.760  0.00  0.00     0.027 C 
ATOM      7  C   UNL d   1      55.196  34.178  55.879  0.00  0.00     0.002 C 
ENDBRANCH   5   6
ENDBRANCH   4   5
ENDBRANCH   2   4
BRANCH   2   8
ATOM      8  O   UNL d   1      52.491  33.273  53.554  0.00  0.00    -0.263 OA
BRANCH   8   9
ATOM      9  C   UNL d   1      51.881  33.800  53.700  0.00  0.00     0.126 C 
BRANCH   9  10
ATOM     10  C   UNL d   1      51.136  33.681  53.349  0.00  0.00     0.027 C 
ATOM     11  C   UNL d   1      50.790  34.372  53.256  0.00  0.00     0.002 C 
ENDBRANCH   9  10
ENDBRANCH   8   9
ENDBRANCH   2   8
ENDBRANCH   1   2
BRANCH   1  12
ATOM     12  N   UNL d   1      53.350  31.867  53.866  0.00  0.00    -0.199 NA
ATOM     13  C   UNL d   1      53.278  31.275  53.280  0.00  0.00     0.279 C 
ATOM     14  O   UNL d   1      53.359  31.454  52.498  0.00  0.00    -0.265 OA
BRANCH  13  15
ATOM     15  C   UNL d   1      53.125  30.505  53.476  0.00  0.00     0.058 A 
ATOM     16  C   UNL d   1      52.503  30.109  53.106  0.00  0.00     0.005 A 
ATOM     17  C   UNL d   1      52.352  29.328  53.307  0.00  0.00     0.000 A 
ATOM     18  C   UNL d   1      52.823  28.943  53.880  0.00  0.00     0.000 A 
ATOM     19  C   UNL d   1      53.436  29.333  54.244  0.00  0.00     0.000 A 
ATOM     20  C   UNL d   1      53.595  30.124  54.045  0.00  0.00     0.005 A 
ENDBRANCH  13  15
ENDBRANCH   1  12
BRANCH   1  21
ATOM     21  C   UNL d   1      54.002  32.797  52.989  0.00  0.00     0.140 C 
ATOM     22 CL   UNL d   1      53.658  33.131  52.390  0.00  0.00    -0.068 Cl
ATOM     23 CL   UNL d   1      54.850  32.581  53.024  0.00  0.00    -0.068 Cl
ENDBRANCH   1  21
TORSDOF 10
ENDMDL
MODEL 3
REMARK VINA RESULT:      -5.7      1.259      3.449
REMARK  10 active torsions:
REMARK  status: ('A' for Active; 'I' for Inactive)
REMARK    1  A    between atoms: P_2  and  C_1 
REMARK    2  A    between atoms: N_3  and  C_1 
REMARK    3  A    between atoms: C_4  and  C_1 
REMARK    4  A    between atoms: O_9  and  P_2 
REMARK    5  A    between atoms: O_10  and  P_2 
REMARK       I    between atoms: C_5  and  N_3 
REMARK    6  A    between atoms: C_8  and  C_5 
REMARK    7  A    between atoms: C_16  and  O_9 
REMARK    8  A    between atoms: C_15  and  O_10 
REMARK    9  A    between atoms: C_18  and  C_15 
REMARK   10  A    between atoms: C_17  and  C_16 
ROOT
ATOM      1  C   UNL d   1      53.429  32.970  53.504  0.00  0.00     0.186 C 
ENDROOT
BRANCH   1   2
ATOM      2  P   UNL d   1      52.950  33.626  53.704  0.00  0.00     0.393 P 
ATOM      3  O   UNL d   1      52.467  34.270  53.885  0.00  0.00    -0.251 OA
BRANCH   2   4
ATOM      4  O   UNL d   1      52.521  33.498  53.012  0.00  0.00    -0.263 OA
BRANCH   4   5
ATOM      5  C   UNL d   1      51.854  33.966  52.851  0.00  0.00     0.126 C 
BRANCH   5   6
ATOM      6  C   UNL d   1      51.395  33.840  52.164  0.00  0.00     0.027 C 
ATOM      7  C   UNL d   1      50.620  34.193  51.892  0.00  0.00     0.002 C 
ENDBRANCH   5   6
ENDBRANCH   4   5
ENDBRANCH   2   4
BRANCH   2   8
ATOM      8  O   UNL d   1      53.361  33.769  54.390  0.00  0.00    -0.263 OA
BRANCH   8   9
ATOM      9  C   UNL d   1      53.151  34.407  54.860  0.00  0.00     0.126 C 
BRANCH   9  10
ATOM     10  C   UNL d   1      53.560  34.554  55.568  0.00  0.00     0.027 C 
ATOM     11  C   UNL d   1      53.351  35.254  55.837  0.00  0.00     0.002 C 
ENDBRANCH   9  10
ENDBRANCH   8   9
ENDBRANCH   2   8
ENDBRANCH   1   2
BRANCH   1  12
ATOM     12  N   UNL d   1      53.091  32.207  53.546  0.00  0.00    -0.199 NA
ATOM     13  C   UNL d   1      53.605  31.548  53.557  0.00  0.00     0.279 C 
ATOM     14  O   UNL d   1      54.405  31.646  53.528  0.00  0.00    -0.265 OA
BRANCH  13  15
ATOM     15  C   UNL d   1      53.320  30.791  53.598  0.00  0.00     0.058 A 
ATOM     16  C   UNL d   1      52.889  30.487  52.963  0.00  0.00     0.005 A 
ATOM     17  C   UNL d   1      52.602  29.720  53.008  0.00  0.00     0.000 A 
ATOM     18  C   UNL d   1      52.746  29.256  53.689  0.00  0.00     0.000 A 
ATOM     19  C   UNL d   1      53.171  29.556  54.313  0.00  0.00     0.000 A 
ATOM     20  C   UNL d   1      53.465  30.333  54.275  0.00  0.00     0.005 A 
ENDBRANCH  13  15
ENDBRANCH   1  12
BRANCH   1  21
ATOM     21  C   UNL d   1      54.203  33.072  53.275  0.00  0.00     0.140 C 
ATOM     22 CL   UNL d   1      54.295  33.208  52.526  0.00  0.00    -0.068 Cl
ATOM     23 CL   UNL d   1      54.853  33.025  53.860  0.00  0.00    -0.068 Cl
ENDBRANCH   1  21
TORSDOF 10
ENDMDL
MODEL 4
REMARK VINA RESULT:      -5.6      0.325      2.234
REMARK  10 active torsions:
REMARK  status: ('A' for Active; 'I' for Inactive)
REMARK    1  A    between atoms: P_2  and  C_1 
REMARK    2  A    between atoms: N_3  and  C_1 
REMARK    3  A    between atoms: C_4  and  C_1 
REMARK    4  A    between atoms: O_9  and  P_2 
REMARK    5  A    between atoms: O_10  and  P_2 
REMARK       I    between atoms: C_5  and  N_3 
REMARK    6  A    between atoms: C_8  and  C_5 
REMARK    7  A    between atoms: C_16  and  O_9 
REMARK    8  A    between atoms: C_15  and  O_10 
REMARK    9  A    between atoms: C_18  and  C_15 
REMARK   10  A    between atoms: C_17  and  C_16 
ROOT
ATOM      1  C   UNL d   1      53.355  32.235  53.587  0.00  0.00     0.186 C 
ENDROOT
BRANCH   1   2
ATOM      2  P   UNL d   1      53.583  31.893  54.316  0.00  0.00     0.393 P 
ATOM      3  O   UNL d   1      53.814  31.573  55.040  0.00  0.00    -0.251 OA
BRANCH   2   4
ATOM      4  O   UNL d   1      53.858  32.632  54.554  0.00  0.00    -0.263 OA
BRANCH   4   5
ATOM      5  C   UNL d   1      54.244  32.709  55.285  0.00  0.00     0.126 C 
BRANCH   5   6
ATOM      6  C   UNL d   1      54.457  33.461  55.582  0.00  0.00     0.027 C 
ATOM      7  C   UNL d   1      55.249  33.866  55.668  0.00  0.00     0.002 C 
ENDBRANCH   5   6
ENDBRANCH   4   5
ENDBRANCH   2   4
BRANCH   2   8
ATOM      8  O   UNL d   1      53.317  31.156  54.099  0.00  0.00    -0.263 OA
BRANCH   8   9
ATOM      9  C   UNL d   1      53.365  30.537  54.634  0.00  0.00     0.126 C 
BRANCH   9  10
ATOM     10  C   UNL d   1      53.056  29.791  54.437  0.00  0.00     0.027 C 
ATOM     11  C   UNL d   1      53.294  29.274  54.967  0.00  0.00     0.002 C 
ENDBRANCH   9  10
ENDBRANCH   8   9
ENDBRANCH   2   8
ENDBRANCH   1   2
BRANCH   1  12
ATOM     12  N   UNL d   1      52.729  32.788  53.590  0.00  0.00    -0.199 NA
ATOM     13  C   UNL d   1      52.229  32.821  52.920  0.00  0.00     0.279 C 
ATOM     14  O   UNL d   1      52.348  32.333  52.289  0.00  0.00    -0.265 OA
BRANCH  13  15
ATOM     15  C   UNL d   1      51.610  33.342  52.881  0.00  0.00     0.058 A 
ATOM     16  C   UNL d   1      50.924  33.188  53.312  0.00  0.00     0.005 A 
ATOM     17  C   UNL d   1      50.299  33.719  53.270  0.00  0.00     0.000 A 
ATOM     18  C   UNL d   1      50.362  34.404  52.795  0.00  0.00     0.000 A 
ATOM     19  C   UNL d   1      51.038  34.555  52.370  0.00  0.00     0.000 A 
ATOM     20  C   UNL d   1      51.675  34.022  52.409  0.00  0.00     0.005 A 
ENDBRANCH  13  15
ENDBRANCH   1  12
BRANCH   1  21
ATOM     21  C   UNL d   1      53.733  32.034  52.895  0.00  0.00     0.140 C 
ATOM     22 CL   UNL d   1      54.308  32.503  52.702  0.00  0.00    -0.068 Cl
ATOM     23 CL   UNL d   1      53.479  31.335  52.433  0.00  0.00    -0.068 Cl
ENDBRANCH   1  21
TORSDOF 10
ENDMDL
MODEL 5
REMARK VINA RESULT:      -4.9      1.817      3.991
REMARK  10 active torsions:
REMARK  status: ('A' for Active; 'I' for Inactive)
REMARK    1  A    between atoms: P_2  and  C_1 
REMARK    2  A    between atoms: N_3  and  C_1 
REMARK    3  A    between atoms: C_4  and  C_1 
REMARK    4  A    between atoms: O_9  and  P_2 
REMARK    5  A    between atoms: O_10  and  P_2 
REMARK       I    between atoms: C_5  and  N_3 
REMARK    6  A    between atoms: C_8  and  C_5 
REMARK    7  A    between atoms: C_16  and  O_9 
REMARK    8  A    between atoms: C_15  and  O_10 
REMARK    9  A    between atoms: C_18  and  C_15 
REMARK   10  A    between atoms: C_17  and  C_16 
ROOT
ATOM      1  C   UNL d   1      51.922  33.954  52.812  0.00  0.00     0.186 C 
ENDROOT
BRANCH   1   2
ATOM      2  P   UNL d   1      51.539  34.496  53.322  0.00  0.00     0.393 P 
ATOM      3  O   UNL d   1      51.178  35.033  53.833  0.00  0.00    -0.251 OA
BRANCH   2   4
ATOM      4  O   UNL d   1      52.268  34.649  53.673  0.00  0.00    -0.263 OA
BRANCH   4   5
ATOM      5  C   UNL d   1      52.300  35.106  54.366  0.00  0.00     0.126 C 
BRANCH   5   6
ATOM      6  C   UNL d   1      53.031  35.371  54.674  0.00  0.00     0.027 C 
ATOM      7  C   UNL d   1      53.460  35.183  55.435  0.00  0.00     0.002 C 
ENDBRANCH   5   6
ENDBRANCH   4   5
ENDBRANCH   2   4
BRANCH   2   8
ATOM      8  O   UNL d   1      50.811  34.357  52.987  0.00  0.00    -0.263 OA
BRANCH   8   9
ATOM      9  C   UNL d   1      50.165  34.794  53.237  0.00  0.00     0.126 C 
BRANCH   9  10
ATOM     10  C   UNL d   1      49.419  34.670  52.889  0.00  0.00     0.027 C 
ATOM     11  C   UNL d   1      48.955  35.268  53.072  0.00  0.00     0.002 C 
ENDBRANCH   9  10
ENDBRANCH   8   9
ENDBRANCH   2   8
ENDBRANCH   1   2
BRANCH   1  12
ATOM     12  N   UNL d   1      52.038  33.172  53.083  0.00  0.00    -0.199 NA
ATOM     13  C   UNL d   1      52.721  32.763  52.827  0.00  0.00     0.279 C 
ATOM     14  O   UNL d   1      53.253  33.114  52.332  0.00  0.00    -0.265 OA
BRANCH  13  15
ATOM     15  C   UNL d   1      52.872  32.004  53.065  0.00  0.00     0.058 A 
ATOM     16  C   UNL d   1      53.518  31.856  53.556  0.00  0.00     0.005 A 
ATOM     17  C   UNL d   1      53.668  31.085  53.795  0.00  0.00     0.000 A 
ATOM     18  C   UNL d   1      53.171  30.463  53.542  0.00  0.00     0.000 A 
ATOM     19  C   UNL d   1      52.535  30.609  53.057  0.00  0.00     0.000 A 
ATOM     20  C   UNL d   1      52.377  31.388  52.811  0.00  0.00     0.005 A 
ENDBRANCH  13  15
ENDBRANCH   1  12
BRANCH   1  21
ATOM     21  C   UNL d   1      52.175  34.183  52.073  0.00  0.00     0.140 C 
ATOM     22 CL   UNL d   1      51.739  33.925  51.497  0.00  0.00    -0.068 Cl
ATOM     23 CL   UNL d   1      52.889  34.681  51.979  0.00  0.00    -0.068 Cl
ENDBRANCH   1  21
TORSDOF 10
ENDMDL
MODEL 6
REMARK VINA RESULT:      -4.7      1.677      3.687
REMARK  10 active torsions:
REMARK  status: ('A' for Active; 'I' for Inactive)
REMARK    1  A    between atoms: P_2  and  C_1 
REMARK    2  A    between atoms: N_3  and  C_1 
REMARK    3  A    between atoms: C_4  and  C_1 
REMARK    4  A    between atoms: O_9  and  P_2 
REMARK    5  A    between atoms: O_10  and  P_2 
REMARK       I    between atoms: C_5  and  N_3 
REMARK    6  A    between atoms: C_8  and  C_5 
REMARK    7  A    between atoms: C_16  and  O_9 
REMARK    8  A    between atoms: C_15  and  O_10 
REMARK    9  A    between atoms: C_18  and  C_15 
REMARK   10  A    between atoms: C_17  and  C_16 
ROOT
ATOM      1  C   UNL d   1      52.573  33.873  53.114  0.00  0.00     0.186 C 
ENDROOT
BRANCH   1   2
ATOM      2  P   UNL d   1      51.907  33.373  53.029  0.00  0.00     0.393 P 
ATOM      3  O   UNL d   1      51.264  32.865  52.943  0.00  0.00    -0.251 OA
BRANCH   2   4
ATOM      4  O   UNL d   1      52.423  32.739  52.921  0.00  0.00    -0.263 OA
BRANCH   4   5
ATOM      5  C   UNL d   1      52.121  31.967  52.887  0.00  0.00     0.126 C 
BRANCH   5   6
ATOM      6  C   UNL d   1      52.621  31.315  52.731  0.00  0.00     0.027 C 
ATOM      7  C   UNL d   1      52.612  30.472  53.029  0.00  0.00     0.002 C 
ENDBRANCH   5   6
ENDBRANCH   4   5
ENDBRANCH   2   4
BRANCH   2   8
ATOM      8  O   UNL d   1      51.383  33.985  53.134  0.00  0.00    -0.263 OA
BRANCH   8   9
ATOM      9  C   UNL d   1      50.588  33.864  52.978  0.00  0.00     0.126 C 
BRANCH   9  10
ATOM     10  C   UNL d   1      50.030  34.442  53.192  0.00  0.00     0.027 C 
ATOM     11  C   UNL d   1      49.448  34.432  52.675  0.00  0.00     0.002 C 
ENDBRANCH   9  10
ENDBRANCH   8   9
ENDBRANCH   2   8
ENDBRANCH   1   2
BRANCH   1  12
ATOM     12  N   UNL d   1      53.193  33.622  53.615  0.00  0.00    -0.199 NA
ATOM     13  C   UNL d   1      53.484  34.163  54.183  0.00  0.00     0.279 C 
ATOM     14  O   UNL d   1      53.174  34.905  54.246  0.00  0.00    -0.265 OA
BRANCH  13  15
ATOM     15  C   UNL d   1      54.084  33.961  54.688  0.00  0.00     0.058 A 
ATOM     16  C   UNL d   1      53.900  33.644  55.428  0.00  0.00     0.005 A 
ATOM     17  C   UNL d   1      54.512  33.442  55.936  0.00  0.00     0.000 A 
ATOM     18  C   UNL d   1      55.307  33.557  55.705  0.00  0.00     0.000 A 
ATOM     19  C   UNL d   1      55.487  33.869  54.977  0.00  0.00     0.000 A 
ATOM     20  C   UNL d   1      54.873  34.076  54.456  0.00  0.00     0.005 A 
ENDBRANCH  13  15
ENDBRANCH   1  12
BRANCH   1  21
ATOM     21  C   UNL d   1      52.614  34.583  52.721  0.00  0.00     0.140 C 
ATOM     22 CL   UNL d   1      52.409  35.191  53.142  0.00  0.00    -0.068 Cl
ATOM     23 CL   UNL d   1      52.875  34.618  51.885  0.00  0.00    -0.068 Cl
ENDBRANCH   1  21
TORSDOF 10
ENDMDL
