MODEL 1
REMARK VINA RESULT:      -4.8      0.000      0.000
REMARK  4 active torsions:
REMARK  status: ('A' for Active; 'I' for Inactive)
REMARK       I    between atoms: C_3  and  N_1 
REMARK    1  A    between atoms: C_5  and  N_2 
REMARK    2  A    between atoms: C_4  and  C_3 
REMARK    3  A    between atoms: C_7  and  C_4 
REMARK    4  A    between atoms: C_13  and  C_7 
ROOT
ATOM      1  N   UNL d   1      57.573  -0.231  30.759  0.00  0.00    -0.269 N 
ATOM      2  N   UNL d   1      56.769   0.065  32.174  0.00  0.00    -0.301 N 
ATOM      3  C   UNL d   1      57.971  -0.367  30.055  0.00  0.00     0.265 C 
ATOM      4  C   UNL d   1      57.281   0.535  30.927  0.00  0.00     0.102 A 
ATOM      5  C   UNL d   1      57.456  -0.836  31.305  0.00  0.00     0.102 A 
ATOM      6  C   UNL d   1      56.879   0.682  31.636  0.00  0.00     0.100 A 
ATOM      7  C   UNL d   1      57.056  -0.695  32.012  0.00  0.00     0.100 A 
ATOM      8  O   UNL d   1      58.086   0.235  29.513  0.00  0.00    -0.267 OA
ENDROOT
BRANCH   3   9
ATOM      9  C   UNL d   1      58.261  -1.126  29.887  0.00  0.00     0.061 C 
BRANCH   9  10
ATOM     10  C   UNL d   1      58.685  -1.265  29.191  0.00  0.00     0.005 C 
BRANCH  10  11
ATOM     11  C   UNL d   1      59.061  -1.985  29.078  0.00  0.00     0.000 A 
ATOM     12  C   UNL d   1      59.876  -2.031  29.166  0.00  0.00     0.002 A 
ATOM     13  C   UNL d   1      60.261  -2.752  29.055  0.00  0.00     0.030 A 
ATOM     14  C   UNL d   1      59.819  -3.426  28.854  0.00  0.00     0.140 A 
ATOM     15  C   UNL d   1      59.006  -3.367  28.769  0.00  0.00     0.030 A 
ATOM     16  F   UNL d   1      60.204  -4.146  28.742  0.00  0.00    -0.204 F 
ATOM     17  C   UNL d   1      58.630  -2.647  28.882  0.00  0.00     0.002 A 
ENDBRANCH  10  11
ENDBRANCH   9  10
ENDBRANCH   3   9
BRANCH   2  18
ATOM     18  C   UNL d   1      56.367   0.207  32.884  0.00  0.00     0.065 A 
ATOM     19  C   UNL d   1      55.543   0.151  32.908  0.00  0.00     0.029 A 
ATOM     20  C   UNL d   1      55.139   0.292  33.612  0.00  0.00     0.059 A 
ATOM     21 CL   UNL d   1      54.315   0.236  33.635  0.00  0.00    -0.082 Cl
ATOM     22  C   UNL d   1      55.558   0.489  34.298  0.00  0.00     0.011 A 
ATOM     23  C   UNL d   1      56.385   0.544  34.268  0.00  0.00     0.002 A 
ATOM     24  C   UNL d   1      56.791   0.403  33.560  0.00  0.00     0.018 A 
ENDBRANCH   2  18
TORSDOF 4
ENDMDL
MODEL 2
REMARK VINA RESULT:      -4.2      1.711      2.091
REMARK  4 active torsions:
REMARK  status: ('A' for Active; 'I' for Inactive)
REMARK       I    between atoms: C_3  and  N_1 
REMARK    1  A    between atoms: C_5  and  N_2 
REMARK    2  A    between atoms: C_4  and  C_3 
REMARK    3  A    between atoms: C_7  and  C_4 
REMARK    4  A    between atoms: C_13  and  C_7 
ROOT
ATOM      1  N   UNL d   1      57.053  -0.657  31.547  0.00  0.00    -0.269 N 
ATOM      2  N   UNL d   1      56.221  -0.128  32.876  0.00  0.00    -0.301 N 
ATOM      3  C   UNL d   1      57.462  -0.928  30.890  0.00  0.00     0.265 C 
ATOM      4  C   UNL d   1      56.546  -1.176  31.962  0.00  0.00     0.102 A 
ATOM      5  C   UNL d   1      57.136   0.121  31.806  0.00  0.00     0.102 A 
ATOM      6  C   UNL d   1      56.130  -0.910  32.627  0.00  0.00     0.100 A 
ATOM      7  C   UNL d   1      56.724   0.390  32.468  0.00  0.00     0.100 A 
ATOM      8  O   UNL d   1      57.379  -1.701  30.633  0.00  0.00    -0.267 OA
ENDROOT
BRANCH   3   9
ATOM      9  C   UNL d   1      57.965  -0.415  30.478  0.00  0.00     0.061 C 
BRANCH   9  10
ATOM     10  C   UNL d   1      58.225  -0.607  29.716  0.00  0.00     0.005 C 
BRANCH  10  11
ATOM     11  C   UNL d   1      58.924  -0.288  29.429  0.00  0.00     0.000 A 
ATOM     12  C   UNL d   1      58.893   0.356  28.920  0.00  0.00     0.002 A 
ATOM     13  C   UNL d   1      59.591   0.682  28.628  0.00  0.00     0.030 A 
ATOM     14  C   UNL d   1      60.321   0.355  28.851  0.00  0.00     0.140 A 
ATOM     15  C   UNL d   1      60.339  -0.287  29.360  0.00  0.00     0.030 A 
ATOM     16  F   UNL d   1      61.020   0.681  28.559  0.00  0.00    -0.204 F 
ATOM     17  C   UNL d   1      59.641  -0.607  29.647  0.00  0.00     0.002 A 
ENDBRANCH  10  11
ENDBRANCH   9  10
ENDBRANCH   3   9
BRANCH   2  18
ATOM     18  C   UNL d   1      55.808   0.143  33.540  0.00  0.00     0.065 A 
ATOM     19  C   UNL d   1      54.981   0.146  33.536  0.00  0.00     0.029 A 
ATOM     20  C   UNL d   1      54.566   0.414  34.195  0.00  0.00     0.059 A 
ATOM     21 CL   UNL d   1      53.740   0.417  34.191  0.00  0.00    -0.082 Cl
ATOM     22  C   UNL d   1      54.976   0.681  34.863  0.00  0.00     0.011 A 
ATOM     23  C   UNL d   1      55.805   0.676  34.861  0.00  0.00     0.002 A 
ATOM     24  C   UNL d   1      56.222   0.406  34.198  0.00  0.00     0.018 A 
ENDBRANCH   2  18
TORSDOF 4
ENDMDL
MODEL 3
REMARK VINA RESULT:      -3.0      2.993      5.726
REMARK  4 active torsions:
REMARK  status: ('A' for Active; 'I' for Inactive)
REMARK       I    between atoms: C_3  and  N_1 
REMARK    1  A    between atoms: C_5  and  N_2 
REMARK    2  A    between atoms: C_4  and  C_3 
REMARK    3  A    between atoms: C_7  and  C_4 
REMARK    4  A    between atoms: C_13  and  C_7 
ROOT
ATOM      1  N   UNL d   1      57.348  -0.461  31.213  0.00  0.00    -0.269 N 
ATOM      2  N   UNL d   1      58.553  -0.215  30.106  0.00  0.00    -0.301 N 
ATOM      3  C   UNL d   1      56.750  -0.593  31.758  0.00  0.00     0.265 C 
ATOM      4  C   UNL d   1      57.584  -1.079  30.700  0.00  0.00     0.102 A 
ATOM      5  C   UNL d   1      57.721   0.272  31.161  0.00  0.00     0.102 A 
ATOM      6  C   UNL d   1      58.187  -0.954  30.147  0.00  0.00     0.100 A 
ATOM      7  C   UNL d   1      58.322   0.401  30.611  0.00  0.00     0.100 A 
ATOM      8  O   UNL d   1      56.379  -1.321  31.808  0.00  0.00    -0.267 OA
ENDROOT
BRANCH   3   9
ATOM      9  C   UNL d   1      56.515   0.019  32.266  0.00  0.00     0.061 C 
BRANCH   9  10
ATOM     10  C   UNL d   1      55.748   0.031  32.577  0.00  0.00     0.005 C 
BRANCH  10  11
ATOM     11  C   UNL d   1      55.632   0.194  33.372  0.00  0.00     0.000 A 
ATOM     12  C   UNL d   1      54.877   0.132  33.689  0.00  0.00     0.002 A 
ATOM     13  C   UNL d   1      54.752   0.293  34.488  0.00  0.00     0.030 A 
ATOM     14  C   UNL d   1      55.393   0.518  34.965  0.00  0.00     0.140 A 
ATOM     15  C   UNL d   1      56.142   0.577  34.638  0.00  0.00     0.030 A 
ATOM     16  F   UNL d   1      55.269   0.680  35.764  0.00  0.00    -0.204 F 
ATOM     17  C   UNL d   1      56.259   0.415  33.842  0.00  0.00     0.002 A 
ENDBRANCH  10  11
ENDBRANCH   9  10
ENDBRANCH   3   9
BRANCH   2  18
ATOM     18  C   UNL d   1      59.157  -0.085  29.554  0.00  0.00     0.065 A 
ATOM     19  C   UNL d   1      59.801  -0.602  29.522  0.00  0.00     0.029 A 
ATOM     20  C   UNL d   1      60.404  -0.477  28.974  0.00  0.00     0.059 A 
ATOM     21 CL   UNL d   1      61.048  -0.994  28.942  0.00  0.00    -0.082 Cl
ATOM     22  C   UNL d   1      60.365   0.167  28.455  0.00  0.00     0.011 A 
ATOM     23  C   UNL d   1      59.716   0.681  28.493  0.00  0.00     0.002 A 
ATOM     24  C   UNL d   1      59.110   0.555  29.043  0.00  0.00     0.018 A 
ENDBRANCH   2  18
TORSDOF 4
ENDMDL
