MODEL 1
REMARK VINA RESULT:      -0.3      0.000      0.000
REMARK  5 active torsions:
REMARK  status: ('A' for Active; 'I' for Inactive)
REMARK    1  A    between atoms: C_12  and  C_1 
REMARK    2  A    between atoms: N_7  and  C_2 
REMARK    3  A    between atoms: C_3  and  C_6 
REMARK       I    between atoms: C_6  and  N_7 
REMARK    4  A    between atoms: O_18  and  C_12 
REMARK    5  A    between atoms: C_23  and  O_18 
ROOT
ATOM      1  C   UNL d   1      58.850  -1.240  28.866  0.00  0.00     0.111 A 
ATOM      2  C   UNL d   1      58.865  -0.618  29.357  0.00  0.00     0.096 A 
ATOM      3  S   UNL d   1      59.600  -1.269  28.480  0.00  0.00    -0.080 SA
ATOM      4  C   UNL d   1      59.588  -0.237  29.314  0.00  0.00     0.024 A 
ATOM      5  C   UNL d   1      60.046  -0.646  28.765  0.00  0.00     0.031 A 
ATOM      6  C   UNL d   1      59.890   0.429  29.702  0.00  0.00     0.002 A 
ATOM      7  C   UNL d   1      60.814  -0.398  28.593  0.00  0.00     0.006 A 
ATOM      8  C   UNL d   1      60.661   0.680  29.531  0.00  0.00     0.000 A 
ATOM      9  C   UNL d   1      61.120   0.271  28.982  0.00  0.00     0.001 A 
ENDROOT
BRANCH   2  10
ATOM     10  N   UNL d   1      58.210  -0.406  29.843  0.00  0.00    -0.207 NA
ATOM     11  C   UNL d   1      58.274  -0.469  30.664  0.00  0.00     0.284 C 
ATOM     12  O   UNL d   1      59.033  -0.758  30.983  0.00  0.00    -0.265 OA
BRANCH  11  13
ATOM     13  C   UNL d   1      57.611  -0.252  31.094  0.00  0.00     0.121 A 
ATOM     14  C   UNL d   1      57.306  -0.792  31.635  0.00  0.00     0.204 A 
ATOM     15  C   UNL d   1      56.635  -0.610  32.090  0.00  0.00     0.062 A 
ATOM     16  O   UNL d   1      57.686  -1.548  31.725  0.00  0.00    -0.286 OA
ATOM     17  C   UNL d   1      56.343  -1.158  32.623  0.00  0.00     0.005 A 
ATOM     18  C   UNL d   1      56.270   0.130  31.996  0.00  0.00     0.103 A 
ATOM     19  C   UNL d   1      55.675  -0.958  33.068  0.00  0.00     0.000 A 
ATOM     20  C   UNL d   1      55.303  -0.231  32.986  0.00  0.00     0.002 A 
ATOM     21  C   UNL d   1      55.600   0.304  32.456  0.00  0.00     0.025 A 
ATOM     22  O   UNL d   1      56.568   0.676  31.459  0.00  0.00    -0.305 OA
ATOM     23  C   UNL d   1      57.239   0.491  31.005  0.00  0.00     0.131 A 
ENDBRANCH  11  13
ENDBRANCH   2  10
BRANCH   1  24
ATOM     24  C   UNL d   1      58.205  -1.752  28.766  0.00  0.00     0.308 C 
ATOM     25  O   UNL d   1      57.488  -1.480  28.490  0.00  0.00    -0.258 OA
BRANCH  24  26
ATOM     26  O   UNL d   1      58.333  -2.512  28.956  0.00  0.00    -0.271 OA
BRANCH  26  27
ATOM     27  C   UNL d   1      57.973  -3.217  28.540  0.00  0.00     0.126 C 
ATOM     28  C   UNL d   1      58.236  -3.959  28.696  0.00  0.00     0.029 C 
ENDBRANCH  26  27
ENDBRANCH  24  26
ENDBRANCH   1  24
TORSDOF 5
ENDMDL
MODEL 2
REMARK VINA RESULT:       1.3      2.498      5.554
REMARK  5 active torsions:
REMARK  status: ('A' for Active; 'I' for Inactive)
REMARK    1  A    between atoms: C_12  and  C_1 
REMARK    2  A    between atoms: N_7  and  C_2 
REMARK    3  A    between atoms: C_3  and  C_6 
REMARK       I    between atoms: C_6  and  N_7 
REMARK    4  A    between atoms: O_18  and  C_12 
REMARK    5  A    between atoms: C_23  and  O_18 
ROOT
ATOM      1  C   UNL d   1      56.452   0.646  34.359  0.00  0.00     0.111 A 
ATOM      2  C   UNL d   1      56.074   0.638  33.662  0.00  0.00     0.096 A 
ATOM      3  S   UNL d   1      55.860   0.661  34.961  0.00  0.00    -0.080 SA
ATOM      4  C   UNL d   1      55.264   0.647  33.776  0.00  0.00     0.024 A 
ATOM      5  C   UNL d   1      55.131   0.662  34.589  0.00  0.00     0.031 A 
ATOM      6  C   UNL d   1      54.627   0.645  33.247  0.00  0.00     0.002 A 
ATOM      7  C   UNL d   1      54.364   0.674  34.888  0.00  0.00     0.006 A 
ATOM      8  C   UNL d   1      53.854   0.657  33.544  0.00  0.00     0.000 A 
ATOM      9  C   UNL d   1      53.722   0.671  34.358  0.00  0.00     0.001 A 
ENDROOT
BRANCH   2  10
ATOM     10  N   UNL d   1      56.481   0.622  32.924  0.00  0.00    -0.207 NA
ATOM     11  C   UNL d   1      56.462  -0.062  32.463  0.00  0.00     0.284 C 
ATOM     12  O   UNL d   1      56.012  -0.742  32.776  0.00  0.00    -0.265 OA
BRANCH  11  13
ATOM     13  C   UNL d   1      56.872  -0.030  31.755  0.00  0.00     0.121 A 
ATOM     14  C   UNL d   1      57.186  -0.730  31.456  0.00  0.00     0.204 A 
ATOM     15  C   UNL d   1      57.608  -0.739  30.740  0.00  0.00     0.062 A 
ATOM     16  O   UNL d   1      57.073  -1.452  31.890  0.00  0.00    -0.286 OA
ATOM     17  C   UNL d   1      57.914  -1.443  30.457  0.00  0.00     0.005 A 
ATOM     18  C   UNL d   1      57.714  -0.029  30.322  0.00  0.00     0.103 A 
ATOM     19  C   UNL d   1      58.332  -1.432  29.742  0.00  0.00     0.000 A 
ATOM     20  C   UNL d   1      58.444  -0.738  29.318  0.00  0.00     0.002 A 
ATOM     21  C   UNL d   1      58.138  -0.047  29.608  0.00  0.00     0.025 A 
ATOM     22  O   UNL d   1      57.405   0.675  30.613  0.00  0.00    -0.305 OA
ATOM     23  C   UNL d   1      56.982   0.681  31.329  0.00  0.00     0.131 A 
ENDBRANCH  11  13
ENDBRANCH   2  10
BRANCH   1  24
ATOM     24  C   UNL d   1      57.275   0.640  34.454  0.00  0.00     0.308 C 
ATOM     25  O   UNL d   1      57.774   0.593  33.811  0.00  0.00    -0.258 OA
BRANCH  24  26
ATOM     26  O   UNL d   1      57.539   0.682  35.202  0.00  0.00    -0.271 OA
BRANCH  26  27
ATOM     27  C   UNL d   1      58.374   0.499  35.467  0.00  0.00     0.126 C 
ATOM     28  C   UNL d   1      58.600   0.641  36.224  0.00  0.00     0.029 C 
ENDBRANCH  26  27
ENDBRANCH  24  26
ENDBRANCH   1  24
TORSDOF 5
ENDMDL
