MODEL 1
REMARK VINA RESULT:      -8.1      0.000      0.000
REMARK  7 active torsions:
REMARK  status: ('A' for Active; 'I' for Inactive)
REMARK    1  A    between atoms: S_10  and  C_9 
REMARK    2  A    between atoms: C_15  and  S_10 
REMARK    3  A    between atoms: C_11  and  C_15 
REMARK       I    between atoms: N_16  and  C_11 
REMARK    4  A    between atoms: C_24  and  N_16 
REMARK    5  A    between atoms: C_21  and  C_24 
REMARK    6  A    between atoms: C_25  and  C_21 
REMARK    7  A    between atoms: O_23  and  C_25 
ROOT
ATOM      1  C   UNL d   1     -48.800  13.124  23.220  0.00  0.00     0.004 A 
ATOM      2  C   UNL d   1     -48.824  13.932  23.102  0.00  0.00     0.000 A 
ATOM      3  C   UNL d   1     -49.486  12.698  23.404  0.00  0.00     0.039 A 
ATOM      4  C   UNL d   1     -50.209  13.072  23.473  0.00  0.00     0.196 A 
ATOM      5  C   UNL d   1     -49.556  14.320  23.170  0.00  0.00     0.003 A 
ATOM      6  C   UNL d   1     -50.260  13.882  23.359  0.00  0.00     0.039 A 
ATOM      7  C   UNL d   1     -48.068  12.736  23.151  0.00  0.00     0.006 A 
ATOM      8  C   UNL d   1     -48.139  14.357  22.918  0.00  0.00     0.001 A 
ATOM      9  C   UNL d   1     -47.383  13.161  22.968  0.00  0.00     0.030 A 
ATOM     10  O   UNL d   1     -50.898  12.644  23.658  0.00  0.00    -0.287 OA
ATOM     11  C   UNL d   1     -47.435  13.972  22.854  0.00  0.00     0.006 A 
ATOM     12  C   UNL d   1     -49.453  11.876  23.523  0.00  0.00     0.003 A 
ATOM     13  C   UNL d   1     -49.589  15.141  23.051  0.00  0.00     0.000 A 
ATOM     14  C   UNL d   1     -50.974  14.281  23.423  0.00  0.00     0.003 A 
ATOM     15  C   UNL d   1     -48.035  11.914  23.270  0.00  0.00     0.001 A 
ATOM     16  C   UNL d   1     -48.680  11.474  23.449  0.00  0.00     0.000 A 
ATOM     17  C   UNL d   1     -51.028  15.097  23.309  0.00  0.00     0.000 A 
ATOM     18  C   UNL d   1     -50.296  15.551  23.113  0.00  0.00     0.000 A 
ENDROOT
BRANCH   9  19
ATOM     19  S   UNL d   1     -46.642  12.779  22.897  0.00  0.00    -0.081 SA
BRANCH  19  20
ATOM     20  C   UNL d   1     -45.994  13.186  22.577  0.00  0.00     0.098 C 
BRANCH  20  21
ATOM     21  C   UNL d   1     -45.283  12.834  22.504  0.00  0.00     0.286 C 
ATOM     22  O   UNL d   1     -45.068  12.230  23.016  0.00  0.00    -0.265 OA
ATOM     23  N   UNL d   1     -44.758  13.070  21.920  0.00  0.00    -0.206 NA
BRANCH  23  24
ATOM     24  C   UNL d   1     -44.014  12.715  21.829  0.00  0.00     0.104 C 
BRANCH  24  25
ATOM     25  C   UNL d   1     -43.530  12.961  21.223  0.00  0.00     0.047 C 
BRANCH  25  26
ATOM     26  C   UNL d   1     -42.724  13.017  21.359  0.00  0.00     0.118 C 
BRANCH  26  27
ATOM     27  O   UNL d   1     -42.228  13.325  20.806  0.00  0.00    -0.326 OA
ATOM     28  C   UNL d   1     -41.547  13.727  21.022  0.00  0.00     0.181 C 
ENDBRANCH  26  27
ENDBRANCH  25  26
ENDBRANCH  24  25
ENDBRANCH  23  24
ENDBRANCH  20  21
ENDBRANCH  19  20
ENDBRANCH   9  19
TORSDOF 7
ENDMDL
MODEL 2
REMARK VINA RESULT:      -7.2      0.801      1.808
REMARK  7 active torsions:
REMARK  status: ('A' for Active; 'I' for Inactive)
REMARK    1  A    between atoms: S_10  and  C_9 
REMARK    2  A    between atoms: C_15  and  S_10 
REMARK    3  A    between atoms: C_11  and  C_15 
REMARK       I    between atoms: N_16  and  C_11 
REMARK    4  A    between atoms: C_24  and  N_16 
REMARK    5  A    between atoms: C_21  and  C_24 
REMARK    6  A    between atoms: C_25  and  C_21 
REMARK    7  A    between atoms: O_23  and  C_25 
ROOT
ATOM      1  C   UNL d   1     -48.364  13.564  22.971  0.00  0.00     0.004 A 
ATOM      2  C   UNL d   1     -48.622  12.807  23.137  0.00  0.00     0.000 A 
ATOM      3  C   UNL d   1     -48.894  14.199  22.937  0.00  0.00     0.039 A 
ATOM      4  C   UNL d   1     -49.692  14.090  23.067  0.00  0.00     0.196 A 
ATOM      5  C   UNL d   1     -49.433  12.687  23.271  0.00  0.00     0.003 A 
ATOM      6  C   UNL d   1     -49.978  13.339  23.235  0.00  0.00     0.039 A 
ATOM      7  C   UNL d   1     -47.551  13.685  22.837  0.00  0.00     0.006 A 
ATOM      8  C   UNL d   1     -48.092  12.173  23.171  0.00  0.00     0.001 A 
ATOM      9  C   UNL d   1     -47.022  13.050  22.872  0.00  0.00     0.030 A 
ATOM     10  O   UNL d   1     -50.225  14.728  23.033  0.00  0.00    -0.287 OA
ATOM     11  C   UNL d   1     -47.308  12.300  23.040  0.00  0.00     0.006 A 
ATOM     12  C   UNL d   1     -48.622  14.967  22.768  0.00  0.00     0.003 A 
ATOM     13  C   UNL d   1     -49.704  11.920  23.440  0.00  0.00     0.000 A 
ATOM     14  C   UNL d   1     -50.775  13.202  23.370  0.00  0.00     0.003 A 
ATOM     15  C   UNL d   1     -47.281  14.452  22.668  0.00  0.00     0.001 A 
ATOM     16  C   UNL d   1     -47.768  15.086  22.628  0.00  0.00     0.000 A 
ATOM     17  C   UNL d   1     -51.064  12.448  23.540  0.00  0.00     0.000 A 
ATOM     18  C   UNL d   1     -50.499  11.771  23.576  0.00  0.00     0.000 A 
ENDROOT
BRANCH   9  19
ATOM     19  S   UNL d   1     -46.203  13.162  22.738  0.00  0.00    -0.081 SA
BRANCH  19  20
ATOM     20  C   UNL d   1     -45.786  12.634  22.253  0.00  0.00     0.098 C 
BRANCH  20  21
ATOM     21  C   UNL d   1     -44.996  12.559  22.313  0.00  0.00     0.286 C 
ATOM     22  O   UNL d   1     -44.666  12.167  22.955  0.00  0.00    -0.265 OA
ATOM     23  N   UNL d   1     -44.502  12.870  21.737  0.00  0.00    -0.206 NA
BRANCH  23  24
ATOM     24  C   UNL d   1     -43.676  12.802  21.783  0.00  0.00     0.104 C 
BRANCH  24  25
ATOM     25  C   UNL d   1     -43.223  13.067  21.161  0.00  0.00     0.047 C 
BRANCH  25  26
ATOM     26  C   UNL d   1     -42.455  13.312  21.309  0.00  0.00     0.118 C 
BRANCH  26  27
ATOM     27  O   UNL d   1     -41.968  13.540  20.711  0.00  0.00    -0.326 OA
ATOM     28  C   UNL d   1     -41.350  14.064  20.842  0.00  0.00     0.181 C 
ENDBRANCH  26  27
ENDBRANCH  25  26
ENDBRANCH  24  25
ENDBRANCH  23  24
ENDBRANCH  20  21
ENDBRANCH  19  20
ENDBRANCH   9  19
TORSDOF 7
ENDMDL
MODEL 3
REMARK VINA RESULT:      -5.6      1.158      1.580
REMARK  7 active torsions:
REMARK  status: ('A' for Active; 'I' for Inactive)
REMARK    1  A    between atoms: S_10  and  C_9 
REMARK    2  A    between atoms: C_15  and  S_10 
REMARK    3  A    between atoms: C_11  and  C_15 
REMARK       I    between atoms: N_16  and  C_11 
REMARK    4  A    between atoms: C_24  and  N_16 
REMARK    5  A    between atoms: C_21  and  C_24 
REMARK    6  A    between atoms: C_25  and  C_21 
REMARK    7  A    between atoms: O_23  and  C_25 
ROOT
ATOM      1  C   UNL d   1     -48.789  13.197  23.072  0.00  0.00     0.004 A 
ATOM      2  C   UNL d   1     -48.835  13.994  22.904  0.00  0.00     0.000 A 
ATOM      3  C   UNL d   1     -49.462  12.767  23.292  0.00  0.00     0.039 A 
ATOM      4  C   UNL d   1     -50.193  13.126  23.348  0.00  0.00     0.196 A 
ATOM      5  C   UNL d   1     -49.575  14.368  22.959  0.00  0.00     0.003 A 
ATOM      6  C   UNL d   1     -50.266  13.926  23.185  0.00  0.00     0.039 A 
ATOM      7  C   UNL d   1     -48.048  12.822  23.017  0.00  0.00     0.006 A 
ATOM      8  C   UNL d   1     -48.163  14.424  22.685  0.00  0.00     0.001 A 
ATOM      9  C   UNL d   1     -47.377  13.252  22.798  0.00  0.00     0.030 A 
ATOM     10  O   UNL d   1     -50.869  12.694  23.569  0.00  0.00    -0.287 OA
ATOM     11  C   UNL d   1     -47.451  14.052  22.635  0.00  0.00     0.006 A 
ATOM     12  C   UNL d   1     -49.407  11.954  23.461  0.00  0.00     0.003 A 
ATOM     13  C   UNL d   1     -49.630  15.180  22.790  0.00  0.00     0.000 A 
ATOM     14  C   UNL d   1     -50.988  14.311  23.234  0.00  0.00     0.003 A 
ATOM     15  C   UNL d   1     -47.994  12.010  23.187  0.00  0.00     0.001 A 
ATOM     16  C   UNL d   1     -48.625  11.568  23.402  0.00  0.00     0.000 A 
ATOM     17  C   UNL d   1     -51.064  15.117  23.070  0.00  0.00     0.000 A 
ATOM     18  C   UNL d   1     -50.347  15.575  22.836  0.00  0.00     0.000 A 
ENDROOT
BRANCH   9  19
ATOM     19  S   UNL d   1     -46.627  12.884  22.740  0.00  0.00    -0.081 SA
BRANCH  19  20
ATOM     20  C   UNL d   1     -46.005  13.268  22.348  0.00  0.00     0.098 C 
BRANCH  20  21
ATOM     21  C   UNL d   1     -45.273  12.958  22.338  0.00  0.00     0.286 C 
ATOM     22  O   UNL d   1     -44.692  13.285  21.859  0.00  0.00    -0.265 OA
ATOM     23  N   UNL d   1     -45.088  12.308  22.803  0.00  0.00    -0.206 NA
BRANCH  23  24
ATOM     24  C   UNL d   1     -44.330  11.970  22.805  0.00  0.00     0.104 C 
BRANCH  24  25
ATOM     25  C   UNL d   1     -44.202  11.289  23.231  0.00  0.00     0.047 C 
BRANCH  25  26
ATOM     26  C   UNL d   1     -43.644  10.753  22.960  0.00  0.00     0.118 C 
BRANCH  26  27
ATOM     27  O   UNL d   1     -43.774   9.960  23.002  0.00  0.00    -0.326 OA
ATOM     28  C   UNL d   1     -43.646   9.545  23.698  0.00  0.00     0.181 C 
ENDBRANCH  26  27
ENDBRANCH  25  26
ENDBRANCH  24  25
ENDBRANCH  23  24
ENDBRANCH  20  21
ENDBRANCH  19  20
ENDBRANCH   9  19
TORSDOF 7
ENDMDL
