MODEL 1
REMARK VINA RESULT:      -4.7      0.000      0.000
REMARK  3 active torsions:
REMARK  status: ('A' for Active; 'I' for Inactive)
REMARK    1  A    between atoms: C_5  and  N_1 
REMARK    2  A    between atoms: C_4  and  C_5 
REMARK       I    between atoms: N_6  and  C_4 
REMARK    3  A    between atoms: C_12  and  N_6 
ROOT
ATOM      1  C   UNL d   1      58.070   0.426  30.667  0.00  0.00     0.297 C 
ATOM      2  N   UNL d   1      57.252   0.269  30.745  0.00  0.00    -0.207 NA
ATOM      3  O   UNL d   1      58.509   0.371  31.369  0.00  0.00    -0.264 OA
ENDROOT
BRANCH   1   4
ATOM      4  C   UNL d   1      58.455   0.627  29.946  0.00  0.00     0.148 C 
BRANCH   4   5
ATOM      5  N   UNL d   1      59.049   0.171  29.653  0.00  0.00    -0.236 N 
ATOM      6  C   UNL d   1      59.870   0.157  29.883  0.00  0.00     0.267 A 
ATOM      7  C   UNL d   1      60.220  -0.390  29.422  0.00  0.00     0.066 A 
ATOM      8  O   UNL d   1      60.177   0.681  30.516  0.00  0.00    -0.267 OA
ATOM      9  C   UNL d   1      59.685  -0.721  28.921  0.00  0.00     0.066 A 
ATOM     10  C   UNL d   1      58.974  -0.391  29.050  0.00  0.00     0.267 A 
ATOM     11  O   UNL d   1      58.257  -0.528  28.694  0.00  0.00    -0.267 OA
ENDBRANCH   4   5
ENDBRANCH   1   4
BRANCH   2  12
ATOM     12  C   UNL d   1      56.888   0.081  31.417  0.00  0.00     0.085 A 
ATOM     13  C   UNL d   1      56.792  -0.694  31.713  0.00  0.00     0.020 A 
ATOM     14  C   UNL d   1      56.427  -0.884  32.385  0.00  0.00     0.008 A 
ATOM     15  C   UNL d   1      56.108  -0.280  32.848  0.00  0.00     0.035 A 
ATOM     16  C   UNL d   1      56.169   0.506  32.611  0.00  0.00     0.008 A 
ATOM     17 BR   UNL d   1      55.709  -0.458  33.579  0.00  0.00    -0.049 Br
ATOM     18  C   UNL d   1      56.563   0.681  31.890  0.00  0.00     0.020 A 
ENDBRANCH   2  12
TORSDOF 3
ENDMDL
MODEL 2
REMARK VINA RESULT:      -3.4      1.997      4.133
REMARK  3 active torsions:
REMARK  status: ('A' for Active; 'I' for Inactive)
REMARK    1  A    between atoms: C_5  and  N_1 
REMARK    2  A    between atoms: C_4  and  C_5 
REMARK       I    between atoms: N_6  and  C_4 
REMARK    3  A    between atoms: C_12  and  N_6 
ROOT
ATOM      1  C   UNL d   1      57.333  -0.145  31.189  0.00  0.00     0.297 C 
ATOM      2  N   UNL d   1      57.698   0.367  30.638  0.00  0.00    -0.207 NA
ATOM      3  O   UNL d   1      57.668  -0.903  31.241  0.00  0.00    -0.264 OA
ENDROOT
BRANCH   1   4
ATOM      4  C   UNL d   1      56.675   0.056  31.673  0.00  0.00     0.148 C 
BRANCH   4   5
ATOM      5  N   UNL d   1      56.544  -0.318  32.372  0.00  0.00    -0.236 N 
ATOM      6  C   UNL d   1      56.169  -1.072  32.508  0.00  0.00     0.267 A 
ATOM      7  C   UNL d   1      56.180  -1.186  33.297  0.00  0.00     0.066 A 
ATOM      8  O   UNL d   1      55.862  -1.556  31.845  0.00  0.00    -0.267 OA
ATOM      9  C   UNL d   1      56.532  -0.565  33.667  0.00  0.00     0.066 A 
ATOM     10  C   UNL d   1      56.757  -0.033  33.120  0.00  0.00     0.267 A 
ATOM     11  O   UNL d   1      57.131   0.682  33.203  0.00  0.00    -0.267 OA
ENDBRANCH   4   5
ENDBRANCH   1   4
BRANCH   2  12
ATOM     12  C   UNL d   1      58.313   0.183  30.184  0.00  0.00     0.085 A 
ATOM     13  C   UNL d   1      58.290  -0.326  29.523  0.00  0.00     0.020 A 
ATOM     14  C   UNL d   1      58.906  -0.512  29.068  0.00  0.00     0.008 A 
ATOM     15  C   UNL d   1      59.643  -0.185  29.244  0.00  0.00     0.035 A 
ATOM     16  C   UNL d   1      59.732   0.325  29.884  0.00  0.00     0.008 A 
ATOM     17 BR   UNL d   1      60.324  -0.369  28.768  0.00  0.00    -0.049 Br
ATOM     18  C   UNL d   1      59.060   0.506  30.354  0.00  0.00     0.020 A 
ENDBRANCH   2  12
TORSDOF 3
ENDMDL
