MODEL 1
REMARK VINA RESULT:      -4.6      0.000      0.000
REMARK  2 active torsions:
REMARK  status: ('A' for Active; 'I' for Inactive)
REMARK    1  A    between atoms: C_4  and  C_1 
REMARK    2  A    between atoms: N_6  and  C_5 
ROOT
ATOM      1  C   UNL d   1     -41.528-122.569 -53.420  0.00  0.00     0.024 A 
ATOM      2  C   UNL d   1     -41.305-122.908 -51.819  0.00  0.00     0.064 A 
ATOM      3  C   UNL d   1     -41.577-121.965 -52.855  0.00  0.00     0.004 A 
ATOM      4  C   UNL d   1     -41.367-123.342 -53.182  0.00  0.00     0.004 A 
ATOM      5  C   UNL d   1     -41.466-122.134 -52.058  0.00  0.00     0.018 A 
ATOM      6  C   UNL d   1     -41.255-123.512 -52.378  0.00  0.00     0.018 A 
ENDROOT
BRANCH   1   7
ATOM      7  C   UNL d   1     -41.639-122.404 -54.217  0.00  0.00     0.111 A 
ATOM      8  N   UNL d   1     -41.147-122.602 -54.840  0.00  0.00    -0.237 NA
ATOM      9  C   UNL d   1     -41.501-122.313 -55.527  0.00  0.00     0.106 A 
ATOM     10  C   UNL d   1     -42.185-121.950 -55.331  0.00  0.00     0.058 A 
ATOM     11  S   UNL d   1     -42.275-122.004 -54.523  0.00  0.00    -0.066 SA
ENDBRANCH   1   7
BRANCH   2  12
ATOM     12  N   UNL d   1     -41.198-123.051 -51.013  0.00  0.00    -0.301 N 
ATOM     13  C   UNL d   1     -41.168-122.414 -50.497  0.00  0.00     0.100 C 
ATOM     14  C   UNL d   1     -41.123-123.817 -50.736  0.00  0.00     0.100 C 
ENDBRANCH   2  12
TORSDOF 2
ENDMDL
MODEL 2
REMARK VINA RESULT:      -4.3      2.095      3.265
REMARK  2 active torsions:
REMARK  status: ('A' for Active; 'I' for Inactive)
REMARK    1  A    between atoms: C_4  and  C_1 
REMARK    2  A    between atoms: N_6  and  C_5 
ROOT
ATOM      1  C   UNL d   1     -41.745-122.914 -50.329  0.00  0.00     0.024 A 
ATOM      2  C   UNL d   1     -42.173-123.215 -48.763  0.00  0.00     0.064 A 
ATOM      3  C   UNL d   1     -42.456-122.616 -50.026  0.00  0.00     0.004 A 
ATOM      4  C   UNL d   1     -41.249-123.362 -49.847  0.00  0.00     0.004 A 
ATOM      5  C   UNL d   1     -42.669-122.765 -49.246  0.00  0.00     0.018 A 
ATOM      6  C   UNL d   1     -41.464-123.514 -49.060  0.00  0.00     0.018 A 
ENDROOT
BRANCH   1   7
ATOM      7  C   UNL d   1     -41.530-122.765 -51.108  0.00  0.00     0.111 A 
ATOM      8  N   UNL d   1     -41.518-123.295 -51.731  0.00  0.00    -0.237 NA
ATOM      9  C   UNL d   1     -41.262-122.879 -52.396  0.00  0.00     0.106 A 
ATOM     10  C   UNL d   1     -41.123-122.120 -52.186  0.00  0.00     0.058 A 
ATOM     11  S   UNL d   1     -41.286-122.045 -51.392  0.00  0.00    -0.066 SA
ENDBRANCH   1   7
BRANCH   2  12
ATOM     12  N   UNL d   1     -42.409-123.351 -47.983  0.00  0.00    -0.301 N 
ATOM     13  C   UNL d   1     -43.072-123.814 -47.845  0.00  0.00     0.100 C 
ATOM     14  C   UNL d   1     -41.987-123.028 -47.361  0.00  0.00     0.100 C 
ENDBRANCH   2  12
TORSDOF 2
ENDMDL
MODEL 3
REMARK VINA RESULT:      -4.0      1.321      3.537
REMARK  2 active torsions:
REMARK  status: ('A' for Active; 'I' for Inactive)
REMARK    1  A    between atoms: C_4  and  C_1 
REMARK    2  A    between atoms: N_6  and  C_5 
ROOT
ATOM      1  C   UNL d   1     -41.246-123.025 -52.019  0.00  0.00     0.024 A 
ATOM      2  C   UNL d   1     -41.326-123.012 -53.669  0.00  0.00     0.064 A 
ATOM      3  C   UNL d   1     -41.123-123.723 -52.448  0.00  0.00     0.004 A 
ATOM      4  C   UNL d   1     -41.409-122.322 -52.417  0.00  0.00     0.004 A 
ATOM      5  C   UNL d   1     -41.163-123.717 -53.270  0.00  0.00     0.018 A 
ATOM      6  C   UNL d   1     -41.450-122.315 -53.245  0.00  0.00     0.018 A 
ENDROOT
BRANCH   1   7
ATOM      7  C   UNL d   1     -41.206-123.029 -51.198  0.00  0.00     0.111 A 
ATOM      8  N   UNL d   1     -41.142-122.384 -50.700  0.00  0.00    -0.237 NA
ATOM      9  C   UNL d   1     -41.123-122.677 -49.928  0.00  0.00     0.106 A 
ATOM     10  C   UNL d   1     -41.173-123.474 -49.955  0.00  0.00     0.058 A 
ATOM     11  S   UNL d   1     -41.225-123.696 -50.736  0.00  0.00    -0.066 SA
ENDBRANCH   1   7
BRANCH   2  12
ATOM     12  N   UNL d   1     -41.361-123.032 -54.493  0.00  0.00    -0.301 N 
ATOM     13  C   UNL d   1     -41.555-122.346 -54.899  0.00  0.00     0.100 C 
ATOM     14  C   UNL d   1     -41.205-123.727 -54.896  0.00  0.00     0.100 C 
ENDBRANCH   2  12
TORSDOF 2
ENDMDL
MODEL 4
REMARK VINA RESULT:      -3.9      2.092      4.204
REMARK  2 active torsions:
REMARK  status: ('A' for Active; 'I' for Inactive)
REMARK    1  A    between atoms: C_4  and  C_1 
REMARK    2  A    between atoms: N_6  and  C_5 
ROOT
ATOM      1  C   UNL d   1     -41.718-123.063 -50.061  0.00  0.00     0.024 A 
ATOM      2  C   UNL d   1     -41.374-123.009 -51.676  0.00  0.00     0.064 A 
ATOM      3  C   UNL d   1     -41.765-122.347 -50.475  0.00  0.00     0.004 A 
ATOM      4  C   UNL d   1     -41.497-123.752 -50.458  0.00  0.00     0.004 A 
ATOM      5  C   UNL d   1     -41.594-122.320 -51.279  0.00  0.00     0.018 A 
ATOM      6  C   UNL d   1     -41.325-123.725 -51.269  0.00  0.00     0.018 A 
ENDROOT
BRANCH   1   7
ATOM      7  C   UNL d   1     -41.888-123.093 -49.259  0.00  0.00     0.111 A 
ATOM      8  N   UNL d   1     -41.359-123.169 -48.639  0.00  0.00    -0.237 NA
ATOM      9  C   UNL d   1     -41.802-123.172 -47.943  0.00  0.00     0.106 A 
ATOM     10  C   UNL d   1     -42.576-123.100 -48.131  0.00  0.00     0.058 A 
ATOM     11  S   UNL d   1     -42.634-123.051 -48.941  0.00  0.00    -0.066 SA
ENDBRANCH   1   7
BRANCH   2  12
ATOM     12  N   UNL d   1     -41.207-122.955 -52.483  0.00  0.00    -0.301 N 
ATOM     13  C   UNL d   1     -41.126-122.214 -52.823  0.00  0.00     0.100 C 
ATOM     14  C   UNL d   1     -41.125-123.633 -52.933  0.00  0.00     0.100 C 
ENDBRANCH   2  12
TORSDOF 2
ENDMDL
