MODEL 1
REMARK VINA RESULT:      -8.6      0.000      0.000
REMARK  1 active torsions:
REMARK  status: ('A' for Active; 'I' for Inactive)
REMARK    1  A    between atoms: O_8  and  C_4 
ROOT
ATOM      1  C   UNL d   1      53.278  33.589  54.017  0.00  0.00     0.021 A 
ATOM      2  C   UNL d   1      53.458  32.784  53.996  0.00  0.00     0.024 A 
ATOM      3  C   UNL d   1      52.706  33.908  53.514  0.00  0.00     0.103 A 
ATOM      4  C   UNL d   1      53.069  32.290  53.472  0.00  0.00     0.094 A 
ATOM      5  C   UNL d   1      52.312  33.412  52.983  0.00  0.00     0.023 A 
ATOM      6  C   UNL d   1      52.492  32.608  52.963  0.00  0.00     0.026 A 
ATOM      7  N   UNL d   1      52.534  34.718  53.544  0.00  0.00    -0.148 N 
ATOM      8  C   UNL d   1      53.670  34.085  54.545  0.00  0.00     0.002 A 
ATOM      9  C   UNL d   1      54.030  32.479  54.503  0.00  0.00     0.002 A 
ATOM     10  C   UNL d   1      54.244  33.779  55.054  0.00  0.00     0.000 A 
ATOM     11  C   UNL d   1      54.425  32.975  55.033  0.00  0.00     0.000 A 
ENDROOT
BRANCH   4  12
ATOM     12  O   UNL d   1      53.251  31.482  53.451  0.00  0.00    -0.328 OA
ATOM     13  C   UNL d   1      52.825  30.977  52.965  0.00  0.00     0.181 C 
ENDBRANCH   4  12
TORSDOF 1
ENDMDL
MODEL 2
REMARK VINA RESULT:      -8.5      1.365      1.969
REMARK  1 active torsions:
REMARK  status: ('A' for Active; 'I' for Inactive)
REMARK    1  A    between atoms: O_8  and  C_4 
ROOT
ATOM      1  C   UNL d   1      53.559  32.635  54.025  0.00  0.00     0.021 A 
ATOM      2  C   UNL d   1      53.185  33.369  53.983  0.00  0.00     0.024 A 
ATOM      3  C   UNL d   1      53.324  32.012  53.537  0.00  0.00     0.103 A 
ATOM      4  C   UNL d   1      52.572  33.487  53.452  0.00  0.00     0.094 A 
ATOM      5  C   UNL d   1      52.706  32.127  53.001  0.00  0.00     0.023 A 
ATOM      6  C   UNL d   1      52.332  32.862  52.959  0.00  0.00     0.026 A 
ATOM      7  N   UNL d   1      53.707  31.279  53.589  0.00  0.00    -0.148 N 
ATOM      8  C   UNL d   1      54.175  32.517  54.558  0.00  0.00     0.002 A 
ATOM      9  C   UNL d   1      53.429  33.982  54.474  0.00  0.00     0.002 A 
ATOM     10  C   UNL d   1      54.420  33.133  55.052  0.00  0.00     0.000 A 
ATOM     11  C   UNL d   1      54.047  33.867  55.010  0.00  0.00     0.000 A 
ENDROOT
BRANCH   4  12
ATOM     12  O   UNL d   1      52.197  34.225  53.410  0.00  0.00    -0.328 OA
ATOM     13  C   UNL d   1      51.587  34.346  52.875  0.00  0.00     0.181 C 
ENDBRANCH   4  12
TORSDOF 1
ENDMDL
MODEL 3
REMARK VINA RESULT:      -8.4      1.333      2.489
REMARK  1 active torsions:
REMARK  status: ('A' for Active; 'I' for Inactive)
REMARK    1  A    between atoms: O_8  and  C_4 
ROOT
ATOM      1  C   UNL d   1      52.811  33.041  53.314  0.00  0.00     0.021 A 
ATOM      2  C   UNL d   1      53.218  33.581  53.787  0.00  0.00     0.024 A 
ATOM      3  C   UNL d   1      53.044  32.250  53.280  0.00  0.00     0.103 A 
ATOM      4  C   UNL d   1      53.860  33.334  54.231  0.00  0.00     0.094 A 
ATOM      5  C   UNL d   1      53.691  31.997  53.726  0.00  0.00     0.023 A 
ATOM      6  C   UNL d   1      54.097  32.537  54.200  0.00  0.00     0.026 A 
ATOM      7  N   UNL d   1      52.627  31.717  52.800  0.00  0.00    -0.148 N 
ATOM      8  C   UNL d   1      52.166  33.290  52.868  0.00  0.00     0.002 A 
ATOM      9  C   UNL d   1      52.977  34.367  53.813  0.00  0.00     0.002 A 
ATOM     10  C   UNL d   1      51.923  34.079  52.893  0.00  0.00     0.000 A 
ATOM     11  C   UNL d   1      52.329  34.619  53.366  0.00  0.00     0.000 A 
ENDROOT
BRANCH   4  12
ATOM     12  O   UNL d   1      54.269  33.877  54.707  0.00  0.00    -0.328 OA
ATOM     13  C   UNL d   1      54.921  33.634  55.140  0.00  0.00     0.181 C 
ENDBRANCH   4  12
TORSDOF 1
ENDMDL
MODEL 4
REMARK VINA RESULT:      -8.3      0.946      2.181
REMARK  1 active torsions:
REMARK  status: ('A' for Active; 'I' for Inactive)
REMARK    1  A    between atoms: O_8  and  C_4 
ROOT
ATOM      1  C   UNL d   1      52.873  32.588  53.373  0.00  0.00     0.021 A 
ATOM      2  C   UNL d   1      53.534  32.452  53.848  0.00  0.00     0.024 A 
ATOM      3  C   UNL d   1      52.543  33.342  53.313  0.00  0.00     0.103 A 
ATOM      4  C   UNL d   1      53.871  33.070  54.268  0.00  0.00     0.094 A 
ATOM      5  C   UNL d   1      52.881  33.967  53.735  0.00  0.00     0.023 A 
ATOM      6  C   UNL d   1      53.541  33.832  54.210  0.00  0.00     0.026 A 
ATOM      7  N   UNL d   1      51.879  33.466  52.832  0.00  0.00    -0.148 N 
ATOM      8  C   UNL d   1      52.535  31.967  52.952  0.00  0.00     0.002 A 
ATOM      9  C   UNL d   1      53.853  31.696  53.900  0.00  0.00     0.002 A 
ATOM     10  C   UNL d   1      52.856  31.207  53.003  0.00  0.00     0.000 A 
ATOM     11  C   UNL d   1      53.516  31.071  53.478  0.00  0.00     0.000 A 
ENDROOT
BRANCH   4  12
ATOM     12  O   UNL d   1      54.535  32.933  54.745  0.00  0.00    -0.328 OA
ATOM     13  C   UNL d   1      54.886  33.554  55.149  0.00  0.00     0.181 C 
ENDBRANCH   4  12
TORSDOF 1
ENDMDL
MODEL 5
REMARK VINA RESULT:      -8.2      1.243      2.299
REMARK  1 active torsions:
REMARK  status: ('A' for Active; 'I' for Inactive)
REMARK    1  A    between atoms: O_8  and  C_4 
ROOT
ATOM      1  C   UNL d   1      53.548  32.566  54.046  0.00  0.00     0.021 A 
ATOM      2  C   UNL d   1      52.971  32.725  53.479  0.00  0.00     0.024 A 
ATOM      3  C   UNL d   1      53.819  33.160  54.552  0.00  0.00     0.103 A 
ATOM      4  C   UNL d   1      52.659  33.479  53.411  0.00  0.00     0.094 A 
ATOM      5  C   UNL d   1      53.506  33.922  54.487  0.00  0.00     0.023 A 
ATOM      6  C   UNL d   1      52.929  34.080  53.919  0.00  0.00     0.026 A 
ATOM      7  N   UNL d   1      54.399  32.988  55.119  0.00  0.00    -0.148 N 
ATOM      8  C   UNL d   1      53.862  31.808  54.113  0.00  0.00     0.002 A 
ATOM      9  C   UNL d   1      52.710  32.125  52.981  0.00  0.00     0.002 A 
ATOM     10  C   UNL d   1      53.600  31.204  53.613  0.00  0.00     0.000 A 
ATOM     11  C   UNL d   1      53.023  31.363  53.045  0.00  0.00     0.000 A 
ENDROOT
BRANCH   4  12
ATOM     12  O   UNL d   1      52.079  33.639  52.841  0.00  0.00    -0.328 OA
ATOM     13  C   UNL d   1      51.740  34.383  52.797  0.00  0.00     0.181 C 
ENDBRANCH   4  12
TORSDOF 1
ENDMDL
