MODEL 1
REMARK VINA RESULT:      28.2      0.000      0.000
REMARK  5 active torsions:
REMARK  status: ('A' for Active; 'I' for Inactive)
REMARK    1  A    between atoms: N_2  and  C_1 
REMARK    2  A    between atoms: C_10  and  C_5 
REMARK       I    between atoms: N_6  and  C_7 
REMARK    3  A    between atoms: C_8  and  N_6 
REMARK    4  A    between atoms: C_7  and  C_11 
REMARK    5  A    between atoms: C_11  and  C_10 
ROOT
ATOM      1  N   UNL d   1     -56.864 -98.853 -44.529  0.00  0.00    -0.208 NA
ATOM      2  C   UNL d   1     -56.238 -98.815 -45.066  0.00  0.00     0.279 C 
ATOM      3  O   UNL d   1     -56.384 -98.756 -45.863  0.00  0.00    -0.265 OA
ENDROOT
BRANCH   2   4
ATOM      4  C   UNL d   1     -55.462 -98.839 -44.789  0.00  0.00     0.063 C 
BRANCH   4   5
ATOM      5  C   UNL d   1     -55.281 -99.229 -44.095  0.00  0.00     0.011 C 
BRANCH   5   6
ATOM      6  C   UNL d   1     -55.133-100.056 -44.098  0.00  0.00     0.031 A 
ATOM      7  S   UNL d   1     -55.274-100.634 -44.666  0.00  0.00    -0.064 SA
ATOM      8  C   UNL d   1     -55.012-101.339 -44.352  0.00  0.00     0.156 A 
ATOM      9  C   UNL d   1     -54.714-101.219 -43.612  0.00  0.00     0.031 A 
ATOM     10  C   UNL d   1     -54.791-100.410 -43.452  0.00  0.00     0.009 A 
BRANCH   8  11
ATOM     11  N   UNL d   1     -55.052-102.060 -44.748  0.00  0.00    -0.107 N 
ATOM     12  O   UNL d   1     -55.310-102.745 -44.366  0.00  0.00    -0.531 OA
ATOM     13  O   UNL d   1     -54.831-102.092 -45.536  0.00  0.00    -0.531 OA
ENDBRANCH   8  11
ENDBRANCH   5   6
ENDBRANCH   4   5
ENDBRANCH   2   4
BRANCH   1  14
ATOM     14  C   UNL d   1     -57.640 -98.829 -44.806  0.00  0.00     0.085 A 
ATOM     15  C   UNL d   1     -58.269 -98.826 -44.268  0.00  0.00     0.018 A 
ATOM     16  C   UNL d   1     -59.029 -98.803 -44.540  0.00  0.00     0.002 A 
ATOM     17  C   UNL d   1     -58.107 -98.848 -43.448  0.00  0.00     0.002 C 
ATOM     18  C   UNL d   1     -59.177 -98.782 -45.355  0.00  0.00     0.000 A 
ATOM     19  C   UNL d   1     -58.543 -98.785 -45.898  0.00  0.00     0.002 A 
ATOM     20  C   UNL d   1     -59.959 -98.759 -45.615  0.00  0.00     0.000 C 
ATOM     21  C   UNL d   1     -57.790 -98.809 -45.607  0.00  0.00     0.019 A 
ENDBRANCH   1  14
TORSDOF 5
ENDMDL
