MODEL 1
REMARK VINA RESULT:      -2.8      0.000      0.000
REMARK  1 active torsions:
REMARK  status: ('A' for Active; 'I' for Inactive)
REMARK    1  A    between atoms: N_9  and  C_4 
ROOT
ATOM      1  N   UNL d   1     -41.610-122.626 -51.530  0.00  0.00    -0.195 N 
ATOM      2  C   UNL d   1     -41.459-122.216 -52.236  0.00  0.00     0.168 A 
ATOM      3  C   UNL d   1     -41.467-122.606 -52.955  0.00  0.00     0.073 A 
ATOM      4  C   UNL d   1     -41.598-122.219 -50.822  0.00  0.00     0.154 A 
ATOM      5  N   UNL d   1     -41.779-123.817 -52.259  0.00  0.00    -0.143 NA
ATOM      6  C   UNL d   1     -41.627-123.407 -52.964  0.00  0.00     0.185 A 
ATOM      7  N   UNL d   1     -41.299-121.410 -52.213  0.00  0.00    -0.227 NA
ATOM      8  C   UNL d   1     -41.317-122.200 -53.653  0.00  0.00     0.007 A 
ATOM      9  N   UNL d   1     -41.639-123.817 -53.684  0.00  0.00    -0.225 NA
ATOM     10  C   UNL d   1     -41.440-121.422 -50.794  0.00  0.00     0.057 A 
ATOM     11  C   UNL d   1     -41.325-122.590 -54.371  0.00  0.00     0.019 A 
ATOM     12  C   UNL d   1     -41.288-121.012 -51.500  0.00  0.00     0.086 A 
ATOM     13  C   UNL d   1     -41.488-123.407 -54.390  0.00  0.00     0.083 A 
ATOM     14  C   UNL d   1     -41.157-121.391 -53.629  0.00  0.00     0.000 C 
ATOM     15  C   UNL d   1     -41.123-120.175 -51.473  0.00  0.00     0.021 C 
ATOM     16  C   UNL d   1     -41.498-123.801 -55.102  0.00  0.00     0.021 C 
ENDROOT
BRANCH   4  17
ATOM     17  N   UNL d   1     -41.755-122.649 -50.098  0.00  0.00    -0.271 N 
ATOM     18  C   UNL d   1     -41.193-123.104 -49.646  0.00  0.00     0.184 A 
ATOM     19  N   UNL d   1     -41.597-123.428 -48.980  0.00  0.00    -0.222 NA
ATOM     20  C   UNL d   1     -42.419-123.175 -49.013  0.00  0.00     0.120 A 
ATOM     21  C   UNL d   1     -42.511-122.694 -49.706  0.00  0.00     0.104 A 
ENDBRANCH   4  17
TORSDOF 1
ENDMDL
