MODEL 1
REMARK VINA RESULT:      16.6      0.000      0.000
REMARK  3 active torsions:
REMARK  status: ('A' for Active; 'I' for Inactive)
REMARK    1  A    between atoms: C_6  and  C_1 
REMARK    2  A    between atoms: C_7  and  C_5 
REMARK    3  A    between atoms: O_15  and  C_12 
ROOT
ATOM      1  C   UNL d   1      57.295  49.574  50.266  0.00  0.00     0.169 A 
ATOM      2  C   UNL d   1      57.524  49.515  50.992  0.00  0.00     0.048 A 
ATOM      3  N   UNL d   1      58.543  49.704  49.883  0.00  0.00    -0.148 NA
ATOM      4  N   UNL d   1      57.805  49.668  49.719  0.00  0.00    -0.142 NA
ATOM      5  C   UNL d   1      58.772  49.646  50.609  0.00  0.00     0.105 A 
ENDROOT
BRANCH   5   6
ATOM      6  C   UNL d   1      59.497  49.659  50.990  0.00  0.00     0.020 A 
ATOM      7  C   UNL d   1      59.530  49.692  51.817  0.00  0.00     0.004 A 
ATOM      8  C   UNL d   1      60.260  49.706  52.202  0.00  0.00     0.024 A 
ATOM      9  C   UNL d   1      60.961  49.685  51.762  0.00  0.00     0.094 A 
ATOM     10  C   UNL d   1      60.928  49.651  50.936  0.00  0.00     0.024 A 
ATOM     11  C   UNL d   1      60.194  49.638  50.552  0.00  0.00     0.004 A 
BRANCH   9  12
ATOM     12  O   UNL d   1      61.686  49.698  52.144  0.00  0.00    -0.328 OA
ATOM     13  C   UNL d   1      61.721  49.677  52.966  0.00  0.00     0.181 C 
ENDBRANCH   9  12
ENDBRANCH   5   6
BRANCH   1  14
ATOM     14  C   UNL d   1      56.556  49.537  50.102  0.00  0.00     0.231 C 
ATOM     15  O   UNL d   1      56.048  49.464  50.665  0.00  0.00    -0.643 OA
ATOM     16  O   UNL d   1      56.320  49.573  49.387  0.00  0.00    -0.643 OA
ENDBRANCH   1  14
TORSDOF 3
ENDMDL
MODEL 2
REMARK VINA RESULT:      17.7      1.064      4.168
REMARK  3 active torsions:
REMARK  status: ('A' for Active; 'I' for Inactive)
REMARK    1  A    between atoms: C_6  and  C_1 
REMARK    2  A    between atoms: C_7  and  C_5 
REMARK    3  A    between atoms: O_15  and  C_12 
ROOT
ATOM      1  C   UNL d   1      60.336  49.601  51.763  0.00  0.00     0.169 A 
ATOM      2  C   UNL d   1      60.214  49.643  51.011  0.00  0.00     0.048 A 
ATOM      3  N   UNL d   1      59.041  49.575  51.972  0.00  0.00    -0.148 NA
ATOM      4  N   UNL d   1      59.751  49.567  52.237  0.00  0.00    -0.142 NA
ATOM      5  C   UNL d   1      58.919  49.617  51.221  0.00  0.00     0.105 A 
ENDROOT
BRANCH   5   6
ATOM      6  C   UNL d   1      58.253  49.638  50.743  0.00  0.00     0.020 A 
ATOM      7  C   UNL d   1      58.335  49.643  49.919  0.00  0.00     0.004 A 
ATOM      8  C   UNL d   1      57.665  49.664  49.437  0.00  0.00     0.024 A 
ATOM      9  C   UNL d   1      56.910  49.680  49.776  0.00  0.00     0.094 A 
ATOM     10  C   UNL d   1      56.829  49.675  50.600  0.00  0.00     0.024 A 
ATOM     11  C   UNL d   1      57.503  49.654  51.081  0.00  0.00     0.004 A 
BRANCH   9  12
ATOM     12  O   UNL d   1      56.245  49.700  49.298  0.00  0.00    -0.328 OA
ATOM     13  C   UNL d   1      56.052  49.052  48.830  0.00  0.00     0.181 C 
ENDBRANCH   9  12
ENDBRANCH   5   6
BRANCH   1  14
ATOM     14  C   UNL d   1      61.047  49.593  52.027  0.00  0.00     0.231 C 
ATOM     15  O   UNL d   1      61.626  49.474  51.547  0.00  0.00    -0.643 OA
ATOM     16  O   UNL d   1      61.184  49.702  52.760  0.00  0.00    -0.643 OA
ENDBRANCH   1  14
TORSDOF 3
ENDMDL
