MODEL 1
REMARK VINA RESULT:      -6.2      0.000      0.000
REMARK  4 active torsions:
REMARK  status: ('A' for Active; 'I' for Inactive)
REMARK    1  A    between atoms: C_11  and  N_2 
REMARK    2  A    between atoms: C_12  and  C_6 
REMARK    3  A    between atoms: C_15  and  C_11 
REMARK    4  A    between atoms: O_29  and  C_24 
ROOT
ATOM      1  C   UNL d   1     -39.156  14.770  18.606  0.00  0.00     0.137 A 
ATOM      2  N   UNL d   1     -39.317  14.941  20.013  0.00  0.00    -0.256 N 
ATOM      3  C   UNL d   1     -38.598  14.173  18.740  0.00  0.00     0.192 A 
ATOM      4  C   UNL d   1     -39.516  15.154  19.243  0.00  0.00     0.272 A 
ATOM      5  N   UNL d   1     -38.400  13.960  19.505  0.00  0.00    -0.204 NA
ATOM      6  C   UNL d   1     -38.760  14.345  20.150  0.00  0.00     0.152 A 
ATOM      7  C   UNL d   1     -39.354  14.982  17.833  0.00  0.00     0.205 A 
ATOM      8  C   UNL d   1     -39.002  14.606  17.202  0.00  0.00     0.062 A 
ATOM      9  O   UNL d   1     -38.245  13.796  18.101  0.00  0.00    -0.289 OA
ATOM     10  C   UNL d   1     -38.446  14.011  17.331  0.00  0.00     0.107 A 
ATOM     11  C   UNL d   1     -38.087  13.627  16.686  0.00  0.00     0.049 A 
ATOM     12  C   UNL d   1     -39.202  14.821  16.428  0.00  0.00     0.007 A 
ATOM     13  O   UNL d   1     -40.070  15.747  19.106  0.00  0.00    -0.266 OA
ATOM     14  O   UNL d   1     -39.909  15.577  17.705  0.00  0.00    -0.286 OA
ATOM     15  C   UNL d   1     -38.288  13.843  15.920  0.00  0.00     0.096 A 
ATOM     16  C   UNL d   1     -38.843  14.437  15.791  0.00  0.00     0.024 A 
ENDROOT
BRANCH   6  17
ATOM     17  C   UNL d   1     -38.559  14.128  20.920  0.00  0.00     0.035 A 
ATOM     18  C   UNL d   1     -38.774  13.388  21.209  0.00  0.00     0.003 A 
ATOM     19  C   UNL d   1     -38.567  13.184  21.978  0.00  0.00     0.000 A 
ATOM     20  C   UNL d   1     -38.152  13.708  22.457  0.00  0.00     0.000 A 
ATOM     21  C   UNL d   1     -37.940  14.451  22.160  0.00  0.00     0.000 A 
ATOM     22  C   UNL d   1     -37.950  13.496  23.226  0.00  0.00     0.000 C 
ATOM     23  C   UNL d   1     -38.142  14.662  21.391  0.00  0.00     0.003 A 
ENDBRANCH   6  17
BRANCH   2  24
ATOM     24  C   UNL d   1     -39.676  15.324  20.649  0.00  0.00     0.109 C 
BRANCH  24  25
ATOM     25  C   UNL d   1     -40.508  15.314  20.733  0.00  0.00     0.118 A 
ATOM     26  O   UNL d   1     -41.009  14.704  20.499  0.00  0.00    -0.304 OA
ATOM     27  C   UNL d   1     -41.788  14.927  20.689  0.00  0.00     0.123 A 
ATOM     28  C   UNL d   1     -41.762  15.683  21.043  0.00  0.00     0.029 A 
ATOM     29  C   UNL d   1     -40.960  15.922  21.069  0.00  0.00     0.028 A 
ENDBRANCH  24  25
ENDBRANCH   2  24
BRANCH  15  30
ATOM     30  O   UNL d   1     -37.940  13.472  15.280  0.00  0.00    -0.328 OA
ATOM     31  C   UNL d   1     -37.944  13.841  14.545  0.00  0.00     0.181 C 
ENDBRANCH  15  30
TORSDOF 4
ENDMDL
MODEL 2
REMARK VINA RESULT:      -6.0      7.025      9.691
REMARK  4 active torsions:
REMARK  status: ('A' for Active; 'I' for Inactive)
REMARK    1  A    between atoms: C_11  and  N_2 
REMARK    2  A    between atoms: C_12  and  C_6 
REMARK    3  A    between atoms: C_15  and  C_11 
REMARK    4  A    between atoms: O_29  and  C_24 
ROOT
ATOM      1  C   UNL d   1     -46.821  12.791  22.882  0.00  0.00     0.137 A 
ATOM      2  N   UNL d   1     -48.169  13.092  23.236  0.00  0.00    -0.256 N 
ATOM      3  C   UNL d   1     -46.749  13.529  22.514  0.00  0.00     0.192 A 
ATOM      4  C   UNL d   1     -47.531  12.572  23.243  0.00  0.00     0.272 A 
ATOM      5  N   UNL d   1     -47.384  14.048  22.507  0.00  0.00    -0.204 NA
ATOM      6  C   UNL d   1     -48.101  13.831  22.870  0.00  0.00     0.152 A 
ATOM      7  C   UNL d   1     -46.179  12.271  22.887  0.00  0.00     0.205 A 
ATOM      8  C   UNL d   1     -45.478  12.483  22.532  0.00  0.00     0.062 A 
ATOM      9  O   UNL d   1     -46.040  13.740  22.157  0.00  0.00    -0.289 OA
ATOM     10  C   UNL d   1     -45.402  13.217  22.165  0.00  0.00     0.107 A 
ATOM     11  C   UNL d   1     -44.685  13.433  21.803  0.00  0.00     0.049 A 
ATOM     12  C   UNL d   1     -44.836  11.959  22.539  0.00  0.00     0.007 A 
ATOM     13  O   UNL d   1     -47.598  11.837  23.607  0.00  0.00    -0.266 OA
ATOM     14  O   UNL d   1     -46.254  11.538  23.253  0.00  0.00    -0.286 OA
ATOM     15  C   UNL d   1     -44.051  12.911  21.812  0.00  0.00     0.096 A 
ATOM     16  C   UNL d   1     -44.126  12.178  22.178  0.00  0.00     0.024 A 
ENDROOT
BRANCH   6  17
ATOM     17  C   UNL d   1     -48.739  14.355  22.862  0.00  0.00     0.035 A 
ATOM     18  C   UNL d   1     -49.124  14.521  22.154  0.00  0.00     0.003 A 
ATOM     19  C   UNL d   1     -49.759  15.045  22.159  0.00  0.00     0.000 A 
ATOM     20  C   UNL d   1     -50.008  15.399  22.857  0.00  0.00     0.000 A 
ATOM     21  C   UNL d   1     -49.615  15.227  23.565  0.00  0.00     0.000 A 
ATOM     22  C   UNL d   1     -50.644  15.922  22.853  0.00  0.00     0.000 C 
ATOM     23  C   UNL d   1     -48.980  14.704  23.569  0.00  0.00     0.003 A 
ENDBRANCH   6  17
BRANCH   2  24
ATOM     24  C   UNL d   1     -48.878  12.874  23.597  0.00  0.00     0.109 C 
BRANCH  24  25
ATOM     25  C   UNL d   1     -49.354  12.274  23.262  0.00  0.00     0.118 A 
ATOM     26  O   UNL d   1     -49.395  12.079  22.463  0.00  0.00    -0.304 OA
ATOM     27  C   UNL d   1     -49.937  11.452  22.381  0.00  0.00     0.123 A 
ATOM     28  C   UNL d   1     -50.230  11.262  23.139  0.00  0.00     0.029 A 
ATOM     29  C   UNL d   1     -49.864  11.777  23.688  0.00  0.00     0.028 A 
ENDBRANCH  24  25
ENDBRANCH   2  24
BRANCH  15  30
ATOM     30  O   UNL d   1     -43.343  13.114  21.458  0.00  0.00    -0.328 OA
ATOM     31  C   UNL d   1     -42.688  12.624  21.549  0.00  0.00     0.181 C 
ENDBRANCH  15  30
TORSDOF 4
ENDMDL
MODEL 3
REMARK VINA RESULT:      -5.4      1.322      4.585
REMARK  4 active torsions:
REMARK  status: ('A' for Active; 'I' for Inactive)
REMARK    1  A    between atoms: C_11  and  N_2 
REMARK    2  A    between atoms: C_12  and  C_6 
REMARK    3  A    between atoms: C_15  and  C_11 
REMARK    4  A    between atoms: O_29  and  C_24 
ROOT
ATOM      1  C   UNL d   1     -39.450  14.831  19.430  0.00  0.00     0.137 A 
ATOM      2  N   UNL d   1     -39.441  15.053  18.022  0.00  0.00    -0.256 N 
ATOM      3  C   UNL d   1     -38.955  14.175  19.333  0.00  0.00     0.192 A 
ATOM      4  C   UNL d   1     -39.693  15.270  18.775  0.00  0.00     0.272 A 
ATOM      5  N   UNL d   1     -38.704  13.958  18.584  0.00  0.00    -0.204 NA
ATOM      6  C   UNL d   1     -38.947  14.398  17.920  0.00  0.00     0.152 A 
ATOM      7  C   UNL d   1     -39.702  15.047  20.187  0.00  0.00     0.205 A 
ATOM      8  C   UNL d   1     -39.464  14.616  20.836  0.00  0.00     0.062 A 
ATOM      9  O   UNL d   1     -38.717  13.743  19.990  0.00  0.00    -0.289 OA
ATOM     10  C   UNL d   1     -38.971  13.962  20.743  0.00  0.00     0.107 A 
ATOM     11  C   UNL d   1     -38.728  13.523  21.407  0.00  0.00     0.049 A 
ATOM     12  C   UNL d   1     -39.717  14.835  21.593  0.00  0.00     0.007 A 
ATOM     13  O   UNL d   1     -40.186  15.922  18.876  0.00  0.00    -0.266 OA
ATOM     14  O   UNL d   1     -40.194  15.700  20.280  0.00  0.00    -0.286 OA
ATOM     15  C   UNL d   1     -38.982  13.743  22.156  0.00  0.00     0.096 A 
ATOM     16  C   UNL d   1     -39.474  14.396  22.249  0.00  0.00     0.024 A 
ENDROOT
BRANCH   6  17
ATOM     17  C   UNL d   1     -38.692  14.177  17.167  0.00  0.00     0.035 A 
ATOM     18  C   UNL d   1     -38.226  14.691  16.724  0.00  0.00     0.003 A 
ATOM     19  C   UNL d   1     -37.979  14.460  15.975  0.00  0.00     0.000 A 
ATOM     20  C   UNL d   1     -38.192  13.728  15.668  0.00  0.00     0.000 A 
ATOM     21  C   UNL d   1     -38.661  13.217  16.118  0.00  0.00     0.000 A 
ATOM     22  C   UNL d   1     -37.940  13.505  14.916  0.00  0.00     0.000 C 
ATOM     23  C   UNL d   1     -38.912  13.441  16.869  0.00  0.00     0.003 A 
ENDBRANCH   6  17
BRANCH   2  24
ATOM     24  C   UNL d   1     -39.685  15.492  17.367  0.00  0.00     0.109 C 
BRANCH  24  25
ATOM     25  C   UNL d   1     -40.495  15.538  17.167  0.00  0.00     0.118 A 
ATOM     26  O   UNL d   1     -41.118  15.214  17.597  0.00  0.00    -0.304 OA
ATOM     27  C   UNL d   1     -41.825  15.393  17.197  0.00  0.00     0.123 A 
ATOM     28  C   UNL d   1     -41.631  15.831  16.513  0.00  0.00     0.029 A 
ATOM     29  C   UNL d   1     -40.799  15.920  16.497  0.00  0.00     0.028 A 
ENDBRANCH  24  25
ENDBRANCH   2  24
BRANCH  15  30
ATOM     30  O   UNL d   1     -38.749  13.317  22.813  0.00  0.00    -0.328 OA
ATOM     31  C   UNL d   1     -37.980  13.397  23.097  0.00  0.00     0.181 C 
ENDBRANCH  15  30
TORSDOF 4
ENDMDL
MODEL 4
REMARK VINA RESULT:      -4.5      6.775      9.287
REMARK  4 active torsions:
REMARK  status: ('A' for Active; 'I' for Inactive)
REMARK    1  A    between atoms: C_11  and  N_2 
REMARK    2  A    between atoms: C_12  and  C_6 
REMARK    3  A    between atoms: C_15  and  C_11 
REMARK    4  A    between atoms: O_29  and  C_24 
ROOT
ATOM      1  C   UNL d   1     -46.591  13.609  22.602  0.00  0.00     0.137 A 
ATOM      2  N   UNL d   1     -47.957  13.646  23.008  0.00  0.00    -0.256 N 
ATOM      3  C   UNL d   1     -46.678  12.817  22.374  0.00  0.00     0.192 A 
ATOM      4  C   UNL d   1     -47.231  14.023  22.919  0.00  0.00     0.272 A 
ATOM      5  N   UNL d   1     -47.400  12.441  22.462  0.00  0.00    -0.204 NA
ATOM      6  C   UNL d   1     -48.048  12.856  22.782  0.00  0.00     0.152 A 
ATOM      7  C   UNL d   1     -45.861  13.984  22.512  0.00  0.00     0.205 A 
ATOM      8  C   UNL d   1     -45.228  13.579  22.199  0.00  0.00     0.062 A 
ATOM      9  O   UNL d   1     -46.037  12.411  22.059  0.00  0.00    -0.289 OA
ATOM     10  C   UNL d   1     -45.310  12.791  21.971  0.00  0.00     0.107 A 
ATOM     11  C   UNL d   1     -44.662  12.378  21.652  0.00  0.00     0.049 A 
ATOM     12  C   UNL d   1     -44.497  13.958  22.110  0.00  0.00     0.007 A 
ATOM     13  O   UNL d   1     -47.140  14.809  23.145  0.00  0.00    -0.266 OA
ATOM     14  O   UNL d   1     -45.779  14.771  22.739  0.00  0.00    -0.286 OA
ATOM     15  C   UNL d   1     -43.939  12.757  21.565  0.00  0.00     0.096 A 
ATOM     16  C   UNL d   1     -43.857  13.544  21.793  0.00  0.00     0.024 A 
ENDROOT
BRANCH   6  17
ATOM     17  C   UNL d   1     -48.775  12.475  22.870  0.00  0.00     0.035 A 
ATOM     18  C   UNL d   1     -49.051  12.287  23.622  0.00  0.00     0.003 A 
ATOM     19  C   UNL d   1     -49.777  11.908  23.696  0.00  0.00     0.000 A 
ATOM     20  C   UNL d   1     -50.224  11.717  23.033  0.00  0.00     0.000 A 
ATOM     21  C   UNL d   1     -49.939  11.909  22.281  0.00  0.00     0.000 A 
ATOM     22  C   UNL d   1     -50.949  11.337  23.117  0.00  0.00     0.000 C 
ATOM     23  C   UNL d   1     -49.214  12.289  22.197  0.00  0.00     0.003 A 
ENDBRANCH   6  17
BRANCH   2  24
ATOM     24  C   UNL d   1     -48.597  14.061  23.325  0.00  0.00     0.109 C 
BRANCH  24  25
ATOM     25  C   UNL d   1     -48.894  14.739  22.938  0.00  0.00     0.118 A 
ATOM     26  O   UNL d   1     -48.825  14.904  22.134  0.00  0.00    -0.304 OA
ATOM     27  C   UNL d   1     -49.200  15.634  21.991  0.00  0.00     0.123 A 
ATOM     28  C   UNL d   1     -49.500  15.917  22.717  0.00  0.00     0.029 A 
ATOM     29  C   UNL d   1     -49.308  15.355  23.307  0.00  0.00     0.028 A 
ENDBRANCH  24  25
ENDBRANCH   2  24
BRANCH  15  30
ATOM     30  O   UNL d   1     -43.298  12.359  21.252  0.00  0.00    -0.328 OA
ATOM     31  C   UNL d   1     -42.623  12.780  21.041  0.00  0.00     0.181 C 
ENDBRANCH  15  30
TORSDOF 4
ENDMDL
MODEL 5
REMARK VINA RESULT:      -4.0      1.270      2.454
REMARK  4 active torsions:
REMARK  status: ('A' for Active; 'I' for Inactive)
REMARK    1  A    between atoms: C_11  and  N_2 
REMARK    2  A    between atoms: C_12  and  C_6 
REMARK    3  A    between atoms: C_15  and  C_11 
REMARK    4  A    between atoms: O_29  and  C_24 
ROOT
ATOM      1  C   UNL d   1     -39.391  15.089  19.136  0.00  0.00     0.137 A 
ATOM      2  N   UNL d   1     -40.101  14.974  20.368  0.00  0.00    -0.256 N 
ATOM      3  C   UNL d   1     -39.929  14.573  18.775  0.00  0.00     0.192 A 
ATOM      4  C   UNL d   1     -39.477  15.289  19.933  0.00  0.00     0.272 A 
ATOM      5  N   UNL d   1     -40.550  14.259  19.207  0.00  0.00    -0.204 NA
ATOM      6  C   UNL d   1     -40.640  14.459  20.010  0.00  0.00     0.152 A 
ATOM      7  C   UNL d   1     -38.766  15.404  18.698  0.00  0.00     0.205 A 
ATOM      8  C   UNL d   1     -38.678  15.208  17.912  0.00  0.00     0.062 A 
ATOM      9  O   UNL d   1     -39.837  14.379  17.982  0.00  0.00    -0.289 OA
ATOM     10  C   UNL d   1     -39.211  14.695  17.549  0.00  0.00     0.107 A 
ATOM     11  C   UNL d   1     -39.121  14.496  16.746  0.00  0.00     0.049 A 
ATOM     12  C   UNL d   1     -38.050  15.525  17.475  0.00  0.00     0.007 A 
ATOM     13  O   UNL d   1     -38.940  15.802  20.288  0.00  0.00    -0.266 OA
ATOM     14  O   UNL d   1     -38.233  15.916  19.060  0.00  0.00    -0.286 OA
ATOM     15  C   UNL d   1     -38.497  14.813  16.316  0.00  0.00     0.096 A 
ATOM     16  C   UNL d   1     -37.964  15.325  16.678  0.00  0.00     0.024 A 
ENDROOT
BRANCH   6  17
ATOM     17  C   UNL d   1     -41.267  14.142  20.443  0.00  0.00     0.035 A 
ATOM     18  C   UNL d   1     -41.252  13.350  20.667  0.00  0.00     0.003 A 
ATOM     19  C   UNL d   1     -41.882  13.045  21.099  0.00  0.00     0.000 A 
ATOM     20  C   UNL d   1     -42.520  13.520  21.306  0.00  0.00     0.000 A 
ATOM     21  C   UNL d   1     -42.528  14.315  21.078  0.00  0.00     0.000 A 
ATOM     22  C   UNL d   1     -43.147  13.207  21.738  0.00  0.00     0.000 C 
ATOM     23  C   UNL d   1     -41.901  14.628  20.646  0.00  0.00     0.003 A 
ENDBRANCH   6  17
BRANCH   2  24
ATOM     24  C   UNL d   1     -40.187  15.175  21.163  0.00  0.00     0.109 C 
BRANCH  24  25
ATOM     25  C   UNL d   1     -39.551  15.071  21.696  0.00  0.00     0.118 A 
ATOM     26  O   UNL d   1     -39.125  14.375  21.809  0.00  0.00    -0.304 OA
ATOM     27  C   UNL d   1     -38.545  14.523  22.388  0.00  0.00     0.123 A 
ATOM     28  C   UNL d   1     -38.618  15.319  22.631  0.00  0.00     0.029 A 
ATOM     29  C   UNL d   1     -39.248  15.659  22.196  0.00  0.00     0.028 A 
ENDBRANCH  24  25
ENDBRANCH   2  24
BRANCH  15  30
ATOM     30  O   UNL d   1     -38.400  14.623  15.527  0.00  0.00    -0.328 OA
ATOM     31  C   UNL d   1     -37.940  13.972  15.319  0.00  0.00     0.181 C 
ENDBRANCH  15  30
TORSDOF 4
ENDMDL
