MODEL 1
REMARK VINA RESULT:      -3.7      0.000      0.000
REMARK  5 active torsions:
REMARK  status: ('A' for Active; 'I' for Inactive)
REMARK    1  A    between atoms: N_9  and  S_1 
REMARK    2  A    between atoms: C_11  and  S_1 
REMARK    3  A    between atoms: C_5  and  C_10 
REMARK    4  A    between atoms: C_12  and  N_9 
REMARK    5  A    between atoms: C_10  and  C_12 
ROOT
ATOM      1  C   UNL d   1      56.639  -0.342  32.041  0.00  0.00     0.041 C 
ENDROOT
BRANCH   1   2
ATOM      2  C   UNL d   1      56.326  -0.018  32.734  0.00  0.00     0.090 A 
ATOM      3  N   UNL d   1      55.521   0.030  32.918  0.00  0.00    -0.238 NA
ATOM      4  C   UNL d   1      55.458   0.391  33.660  0.00  0.00     0.111 A 
ATOM      5  C   UNL d   1      54.751   0.554  34.068  0.00  0.00     0.028 C 
ATOM      6  S   UNL d   1      56.216   0.564  33.933  0.00  0.00    -0.066 SA
ATOM      7  C   UNL d   1      56.756   0.309  33.356  0.00  0.00     0.056 A 
ENDBRANCH   1   2
BRANCH   1   8
ATOM      8  C   UNL d   1      57.122   0.103  31.553  0.00  0.00     0.114 C 
BRANCH   8   9
ATOM      9  N   UNL d   1      57.346  -0.198  30.803  0.00  0.00    -0.157 NA
BRANCH   9  10
ATOM     10  S   UNL d   1      57.861   0.240  30.330  0.00  0.00     0.286 S 
ATOM     11  O   UNL d   1      57.217   0.682  30.047  0.00  0.00    -0.198 OA
ATOM     12  O   UNL d   1      58.507  -0.199  30.610  0.00  0.00    -0.198 OA
BRANCH  10  13
ATOM     13  C   UNL d   1      58.368   0.681  29.855  0.00  0.00     0.117 C 
ATOM     14  C   UNL d   1      58.572   0.406  29.113  0.00  0.00     0.014 C 
ENDBRANCH  10  13
ENDBRANCH   9  10
ENDBRANCH   8   9
ENDBRANCH   1   8
TORSDOF 5
ENDMDL
MODEL 2
REMARK VINA RESULT:      -3.7      1.325      1.458
REMARK  5 active torsions:
REMARK  status: ('A' for Active; 'I' for Inactive)
REMARK    1  A    between atoms: N_9  and  S_1 
REMARK    2  A    between atoms: C_11  and  S_1 
REMARK    3  A    between atoms: C_5  and  C_10 
REMARK    4  A    between atoms: C_12  and  N_9 
REMARK    5  A    between atoms: C_10  and  C_12 
ROOT
ATOM      1  C   UNL d   1      57.182   0.396  31.071  0.00  0.00     0.041 C 
ENDROOT
BRANCH   1   2
ATOM      2  C   UNL d   1      56.886   0.075  31.772  0.00  0.00     0.090 A 
ATOM      3  N   UNL d   1      56.488  -0.648  31.835  0.00  0.00    -0.238 NA
ATOM      4  C   UNL d   1      56.291  -0.752  32.632  0.00  0.00     0.111 A 
ATOM      5  C   UNL d   1      55.886  -1.403  32.956  0.00  0.00     0.028 C 
ATOM      6  S   UNL d   1      56.563  -0.101  33.057  0.00  0.00    -0.066 SA
ATOM      7  C   UNL d   1      56.934   0.414  32.521  0.00  0.00     0.056 A 
ENDBRANCH   1   2
BRANCH   1   8
ATOM      8  C   UNL d   1      57.789   0.025  30.664  0.00  0.00     0.114 C 
BRANCH   8   9
ATOM      9  N   UNL d   1      58.046   0.333  29.927  0.00  0.00    -0.157 NA
BRANCH   9  10
ATOM     10  S   UNL d   1      58.669  -0.035  29.531  0.00  0.00     0.286 S 
ATOM     11  O   UNL d   1      58.120  -0.458  29.072  0.00  0.00    -0.198 OA
ATOM     12  O   UNL d   1      59.219   0.385  29.987  0.00  0.00    -0.198 OA
BRANCH  10  13
ATOM     13  C   UNL d   1      59.285  -0.406  29.132  0.00  0.00     0.117 C 
ATOM     14  C   UNL d   1      59.592  -0.067  28.455  0.00  0.00     0.014 C 
ENDBRANCH  10  13
ENDBRANCH   9  10
ENDBRANCH   8   9
ENDBRANCH   1   8
TORSDOF 5
ENDMDL
MODEL 3
REMARK VINA RESULT:      -3.6      1.628      4.047
REMARK  5 active torsions:
REMARK  status: ('A' for Active; 'I' for Inactive)
REMARK    1  A    between atoms: N_9  and  S_1 
REMARK    2  A    between atoms: C_11  and  S_1 
REMARK    3  A    between atoms: C_5  and  C_10 
REMARK    4  A    between atoms: C_12  and  N_9 
REMARK    5  A    between atoms: C_10  and  C_12 
ROOT
ATOM      1  C   UNL d   1      57.587   0.425  30.617  0.00  0.00     0.041 C 
ENDROOT
BRANCH   1   2
ATOM      2  C   UNL d   1      58.270   0.337  30.160  0.00  0.00     0.090 A 
ATOM      3  N   UNL d   1      58.308  -0.046  29.427  0.00  0.00    -0.238 NA
ATOM      4  C   UNL d   1      59.092  -0.005  29.168  0.00  0.00     0.111 A 
ATOM      5  C   UNL d   1      59.391  -0.317  28.456  0.00  0.00     0.028 C 
ATOM      6  S   UNL d   1      59.535   0.399  29.733  0.00  0.00    -0.066 SA
ATOM      7  C   UNL d   1      59.022   0.612  30.351  0.00  0.00     0.056 A 
ENDBRANCH   1   2
BRANCH   1   8
ATOM      8  C   UNL d   1      57.409  -0.111  31.210  0.00  0.00     0.114 C 
BRANCH   8   9
ATOM      9  N   UNL d   1      56.623  -0.169  31.496  0.00  0.00    -0.157 NA
BRANCH   9  10
ATOM     10  S   UNL d   1      56.472  -0.616  32.173  0.00  0.00     0.286 S 
ATOM     11  O   UNL d   1      56.354   0.086  32.604  0.00  0.00    -0.198 OA
ATOM     12  O   UNL d   1      56.588  -1.317  31.747  0.00  0.00    -0.198 OA
BRANCH  10  13
ATOM     13  C   UNL d   1      56.320  -1.054  32.853  0.00  0.00     0.117 C 
ATOM     14  C   UNL d   1      55.588  -1.004  33.213  0.00  0.00     0.014 C 
ENDBRANCH  10  13
ENDBRANCH   9  10
ENDBRANCH   8   9
ENDBRANCH   1   8
TORSDOF 5
ENDMDL
MODEL 4
REMARK VINA RESULT:      -2.4      9.537     10.317
REMARK  5 active torsions:
REMARK  status: ('A' for Active; 'I' for Inactive)
REMARK    1  A    between atoms: N_9  and  S_1 
REMARK    2  A    between atoms: C_11  and  S_1 
REMARK    3  A    between atoms: C_5  and  C_10 
REMARK    4  A    between atoms: C_12  and  N_9 
REMARK    5  A    between atoms: C_10  and  C_12 
ROOT
ATOM      1  C   UNL d   1      59.169  -9.541  34.177  0.00  0.00     0.041 C 
ENDROOT
BRANCH   1   2
ATOM      2  C   UNL d   1      59.063  -9.637  33.364  0.00  0.00     0.090 A 
ATOM      3  N   UNL d   1      59.668  -9.641  32.799  0.00  0.00    -0.238 NA
ATOM      4  C   UNL d   1      59.315  -9.752  32.060  0.00  0.00     0.111 A 
ATOM      5  C   UNL d   1      59.711  -9.793  31.328  0.00  0.00     0.028 C 
ATOM      6  S   UNL d   1      58.500  -9.816  32.164  0.00  0.00    -0.066 SA
ATOM      7  C   UNL d   1      58.344  -9.744  32.976  0.00  0.00     0.056 A 
ENDBRANCH   1   2
BRANCH   1   8
ATOM      8  C   UNL d   1      59.295  -8.798  34.498  0.00  0.00     0.114 C 
BRANCH   8   9
ATOM      9  N   UNL d   1      59.661  -8.726  35.249  0.00  0.00    -0.157 NA
BRANCH   9  10
ATOM     10  S   UNL d   1      59.597  -8.014  35.662  0.00  0.00     0.286 S 
ATOM     11  O   UNL d   1      60.160  -7.675  35.154  0.00  0.00    -0.198 OA
ATOM     12  O   UNL d   1      59.035  -8.350  36.171  0.00  0.00    -0.198 OA
BRANCH  10  13
ATOM     13  C   UNL d   1      59.539  -7.301  36.069  0.00  0.00     0.117 C 
ATOM     14  C   UNL d   1      60.217  -6.914  36.307  0.00  0.00     0.014 C 
ENDBRANCH  10  13
ENDBRANCH   9  10
ENDBRANCH   8   9
ENDBRANCH   1   8
TORSDOF 5
ENDMDL
MODEL 5
REMARK VINA RESULT:      -2.4      9.612      9.960
REMARK  5 active torsions:
REMARK  status: ('A' for Active; 'I' for Inactive)
REMARK    1  A    between atoms: N_9  and  S_1 
REMARK    2  A    between atoms: C_11  and  S_1 
REMARK    3  A    between atoms: C_5  and  C_10 
REMARK    4  A    between atoms: C_12  and  N_9 
REMARK    5  A    between atoms: C_10  and  C_12 
ROOT
ATOM      1  C   UNL d   1      60.058  -9.189  34.986  0.00  0.00     0.041 C 
ENDROOT
BRANCH   1   2
ATOM      2  C   UNL d   1      59.871  -8.525  35.441  0.00  0.00     0.090 A 
ATOM      3  N   UNL d   1      60.257  -7.794  35.400  0.00  0.00    -0.238 NA
ATOM      4  C   UNL d   1      59.893  -7.292  35.948  0.00  0.00     0.111 A 
ATOM      5  C   UNL d   1      60.098  -6.500  36.099  0.00  0.00     0.028 C 
ATOM      6  S   UNL d   1      59.290  -7.708  36.325  0.00  0.00    -0.066 SA
ATOM      7  C   UNL d   1      59.276  -8.475  36.009  0.00  0.00     0.056 A 
ENDBRANCH   1   2
BRANCH   1   8
ATOM      8  C   UNL d   1      60.298  -9.108  34.207  0.00  0.00     0.114 C 
BRANCH   8   9
ATOM      9  N   UNL d   1      60.124  -9.713  33.653  0.00  0.00    -0.157 NA
BRANCH   9  10
ATOM     10  S   UNL d   1      60.331  -9.607  32.861  0.00  0.00     0.286 S 
ATOM     11  O   UNL d   1      61.133  -9.606  33.077  0.00  0.00    -0.198 OA
ATOM     12  O   UNL d   1      59.531  -9.608  32.643  0.00  0.00    -0.198 OA
BRANCH  10  13
ATOM     13  C   UNL d   1      60.545  -9.501  32.074  0.00  0.00     0.117 C 
ATOM     14  C   UNL d   1      60.081  -9.818  31.481  0.00  0.00     0.014 C 
ENDBRANCH  10  13
ENDBRANCH   9  10
ENDBRANCH   8   9
ENDBRANCH   1   8
TORSDOF 5
ENDMDL
MODEL 6
REMARK VINA RESULT:      -2.0      2.829      4.890
REMARK  5 active torsions:
REMARK  status: ('A' for Active; 'I' for Inactive)
REMARK    1  A    between atoms: N_9  and  S_1 
REMARK    2  A    between atoms: C_11  and  S_1 
REMARK    3  A    between atoms: C_5  and  C_10 
REMARK    4  A    between atoms: C_12  and  N_9 
REMARK    5  A    between atoms: C_10  and  C_12 
ROOT
ATOM      1  C   UNL d   1      58.970  -1.581  28.630  0.00  0.00     0.041 C 
ENDROOT
BRANCH   1   2
ATOM      2  C   UNL d   1      59.140  -2.389  28.612  0.00  0.00     0.090 A 
ATOM      3  N   UNL d   1      58.583  -2.993  28.517  0.00  0.00    -0.238 NA
ATOM      4  C   UNL d   1      58.992  -3.711  28.532  0.00  0.00     0.111 A 
ATOM      5  C   UNL d   1      58.656  -4.469  28.456  0.00  0.00     0.028 C 
ATOM      6  S   UNL d   1      59.795  -3.554  28.634  0.00  0.00    -0.066 SA
ATOM      7  C   UNL d   1      59.886  -2.730  28.683  0.00  0.00     0.056 A 
ENDBRANCH   1   2
BRANCH   1   8
ATOM      8  C   UNL d   1      58.635  -1.239  29.295  0.00  0.00     0.114 C 
BRANCH   8   9
ATOM      9  N   UNL d   1      58.252  -0.495  29.232  0.00  0.00    -0.157 NA
BRANCH   9  10
ATOM     10  S   UNL d   1      58.212  -0.005  29.895  0.00  0.00     0.286 S 
ATOM     11  O   UNL d   1      57.616  -0.490  30.211  0.00  0.00    -0.198 OA
ATOM     12  O   UNL d   1      58.806   0.481  29.582  0.00  0.00    -0.198 OA
BRANCH  10  13
ATOM     13  C   UNL d   1      58.166   0.479  30.558  0.00  0.00     0.117 C 
ATOM     14  C   UNL d   1      57.468   0.525  30.979  0.00  0.00     0.014 C 
ENDBRANCH  10  13
ENDBRANCH   9  10
ENDBRANCH   8   9
ENDBRANCH   1   8
TORSDOF 5
ENDMDL
MODEL 7
REMARK VINA RESULT:      -2.0      1.309      1.624
REMARK  5 active torsions:
REMARK  status: ('A' for Active; 'I' for Inactive)
REMARK    1  A    between atoms: N_9  and  S_1 
REMARK    2  A    between atoms: C_11  and  S_1 
REMARK    3  A    between atoms: C_5  and  C_10 
REMARK    4  A    between atoms: C_12  and  N_9 
REMARK    5  A    between atoms: C_10  and  C_12 
ROOT
ATOM      1  C   UNL d   1      57.402   0.642  30.723  0.00  0.00     0.041 C 
ENDROOT
BRANCH   1   2
ATOM      2  C   UNL d   1      57.109   0.647  31.496  0.00  0.00     0.090 A 
ATOM      3  N   UNL d   1      56.309   0.622  31.703  0.00  0.00    -0.238 NA
ATOM      4  C   UNL d   1      56.268   0.637  32.529  0.00  0.00     0.111 A 
ATOM      5  C   UNL d   1      55.572   0.621  32.986  0.00  0.00     0.028 C 
ATOM      6  S   UNL d   1      57.034   0.670  32.831  0.00  0.00    -0.066 SA
ATOM      7  C   UNL d   1      57.558   0.676  32.186  0.00  0.00     0.056 A 
ENDBRANCH   1   2
BRANCH   1   8
ATOM      8  C   UNL d   1      58.130   0.306  30.554  0.00  0.00     0.114 C 
BRANCH   8   9
ATOM      9  N   UNL d   1      58.330   0.126  29.760  0.00  0.00    -0.157 NA
BRANCH   9  10
ATOM     10  S   UNL d   1      59.104  -0.098  29.579  0.00  0.00     0.286 S 
ATOM     11  O   UNL d   1      59.371   0.652  29.819  0.00  0.00    -0.198 OA
ATOM     12  O   UNL d   1      58.841  -0.847  29.340  0.00  0.00    -0.198 OA
BRANCH  10  13
ATOM     13  C   UNL d   1      59.878  -0.313  29.402  0.00  0.00     0.117 C 
ATOM     14  C   UNL d   1      60.020  -0.942  28.901  0.00  0.00     0.014 C 
ENDBRANCH  10  13
ENDBRANCH   9  10
ENDBRANCH   8   9
ENDBRANCH   1   8
TORSDOF 5
ENDMDL
MODEL 8
REMARK VINA RESULT:      -1.2      9.961     10.046
REMARK  5 active torsions:
REMARK  status: ('A' for Active; 'I' for Inactive)
REMARK    1  A    between atoms: N_9  and  S_1 
REMARK    2  A    between atoms: C_11  and  S_1 
REMARK    3  A    between atoms: C_5  and  C_10 
REMARK    4  A    between atoms: C_12  and  N_9 
REMARK    5  A    between atoms: C_10  and  C_12 
ROOT
ATOM      1  C   UNL d   1      58.752  -9.203  34.017  0.00  0.00     0.041 C 
ENDROOT
BRANCH   1   2
ATOM      2  C   UNL d   1      59.378  -9.000  34.517  0.00  0.00     0.090 A 
ATOM      3  N   UNL d   1      59.306  -8.571  35.222  0.00  0.00    -0.238 NA
ATOM      4  C   UNL d   1      60.065  -8.496  35.542  0.00  0.00     0.111 A 
ATOM      5  C   UNL d   1      60.262  -8.105  36.251  0.00  0.00     0.028 C 
ATOM      6  S   UNL d   1      60.601  -8.872  35.042  0.00  0.00    -0.066 SA
ATOM      7  C   UNL d   1      60.172  -9.186  34.404  0.00  0.00     0.056 A 
ENDBRANCH   1   2
BRANCH   1   8
ATOM      8  C   UNL d   1      58.881  -9.331  33.218  0.00  0.00     0.114 C 
BRANCH   8   9
ATOM      9  N   UNL d   1      58.353  -9.818  32.785  0.00  0.00    -0.157 NA
BRANCH   9  10
ATOM     10  S   UNL d   1      58.283  -9.711  31.969  0.00  0.00     0.286 S 
ATOM     11  O   UNL d   1      57.463  -9.603  32.060  0.00  0.00    -0.198 OA
ATOM     12  O   UNL d   1      59.099  -9.818  31.876  0.00  0.00    -0.198 OA
BRANCH  10  13
ATOM     13  C   UNL d   1      58.204  -9.604  31.158  0.00  0.00     0.117 C 
ATOM     14  C   UNL d   1      57.483  -9.737  30.799  0.00  0.00     0.014 C 
ENDBRANCH  10  13
ENDBRANCH   9  10
ENDBRANCH   8   9
ENDBRANCH   1   8
TORSDOF 5
ENDMDL
MODEL 9
REMARK VINA RESULT:      -0.8     10.084     10.232
REMARK  5 active torsions:
REMARK  status: ('A' for Active; 'I' for Inactive)
REMARK    1  A    between atoms: N_9  and  S_1 
REMARK    2  A    between atoms: C_11  and  S_1 
REMARK    3  A    between atoms: C_5  and  C_10 
REMARK    4  A    between atoms: C_12  and  N_9 
REMARK    5  A    between atoms: C_10  and  C_12 
ROOT
ATOM      1  C   UNL d   1      58.273  -9.582  32.322  0.00  0.00     0.041 C 
ENDROOT
BRANCH   1   2
ATOM      2  C   UNL d   1      58.915  -9.560  32.843  0.00  0.00     0.090 A 
ATOM      3  N   UNL d   1      59.711  -9.529  32.618  0.00  0.00    -0.238 NA
ATOM      4  C   UNL d   1      60.162  -9.514  33.312  0.00  0.00     0.111 A 
ATOM      5  C   UNL d   1      60.993  -9.482  33.356  0.00  0.00     0.028 C 
ATOM      6  S   UNL d   1      59.651  -9.535  33.958  0.00  0.00    -0.066 SA
ATOM      7  C   UNL d   1      58.875  -9.564  33.665  0.00  0.00     0.056 A 
ENDBRANCH   1   2
BRANCH   1   8
ATOM      8  C   UNL d   1      58.392  -9.632  31.514  0.00  0.00     0.114 C 
BRANCH   8   9
ATOM      9  N   UNL d   1      57.748  -9.818  31.009  0.00  0.00    -0.157 NA
BRANCH   9  10
ATOM     10  S   UNL d   1      57.834  -9.723  30.194  0.00  0.00     0.286 S 
ATOM     11  O   UNL d   1      57.011  -9.637  30.122  0.00  0.00    -0.198 OA
ATOM     12  O   UNL d   1      58.656  -9.808  30.261  0.00  0.00    -0.198 OA
BRANCH  10  13
ATOM     13  C   UNL d   1      57.912  -9.628  29.380  0.00  0.00     0.117 C 
ATOM     14  C   UNL d   1      57.246  -9.514  28.920  0.00  0.00     0.014 C 
ENDBRANCH  10  13
ENDBRANCH   9  10
ENDBRANCH   8   9
ENDBRANCH   1   8
TORSDOF 5
ENDMDL
