MODEL 1
REMARK VINA RESULT:       4.9      0.000      0.000
REMARK  6 active torsions:
REMARK  status: ('A' for Active; 'I' for Inactive)
REMARK    1  A    between atoms: C_7  and  C_1 
REMARK    2  A    between atoms: C_10  and  C_2 
REMARK    3  A    between atoms: C_8  and  C_7 
REMARK    4  A    between atoms: C_9  and  C_8 
REMARK    5  A    between atoms: C_13  and  C_9 
REMARK    6  A    between atoms: O_20  and  C_16 
ROOT
ATOM      1  C   UNL d   1      57.250   0.164  32.666  0.00  0.00     0.097 A 
ATOM      2  C   UNL d   1      56.749  -0.010  33.298  0.00  0.00     0.009 A 
ATOM      3  C   UNL d   1      57.982   0.508  32.800  0.00  0.00     0.282 A 
ATOM      4  C   UNL d   1      56.992   0.165  34.067  0.00  0.00     0.019 A 
ATOM      5  N   UNL d   1      58.221   0.681  33.568  0.00  0.00    -0.208 NA
ATOM      6  C   UNL d   1      57.724   0.509  34.201  0.00  0.00     0.085 A 
ATOM      7  C   UNL d   1      56.492  -0.009  34.699  0.00  0.00     0.013 A 
ATOM      8  O   UNL d   1      58.468   0.672  32.131  0.00  0.00    -0.265 OA
ATOM      9  C   UNL d   1      57.963   0.682  34.969  0.00  0.00     0.020 A 
ATOM     10  C   UNL d   1      56.734   0.166  35.468  0.00  0.00     0.058 A 
ATOM     11  C   UNL d   1      57.466   0.510  35.603  0.00  0.00     0.013 A 
ATOM     12 CL   UNL d   1      56.243  -0.002  36.126  0.00  0.00    -0.082 Cl
ENDROOT
BRANCH   1  13
ATOM     13  C   UNL d   1      57.027  -0.004  31.866  0.00  0.00     0.200 C 
ATOM     14  O   UNL d   1      56.332   0.305  31.567  0.00  0.00    -0.286 OA
BRANCH  13  15
ATOM     15  C   UNL d   1      57.515  -0.479  31.400  0.00  0.00     0.042 C 
BRANCH  15  16
ATOM     16  C   UNL d   1      57.516  -0.394  30.587  0.00  0.00     0.005 C 
BRANCH  16  17
ATOM     17  C   UNL d   1      57.936  -0.926  30.125  0.00  0.00     0.022 A 
ATOM     18  C   UNL d   1      58.278  -0.673  29.413  0.00  0.00     0.094 A 
ATOM     19  C   UNL d   1      58.706  -1.208  28.941  0.00  0.00     0.024 A 
ATOM     20  C   UNL d   1      58.781  -1.982  29.190  0.00  0.00     0.002 A 
ATOM     21  C   UNL d   1      58.438  -2.256  29.914  0.00  0.00     0.000 A 
ATOM     22  C   UNL d   1      58.022  -1.721  30.368  0.00  0.00     0.002 A 
BRANCH  18  23
ATOM     23  O   UNL d   1      58.201   0.119  29.158  0.00  0.00    -0.328 OA
ATOM     24  C   UNL d   1      58.704   0.421  28.602  0.00  0.00     0.181 C 
ENDBRANCH  18  23
ENDBRANCH  16  17
ENDBRANCH  15  16
ENDBRANCH  13  15
ENDBRANCH   1  13
BRANCH   2  25
ATOM     25  C   UNL d   1      56.007  -0.358  33.161  0.00  0.00     0.000 A 
ATOM     26  C   UNL d   1      55.336   0.108  33.177  0.00  0.00     0.000 A 
ATOM     27  C   UNL d   1      54.580  -0.247  33.039  0.00  0.00     0.000 A 
ATOM     28  C   UNL d   1      54.536  -1.049  32.891  0.00  0.00     0.000 A 
ATOM     29  C   UNL d   1      55.195  -1.501  32.876  0.00  0.00     0.000 A 
ATOM     30  C   UNL d   1      55.949  -1.168  33.011  0.00  0.00     0.000 A 
ENDBRANCH   2  25
TORSDOF 6
ENDMDL
MODEL 2
REMARK VINA RESULT:       5.5      2.149      4.846
REMARK  6 active torsions:
REMARK  status: ('A' for Active; 'I' for Inactive)
REMARK    1  A    between atoms: C_7  and  C_1 
REMARK    2  A    between atoms: C_10  and  C_2 
REMARK    3  A    between atoms: C_8  and  C_7 
REMARK    4  A    between atoms: C_9  and  C_8 
REMARK    5  A    between atoms: C_13  and  C_9 
REMARK    6  A    between atoms: O_20  and  C_16 
ROOT
ATOM      1  C   UNL d   1      58.279  -0.381  30.627  0.00  0.00     0.097 A 
ATOM      2  C   UNL d   1      58.749  -0.750  30.060  0.00  0.00     0.009 A 
ATOM      3  C   UNL d   1      58.513   0.331  30.959  0.00  0.00     0.282 A 
ATOM      4  C   UNL d   1      59.459  -0.397  29.829  0.00  0.00     0.019 A 
ATOM      5  N   UNL d   1      59.221   0.681  30.727  0.00  0.00    -0.208 NA
ATOM      6  C   UNL d   1      59.694   0.315  30.161  0.00  0.00     0.085 A 
ATOM      7  C   UNL d   1      59.929  -0.767  29.261  0.00  0.00     0.013 A 
ATOM      8  O   UNL d   1      58.008   0.681  31.537  0.00  0.00    -0.265 OA
ATOM      9  C   UNL d   1      60.401   0.664  29.929  0.00  0.00     0.020 A 
ATOM     10  C   UNL d   1      60.639  -0.414  29.030  0.00  0.00     0.058 A 
ATOM     11  C   UNL d   1      60.874   0.298  29.363  0.00  0.00     0.013 A 
ATOM     12 CL   UNL d   1      61.133  -0.771  28.456  0.00  0.00    -0.082 Cl
ENDROOT
BRANCH   1  13
ATOM     13  C   UNL d   1      57.546  -0.720  30.883  0.00  0.00     0.200 C 
ATOM     14  O   UNL d   1      57.179  -1.284  30.419  0.00  0.00    -0.286 OA
BRANCH  13  15
ATOM     15  C   UNL d   1      57.212  -0.475  31.597  0.00  0.00     0.042 C 
BRANCH  15  16
ATOM     16  C   UNL d   1      56.434  -0.655  31.770  0.00  0.00     0.005 C 
BRANCH  16  17
ATOM     17  C   UNL d   1      56.156  -0.552  32.535  0.00  0.00     0.022 A 
ATOM     18  C   UNL d   1      55.806  -1.189  32.934  0.00  0.00     0.094 A 
ATOM     19  C   UNL d   1      55.522  -1.091  33.710  0.00  0.00     0.024 A 
ATOM     20  C   UNL d   1      55.594  -0.360  34.067  0.00  0.00     0.002 A 
ATOM     21  C   UNL d   1      55.948   0.300  33.673  0.00  0.00     0.000 A 
ATOM     22  C   UNL d   1      56.222   0.190  32.913  0.00  0.00     0.002 A 
BRANCH  18  23
ATOM     23  O   UNL d   1      55.733  -1.937  32.568  0.00  0.00    -0.328 OA
ATOM     24  C   UNL d   1      55.389  -2.554  32.962  0.00  0.00     0.181 C 
ENDBRANCH  18  23
ENDBRANCH  16  17
ENDBRANCH  15  16
ENDBRANCH  13  15
ENDBRANCH   1  13
BRANCH   2  25
ATOM     25  C   UNL d   1      58.511  -1.472  29.723  0.00  0.00     0.000 A 
ATOM     26  C   UNL d   1      58.678  -2.170  30.112  0.00  0.00     0.000 A 
ATOM     27  C   UNL d   1      58.435  -2.906  29.769  0.00  0.00     0.000 A 
ATOM     28  C   UNL d   1      58.039  -2.902  29.055  0.00  0.00     0.000 A 
ATOM     29  C   UNL d   1      57.878  -2.216  28.678  0.00  0.00     0.000 A 
ATOM     30  C   UNL d   1      58.110  -1.482  29.002  0.00  0.00     0.000 A 
ENDBRANCH   2  25
TORSDOF 6
ENDMDL
