MODEL 1
REMARK VINA RESULT:      -3.4      0.000      0.000
REMARK  1 active torsions:
REMARK  status: ('A' for Active; 'I' for Inactive)
REMARK    1  A    between atoms: C_7  and  C_2 
ROOT
ATOM      1  C   UNL d   1      30.252  17.419 -24.594  0.00  0.00     0.257 A 
ATOM      2  C   UNL d   1      30.785  16.971 -24.156  0.00  0.00     0.142 A 
ATOM      3  C   UNL d   1      29.439  17.265 -24.542  0.00  0.00     0.238 A 
ATOM      4  O   UNL d   1      30.508  16.377 -23.673  0.00  0.00    -0.304 OA
ATOM      5  C   UNL d   1      29.168  16.649 -24.039  0.00  0.00     0.065 A 
ATOM      6  C   UNL d   1      29.701  16.201 -23.601  0.00  0.00     0.103 A 
ATOM      7  O   UNL d   1      28.902  17.727 -24.993  0.00  0.00    -0.283 OA
ATOM      8  O   UNL d   1      30.523  18.034 -25.097  0.00  0.00    -0.281 OA
ATOM      9  C   UNL d   1      28.350  16.494 -23.986  0.00  0.00     0.005 A 
ATOM     10  C   UNL d   1      29.424  15.607 -23.117  0.00  0.00     0.025 A 
ATOM     11  C   UNL d   1      28.075  15.893 -23.496  0.00  0.00     0.000 A 
ATOM     12  C   UNL d   1      28.606  15.453 -23.065  0.00  0.00     0.002 A 
ENDROOT
BRANCH   2  13
ATOM     13  C   UNL d   1      31.606  17.111 -24.196  0.00  0.00     0.026 A 
ATOM     14  C   UNL d   1      31.954  17.614 -23.617  0.00  0.00     0.002 A 
ATOM     15  C   UNL d   1      32.765  17.749 -23.660  0.00  0.00     0.000 A 
ATOM     16  C   UNL d   1      33.241  17.413 -24.243  0.00  0.00     0.000 A 
ATOM     17  C   UNL d   1      32.886  16.921 -24.806  0.00  0.00     0.000 A 
ATOM     18  C   UNL d   1      32.077  16.771 -24.782  0.00  0.00     0.002 A 
ENDBRANCH   2  13
TORSDOF 1
ENDMDL
MODEL 2
REMARK VINA RESULT:      -3.2      1.046      1.897
REMARK  1 active torsions:
REMARK  status: ('A' for Active; 'I' for Inactive)
REMARK    1  A    between atoms: C_7  and  C_2 
ROOT
ATOM      1  C   UNL d   1      31.585  16.737 -23.654  0.00  0.00     0.257 A 
ATOM      2  C   UNL d   1      31.406  17.431 -24.058  0.00  0.00     0.142 A 
ATOM      3  C   UNL d   1      30.996  16.167 -23.526  0.00  0.00     0.238 A 
ATOM      4  O   UNL d   1      30.649  17.553 -24.331  0.00  0.00    -0.304 OA
ATOM      5  C   UNL d   1      30.219  16.306 -23.813  0.00  0.00     0.065 A 
ATOM      6  C   UNL d   1      30.040  17.000 -24.217  0.00  0.00     0.103 A 
ATOM      7  O   UNL d   1      31.189  15.462 -23.112  0.00  0.00    -0.283 OA
ATOM      8  O   UNL d   1      32.362  16.598 -23.367  0.00  0.00    -0.281 OA
ATOM      9  C   UNL d   1      29.627  15.733 -23.684  0.00  0.00     0.005 A 
ATOM     10  C   UNL d   1      29.283  17.122 -24.490  0.00  0.00     0.025 A 
ATOM     11  C   UNL d   1      28.863  15.861 -23.961  0.00  0.00     0.000 A 
ATOM     12  C   UNL d   1      28.691  16.549 -24.361  0.00  0.00     0.002 A 
ENDROOT
BRANCH   2  13
ATOM     13  C   UNL d   1      31.985  18.015 -24.196  0.00  0.00     0.026 A 
ATOM     14  C   UNL d   1      32.343  18.051 -24.958  0.00  0.00     0.002 A 
ATOM     15  C   UNL d   1      32.913  18.630 -25.090  0.00  0.00     0.000 A 
ATOM     16  C   UNL d   1      33.143  19.167 -24.509  0.00  0.00     0.000 A 
ATOM     17  C   UNL d   1      32.783  19.120 -23.765  0.00  0.00     0.000 A 
ATOM     18  C   UNL d   1      32.210  18.550 -23.610  0.00  0.00     0.002 A 
ENDBRANCH   2  13
TORSDOF 1
ENDMDL
MODEL 3
REMARK VINA RESULT:      -3.0      0.857      3.328
REMARK  1 active torsions:
REMARK  status: ('A' for Active; 'I' for Inactive)
REMARK    1  A    between atoms: C_7  and  C_2 
ROOT
ATOM      1  C   UNL d   1      30.470  17.224 -24.349  0.00  0.00     0.257 A 
ATOM      2  C   UNL d   1      30.317  16.505 -23.981  0.00  0.00     0.142 A 
ATOM      3  C   UNL d   1      31.239  17.535 -24.351  0.00  0.00     0.238 A 
ATOM      4  O   UNL d   1      30.925  16.102 -23.620  0.00  0.00    -0.304 OA
ATOM      5  C   UNL d   1      31.856  17.108 -23.974  0.00  0.00     0.065 A 
ATOM      6  C   UNL d   1      31.704  16.389 -23.606  0.00  0.00     0.103 A 
ATOM      7  O   UNL d   1      31.385  18.271 -24.729  0.00  0.00    -0.283 OA
ATOM      8  O   UNL d   1      29.852  17.651 -24.726  0.00  0.00    -0.281 OA
ATOM      9  C   UNL d   1      32.630  17.421 -23.976  0.00  0.00     0.005 A 
ATOM     10  C   UNL d   1      32.312  15.985 -23.245  0.00  0.00     0.025 A 
ATOM     11  C   UNL d   1      33.241  17.010 -23.610  0.00  0.00     0.000 A 
ATOM     12  C   UNL d   1      33.085  16.298 -23.247  0.00  0.00     0.002 A 
ENDROOT
BRANCH   2  13
ATOM     13  C   UNL d   1      29.551  16.176 -23.969  0.00  0.00     0.026 A 
ATOM     14  C   UNL d   1      29.088  16.268 -23.271  0.00  0.00     0.002 A 
ATOM     15  C   UNL d   1      28.332  15.942 -23.264  0.00  0.00     0.000 A 
ATOM     16  C   UNL d   1      28.017  15.535 -23.908  0.00  0.00     0.000 A 
ATOM     17  C   UNL d   1      28.484  15.453 -24.588  0.00  0.00     0.000 A 
ATOM     18  C   UNL d   1      29.242  15.770 -24.618  0.00  0.00     0.002 A 
ENDBRANCH   2  13
TORSDOF 1
ENDMDL
MODEL 4
REMARK VINA RESULT:      -2.9      2.219      3.965
REMARK  1 active torsions:
REMARK  status: ('A' for Active; 'I' for Inactive)
REMARK    1  A    between atoms: C_7  and  C_2 
ROOT
ATOM      1  C   UNL d   1      32.750  18.315 -24.255  0.00  0.00     0.257 A 
ATOM      2  C   UNL d   1      32.649  17.886 -23.560  0.00  0.00     0.142 A 
ATOM      3  C   UNL d   1      32.923  19.125 -24.221  0.00  0.00     0.238 A 
ATOM      4  O   UNL d   1      32.721  18.262 -22.842  0.00  0.00    -0.304 OA
ATOM      5  C   UNL d   1      32.994  19.500 -23.473  0.00  0.00     0.065 A 
ATOM      6  C   UNL d   1      32.894  19.070 -22.778  0.00  0.00     0.103 A 
ATOM      7  O   UNL d   1      33.025  19.555 -24.935  0.00  0.00    -0.283 OA
ATOM      8  O   UNL d   1      32.678  17.940 -25.003  0.00  0.00    -0.281 OA
ATOM      9  C   UNL d   1      33.169  20.315 -23.438  0.00  0.00     0.005 A 
ATOM     10  C   UNL d   1      32.965  19.447 -22.060  0.00  0.00     0.025 A 
ATOM     11  C   UNL d   1      33.241  20.690 -22.710  0.00  0.00     0.000 A 
ATOM     12  C   UNL d   1      33.140  20.261 -22.026  0.00  0.00     0.002 A 
ENDROOT
BRANCH   2  13
ATOM     13  C   UNL d   1      32.474  17.070 -23.575  0.00  0.00     0.026 A 
ATOM     14  C   UNL d   1      31.665  16.836 -23.599  0.00  0.00     0.002 A 
ATOM     15  C   UNL d   1      31.497  16.030 -23.613  0.00  0.00     0.000 A 
ATOM     16  C   UNL d   1      32.086  15.453 -23.604  0.00  0.00     0.000 A 
ATOM     17  C   UNL d   1      32.877  15.698 -23.580  0.00  0.00     0.000 A 
ATOM     18  C   UNL d   1      33.068  16.498 -23.566  0.00  0.00     0.002 A 
ENDBRANCH   2  13
TORSDOF 1
ENDMDL
MODEL 5
REMARK VINA RESULT:      -2.3      5.398      6.818
REMARK  1 active torsions:
REMARK  status: ('A' for Active; 'I' for Inactive)
REMARK    1  A    between atoms: C_7  and  C_2 
ROOT
ATOM      1  C   UNL d   1      32.943  22.656 -21.841  0.00  0.00     0.257 A 
ATOM      2  C   UNL d   1      32.797  22.315 -21.107  0.00  0.00     0.142 A 
ATOM      3  C   UNL d   1      33.090  22.175 -22.500  0.00  0.00     0.238 A 
ATOM      4  O   UNL d   1      32.799  21.504 -21.033  0.00  0.00    -0.304 OA
ATOM      5  C   UNL d   1      33.089  21.340 -22.410  0.00  0.00     0.065 A 
ATOM      6  C   UNL d   1      32.943  20.999 -21.675  0.00  0.00     0.103 A 
ATOM      7  O   UNL d   1      33.238  22.532 -23.246  0.00  0.00    -0.283 OA
ATOM      8  O   UNL d   1      32.945  23.491 -21.932  0.00  0.00    -0.281 OA
ATOM      9  C   UNL d   1      33.237  20.856 -23.073  0.00  0.00     0.005 A 
ATOM     10  C   UNL d   1      32.945  20.188 -21.602  0.00  0.00     0.025 A 
ATOM     11  C   UNL d   1      33.238  20.037 -22.994  0.00  0.00     0.000 A 
ATOM     12  C   UNL d   1      33.093  19.705 -22.265  0.00  0.00     0.002 A 
ENDROOT
BRANCH   2  13
ATOM     13  C   UNL d   1      32.647  22.782 -20.432  0.00  0.00     0.026 A 
ATOM     14  C   UNL d   1      33.229  22.803 -19.823  0.00  0.00     0.002 A 
ATOM     15  C   UNL d   1      33.076  23.266 -19.160  0.00  0.00     0.000 A 
ATOM     16  C   UNL d   1      32.383  23.702 -19.073  0.00  0.00     0.000 A 
ATOM     17  C   UNL d   1      31.820  23.672 -19.679  0.00  0.00     0.000 A 
ATOM     18  C   UNL d   1      31.951  23.217 -20.352  0.00  0.00     0.002 A 
ENDBRANCH   2  13
TORSDOF 1
ENDMDL
MODEL 6
REMARK VINA RESULT:      -2.0      5.490      6.871
REMARK  1 active torsions:
REMARK  status: ('A' for Active; 'I' for Inactive)
REMARK    1  A    between atoms: C_7  and  C_2 
ROOT
ATOM      1  C   UNL d   1      32.459  22.341 -21.450  0.00  0.00     0.257 A 
ATOM      2  C   UNL d   1      32.840  21.681 -21.140  0.00  0.00     0.142 A 
ATOM      3  C   UNL d   1      32.337  23.011 -20.977  0.00  0.00     0.238 A 
ATOM      4  O   UNL d   1      33.095  21.692 -20.367  0.00  0.00    -0.304 OA
ATOM      5  C   UNL d   1      32.606  23.008 -20.181  0.00  0.00     0.065 A 
ATOM      6  C   UNL d   1      32.986  22.348 -19.871  0.00  0.00     0.103 A 
ATOM      7  O   UNL d   1      31.948  23.680 -21.303  0.00  0.00    -0.283 OA
ATOM      8  O   UNL d   1      32.191  22.345 -22.246  0.00  0.00    -0.281 OA
ATOM      9  C   UNL d   1      32.483  23.682 -19.706  0.00  0.00     0.005 A 
ATOM     10  C   UNL d   1      33.241  22.359 -19.098  0.00  0.00     0.025 A 
ATOM     11  C   UNL d   1      32.742  23.688 -18.925  0.00  0.00     0.000 A 
ATOM     12  C   UNL d   1      33.118  23.033 -18.622  0.00  0.00     0.002 A 
ENDROOT
BRANCH   2  13
ATOM     13  C   UNL d   1      32.971  20.998 -21.600  0.00  0.00     0.026 A 
ATOM     14  C   UNL d   1      32.957  20.249 -21.215  0.00  0.00     0.002 A 
ATOM     15  C   UNL d   1      33.088  19.578 -21.674  0.00  0.00     0.000 A 
ATOM     16  C   UNL d   1      33.230  19.614 -22.485  0.00  0.00     0.000 A 
ATOM     17  C   UNL d   1      33.240  20.358 -22.850  0.00  0.00     0.000 A 
ATOM     18  C   UNL d   1      33.113  21.043 -22.412  0.00  0.00     0.002 A 
ENDBRANCH   2  13
TORSDOF 1
ENDMDL
MODEL 7
REMARK VINA RESULT:      -1.9      2.140      4.141
REMARK  1 active torsions:
REMARK  status: ('A' for Active; 'I' for Inactive)
REMARK    1  A    between atoms: C_7  and  C_2 
ROOT
ATOM      1  C   UNL d   1      32.826  18.147 -23.169  0.00  0.00     0.257 A 
ATOM      2  C   UNL d   1      32.621  17.876 -23.918  0.00  0.00     0.142 A 
ATOM      3  C   UNL d   1      33.033  18.941 -23.057  0.00  0.00     0.238 A 
ATOM      4  O   UNL d   1      32.624  18.394 -24.546  0.00  0.00    -0.304 OA
ATOM      5  C   UNL d   1      33.031  19.464 -23.714  0.00  0.00     0.065 A 
ATOM      6  C   UNL d   1      32.827  19.194 -24.463  0.00  0.00     0.103 A 
ATOM      7  O   UNL d   1      33.240  19.209 -22.288  0.00  0.00    -0.283 OA
ATOM      8  O   UNL d   1      32.827  17.624 -22.511  0.00  0.00    -0.281 OA
ATOM      9  C   UNL d   1      33.240  20.264 -23.601  0.00  0.00     0.005 A 
ATOM     10  C   UNL d   1      32.830  19.711 -25.091  0.00  0.00     0.025 A 
ATOM     11  C   UNL d   1      33.241  20.783 -24.239  0.00  0.00     0.000 A 
ATOM     12  C   UNL d   1      33.038  20.511 -24.979  0.00  0.00     0.002 A 
ENDROOT
BRANCH   2  13
ATOM     13  C   UNL d   1      32.410  17.080 -24.051  0.00  0.00     0.026 A 
ATOM     14  C   UNL d   1      31.598  16.865 -23.982  0.00  0.00     0.002 A 
ATOM     15  C   UNL d   1      31.395  16.079 -24.114  0.00  0.00     0.000 A 
ATOM     16  C   UNL d   1      31.951  15.502 -24.307  0.00  0.00     0.000 A 
ATOM     17  C   UNL d   1      32.745  15.727 -24.371  0.00  0.00     0.000 A 
ATOM     18  C   UNL d   1      32.972  16.508 -24.244  0.00  0.00     0.002 A 
ENDBRANCH   2  13
TORSDOF 1
ENDMDL
MODEL 8
REMARK VINA RESULT:      -1.9      3.102      4.543
REMARK  1 active torsions:
REMARK  status: ('A' for Active; 'I' for Inactive)
REMARK    1  A    between atoms: C_7  and  C_2 
ROOT
ATOM      1  C   UNL d   1      33.021  20.216 -23.268  0.00  0.00     0.257 A 
ATOM      2  C   UNL d   1      32.849  19.878 -22.539  0.00  0.00     0.142 A 
ATOM      3  C   UNL d   1      33.063  19.741 -23.946  0.00  0.00     0.238 A 
ATOM      4  O   UNL d   1      32.720  19.076 -22.488  0.00  0.00    -0.304 OA
ATOM      5  C   UNL d   1      32.927  18.915 -23.879  0.00  0.00     0.065 A 
ATOM      6  C   UNL d   1      32.755  18.577 -23.150  0.00  0.00     0.103 A 
ATOM      7  O   UNL d   1      33.240  20.095 -24.687  0.00  0.00    -0.283 OA
ATOM      8  O   UNL d   1      33.157  21.042 -23.335  0.00  0.00    -0.281 OA
ATOM      9  C   UNL d   1      32.969  18.437 -24.562  0.00  0.00     0.005 A 
ATOM     10  C   UNL d   1      32.625  17.775 -23.099  0.00  0.00     0.025 A 
ATOM     11  C   UNL d   1      32.837  17.626 -24.506  0.00  0.00     0.000 A 
ATOM     12  C   UNL d   1      32.667  17.297 -23.781  0.00  0.00     0.002 A 
ENDROOT
BRANCH   2  13
ATOM     13  C   UNL d   1      32.803  20.340 -21.845  0.00  0.00     0.026 A 
ATOM     14  C   UNL d   1      33.225  20.081 -21.164  0.00  0.00     0.002 A 
ATOM     15  C   UNL d   1      33.177  20.540 -20.482  0.00  0.00     0.000 A 
ATOM     16  C   UNL d   1      32.735  21.235 -20.445  0.00  0.00     0.000 A 
ATOM     17  C   UNL d   1      32.325  21.477 -21.122  0.00  0.00     0.000 A 
ATOM     18  C   UNL d   1      32.359  21.035 -21.815  0.00  0.00     0.002 A 
ENDBRANCH   2  13
TORSDOF 1
ENDMDL
MODEL 9
REMARK VINA RESULT:      -1.7      4.523      6.121
REMARK  1 active torsions:
REMARK  status: ('A' for Active; 'I' for Inactive)
REMARK    1  A    between atoms: C_7  and  C_2 
ROOT
ATOM      1  C   UNL d   1      33.039  20.667 -21.160  0.00  0.00     0.257 A 
ATOM      2  C   UNL d   1      32.880  20.790 -21.958  0.00  0.00     0.142 A 
ATOM      3  C   UNL d   1      33.016  21.303 -20.630  0.00  0.00     0.238 A 
ATOM      4  O   UNL d   1      32.701  21.539 -22.221  0.00  0.00    -0.304 OA
ATOM      5  C   UNL d   1      32.829  22.071 -20.915  0.00  0.00     0.065 A 
ATOM      6  C   UNL d   1      32.670  22.194 -21.713  0.00  0.00     0.103 A 
ATOM      7  O   UNL d   1      33.179  21.168 -19.817  0.00  0.00    -0.283 OA
ATOM      8  O   UNL d   1      33.226  19.899 -20.875  0.00  0.00    -0.281 OA
ATOM      9  C   UNL d   1      32.805  22.711 -20.381  0.00  0.00     0.005 A 
ATOM     10  C   UNL d   1      32.490  22.943 -21.976  0.00  0.00     0.025 A 
ATOM     11  C   UNL d   1      32.623  23.467 -20.652  0.00  0.00     0.000 A 
ATOM     12  C   UNL d   1      32.467  23.583 -21.442  0.00  0.00     0.002 A 
ENDROOT
BRANCH   2  13
ATOM     13  C   UNL d   1      32.899  20.162 -22.507  0.00  0.00     0.026 A 
ATOM     14  C   UNL d   1      33.221  20.309 -23.271  0.00  0.00     0.002 A 
ATOM     15  C   UNL d   1      33.238  19.686 -23.809  0.00  0.00     0.000 A 
ATOM     16  C   UNL d   1      32.953  18.934 -23.628  0.00  0.00     0.000 A 
ATOM     17  C   UNL d   1      32.639  18.804 -22.872  0.00  0.00     0.000 A 
ATOM     18  C   UNL d   1      32.613  19.411 -22.318  0.00  0.00     0.002 A 
ENDBRANCH   2  13
TORSDOF 1
ENDMDL
