MODEL 1
REMARK VINA RESULT:      -1.3      0.000      0.000
REMARK  7 active torsions:
REMARK  status: ('A' for Active; 'I' for Inactive)
REMARK    1  A    between atoms: C_6  and  N_2 
REMARK    2  A    between atoms: C_7  and  C_3 
REMARK    3  A    between atoms: C_12  and  C_6 
REMARK    4  A    between atoms: C_21  and  C_7 
REMARK    5  A    between atoms: C_9  and  O_11 
REMARK    6  A    between atoms: O_11  and  C_12 
REMARK    7  A    between atoms: C_19  and  C_21 
ROOT
ATOM      1  N   UNL d   1      32.104  22.953 -22.095  0.00  0.00    -0.227 NA
ATOM      2  N   UNL d   1      32.848  21.881 -22.476  0.00  0.00    -0.287 N 
ATOM      3  C   UNL d   1      32.406  22.213 -21.850  0.00  0.00     0.148 A 
ATOM      4  C   UNL d   1      32.818  22.423 -23.114  0.00  0.00     0.083 A 
ATOM      5  C   UNL d   1      32.365  23.074 -22.879  0.00  0.00     0.099 A 
ATOM      6  C   UNL d   1      33.144  22.405 -23.875  0.00  0.00     0.019 A 
ATOM      7  C   UNL d   1      32.238  23.702 -23.397  0.00  0.00     0.021 A 
ATOM      8  C   UNL d   1      33.018  23.034 -24.393  0.00  0.00     0.002 A 
ATOM      9  C   UNL d   1      32.564  23.683 -24.154  0.00  0.00     0.002 A 
ENDROOT
BRANCH   2  10
ATOM     10  C   UNL d   1      33.241  21.160 -22.475  0.00  0.00     0.108 C 
BRANCH  10  11
ATOM     11  C   UNL d   1      32.891  20.488 -22.817  0.00  0.00     0.142 C 
BRANCH  11  12
ATOM     12  O   UNL d   1      33.168  19.742 -22.623  0.00  0.00    -0.304 OA
BRANCH  12  13
ATOM     13  C   UNL d   1      32.928  19.088 -23.061  0.00  0.00     0.100 A 
ATOM     14  C   UNL d   1      33.158  19.018 -23.846  0.00  0.00     0.025 A 
ATOM     15  C   UNL d   1      32.918  18.363 -24.288  0.00  0.00     0.002 A 
ATOM     16  C   UNL d   1      33.148  18.290 -25.077  0.00  0.00     0.000 C 
ATOM     17  C   UNL d   1      32.445  17.777 -23.939  0.00  0.00     0.000 A 
ATOM     18  C   UNL d   1      32.217  17.855 -23.144  0.00  0.00     0.002 A 
ATOM     19  C   UNL d   1      32.457  18.509 -22.706  0.00  0.00     0.025 A 
ENDBRANCH  12  13
ENDBRANCH  11  12
ENDBRANCH  10  11
ENDBRANCH   2  10
BRANCH   3  20
ATOM     20  C   UNL d   1      32.080  22.232 -21.092  0.00  0.00     0.041 C 
BRANCH  20  21
ATOM     21  C   UNL d   1      32.463  22.644 -20.491  0.00  0.00     0.049 C 
BRANCH  21  22
ATOM     22  C   UNL d   1      32.293  22.472 -19.702  0.00  0.00     0.234 C 
ATOM     23  O   UNL d   1      32.875  22.557 -19.126  0.00  0.00    -0.283 OA
ENDBRANCH  21  22
ENDBRANCH  20  21
ENDBRANCH   3  20
TORSDOF 7
ENDMDL
MODEL 2
REMARK VINA RESULT:      -0.8      1.364      2.008
REMARK  7 active torsions:
REMARK  status: ('A' for Active; 'I' for Inactive)
REMARK    1  A    between atoms: C_6  and  N_2 
REMARK    2  A    between atoms: C_7  and  C_3 
REMARK    3  A    between atoms: C_12  and  C_6 
REMARK    4  A    between atoms: C_21  and  C_7 
REMARK    5  A    between atoms: C_9  and  O_11 
REMARK    6  A    between atoms: O_11  and  C_12 
REMARK    7  A    between atoms: C_19  and  C_21 
ROOT
ATOM      1  N   UNL d   1      33.231  21.386 -22.682  0.00  0.00    -0.227 NA
ATOM      2  N   UNL d   1      33.234  20.378 -23.595  0.00  0.00    -0.287 N 
ATOM      3  C   UNL d   1      33.233  20.555 -22.778  0.00  0.00     0.148 A 
ATOM      4  C   UNL d   1      33.232  21.108 -24.005  0.00  0.00     0.083 A 
ATOM      5  C   UNL d   1      33.230  21.719 -23.448  0.00  0.00     0.099 A 
ATOM      6  C   UNL d   1      33.232  21.292 -24.813  0.00  0.00     0.019 A 
ATOM      7  C   UNL d   1      33.228  22.507 -23.692  0.00  0.00     0.021 A 
ATOM      8  C   UNL d   1      33.230  22.080 -25.058  0.00  0.00     0.002 A 
ATOM      9  C   UNL d   1      33.228  22.687 -24.497  0.00  0.00     0.002 A 
ENDROOT
BRANCH   2  10
ATOM     10  C   UNL d   1      33.237  19.632 -23.938  0.00  0.00     0.108 C 
BRANCH  10  11
ATOM     11  C   UNL d   1      32.542  19.178 -23.964  0.00  0.00     0.142 C 
BRANCH  11  12
ATOM     12  O   UNL d   1      32.451  18.607 -24.545  0.00  0.00    -0.304 OA
BRANCH  12  13
ATOM     13  C   UNL d   1      31.893  18.010 -24.449  0.00  0.00     0.100 A 
ATOM     14  C   UNL d   1      32.136  17.259 -24.222  0.00  0.00     0.025 A 
ATOM     15  C   UNL d   1      31.579  16.658 -24.126  0.00  0.00     0.002 A 
ATOM     16  C   UNL d   1      31.822  15.903 -23.898  0.00  0.00     0.000 C 
ATOM     17  C   UNL d   1      30.775  16.812 -24.258  0.00  0.00     0.000 A 
ATOM     18  C   UNL d   1      30.536  17.573 -24.488  0.00  0.00     0.002 A 
ATOM     19  C   UNL d   1      31.093  18.171 -24.583  0.00  0.00     0.025 A 
ENDBRANCH  12  13
ENDBRANCH  11  12
ENDBRANCH  10  11
ENDBRANCH   2  10
BRANCH   3  20
ATOM     20  C   UNL d   1      33.233  20.375 -21.973  0.00  0.00     0.041 C 
BRANCH  20  21
ATOM     21  C   UNL d   1      32.623  20.646 -21.491  0.00  0.00     0.049 C 
BRANCH  21  22
ATOM     22  C   UNL d   1      32.760  20.777 -20.689  0.00  0.00     0.234 C 
ATOM     23  O   UNL d   1      32.178  21.123 -20.221  0.00  0.00    -0.283 OA
ENDBRANCH  21  22
ENDBRANCH  20  21
ENDBRANCH   3  20
TORSDOF 7
ENDMDL
