MODEL 1
REMARK VINA RESULT:      -7.2      0.000      0.000
REMARK  6 active torsions:
REMARK  status: ('A' for Active; 'I' for Inactive)
REMARK    1  A    between atoms: C_6  and  N_1 
REMARK    2  A    between atoms: C_13  and  C_6 
REMARK    3  A    between atoms: C_8  and  C_9 
REMARK    4  A    between atoms: C_16  and  C_13 
REMARK    5  A    between atoms: O_14  and  C_16 
REMARK    6  A    between atoms: C_15  and  O_14 
ROOT
ATOM      1  C   UNL d   1     -48.292  12.831  23.244  0.00  0.00     0.237 C 
ATOM      2  O   UNL d   1     -48.565  12.072  23.454  0.00  0.00    -0.283 OA
ENDROOT
BRANCH   1   3
ATOM      3  C   UNL d   1     -48.787  13.491  23.344  0.00  0.00     0.117 C 
BRANCH   3   4
ATOM      4  N   UNL d   1     -49.351  13.680  22.770  0.00  0.00    -0.344 N 
ATOM      5  C   UNL d   1     -49.551  14.477  22.630  0.00  0.00     0.086 A 
ATOM      6  C   UNL d   1     -50.111  14.667  22.058  0.00  0.00     0.035 A 
ATOM      7  C   UNL d   1     -49.745  15.267  22.495  0.00  0.00     0.027 C 
ATOM      8  C   UNL d   1     -48.987  14.288  23.204  0.00  0.00     0.027 C 
ATOM      9  C   UNL d   1     -50.480  14.067  21.619  0.00  0.00     0.191 A 
ATOM     10  C   UNL d   1     -50.281  13.270  21.759  0.00  0.00     0.035 A 
ATOM     11  O   UNL d   1     -51.042  14.257  21.047  0.00  0.00    -0.287 OA
ATOM     12  C   UNL d   1     -49.714  13.082  22.337  0.00  0.00     0.086 A 
ATOM     13  C   UNL d   1     -49.154  12.891  22.908  0.00  0.00     0.027 C 
ATOM     14  C   UNL d   1     -50.078  12.483  21.904  0.00  0.00     0.027 C 
ENDBRANCH   3   4
ENDBRANCH   1   3
BRANCH   1  15
ATOM     15  C   UNL d   1     -47.540  12.933  22.938  0.00  0.00     0.166 C 
BRANCH  15  16
ATOM     16  O   UNL d   1     -46.881  12.628  23.340  0.00  0.00    -0.302 OA
BRANCH  16  17
ATOM     17  C   UNL d   1     -46.131  12.607  22.968  0.00  0.00     0.100 A 
ATOM     18  C   UNL d   1     -45.871  13.247  22.516  0.00  0.00     0.025 A 
ATOM     19  C   UNL d   1     -45.133  13.221  22.153  0.00  0.00     0.005 A 
ATOM     20  C   UNL d   1     -44.650  12.557  22.238  0.00  0.00     0.039 A 
ATOM     21  C   UNL d   1     -44.912  11.915  22.692  0.00  0.00     0.005 A 
ATOM     22  C   UNL d   1     -45.655  11.942  23.057  0.00  0.00     0.025 A 
BRANCH  20  23
ATOM     23  C   UNL d   1     -43.913  12.540  21.871  0.00  0.00     0.196 C 
ATOM     24  O   UNL d   1     -43.381  11.928  22.021  0.00  0.00    -0.287 OA
ATOM     25  C   UNL d   1     -43.708  13.146  21.346  0.00  0.00     0.045 C 
ENDBRANCH  20  23
ENDBRANCH  16  17
ENDBRANCH  15  16
ENDBRANCH   1  15
TORSDOF 6
ENDMDL
MODEL 2
REMARK VINA RESULT:      -7.0      1.030      1.823
REMARK  6 active torsions:
REMARK  status: ('A' for Active; 'I' for Inactive)
REMARK    1  A    between atoms: C_6  and  N_1 
REMARK    2  A    between atoms: C_13  and  C_6 
REMARK    3  A    between atoms: C_8  and  C_9 
REMARK    4  A    between atoms: C_16  and  C_13 
REMARK    5  A    between atoms: O_14  and  C_16 
REMARK    6  A    between atoms: C_15  and  O_14 
ROOT
ATOM      1  C   UNL d   1     -47.950  13.083  22.738  0.00  0.00     0.237 C 
ATOM      2  O   UNL d   1     -48.280  13.292  23.474  0.00  0.00    -0.283 OA
ENDROOT
BRANCH   1   3
ATOM      3  C   UNL d   1     -48.320  13.327  22.035  0.00  0.00     0.117 C 
BRANCH   3   4
ATOM      4  N   UNL d   1     -49.001  13.797  22.064  0.00  0.00    -0.344 N 
ATOM      5  C   UNL d   1     -49.728  13.492  21.795  0.00  0.00     0.086 A 
ATOM      6  C   UNL d   1     -50.406  13.957  21.823  0.00  0.00     0.035 A 
ATOM      7  C   UNL d   1     -50.446  13.185  21.528  0.00  0.00     0.027 C 
ATOM      8  C   UNL d   1     -49.048  13.022  21.766  0.00  0.00     0.027 C 
ATOM      9  C   UNL d   1     -50.368  14.732  22.119  0.00  0.00     0.191 A 
ATOM     10  C   UNL d   1     -49.641  15.037  22.387  0.00  0.00     0.035 A 
ATOM     11  O   UNL d   1     -51.046  15.199  22.147  0.00  0.00    -0.287 OA
ATOM     12  C   UNL d   1     -48.959  14.564  22.358  0.00  0.00     0.086 A 
ATOM     13  C   UNL d   1     -48.281  14.099  22.330  0.00  0.00     0.027 C 
ATOM     14  C   UNL d   1     -48.917  15.333  22.652  0.00  0.00     0.027 C 
ENDBRANCH   3   4
ENDBRANCH   1   3
BRANCH   1  15
ATOM     15  C   UNL d   1     -47.264  12.639  22.699  0.00  0.00     0.166 C 
BRANCH  15  16
ATOM     16  O   UNL d   1     -46.772  12.572  23.364  0.00  0.00    -0.302 OA
BRANCH  16  17
ATOM     17  C   UNL d   1     -46.122  12.045  23.358  0.00  0.00     0.100 A 
ATOM     18  C   UNL d   1     -46.188  11.295  23.697  0.00  0.00     0.025 A 
ATOM     19  C   UNL d   1     -45.546  10.781  23.688  0.00  0.00     0.005 A 
ATOM     20  C   UNL d   1     -44.833  11.011  23.341  0.00  0.00     0.039 A 
ATOM     21  C   UNL d   1     -44.767  11.764  23.001  0.00  0.00     0.005 A 
ATOM     22  C   UNL d   1     -45.414  12.280  23.011  0.00  0.00     0.025 A 
BRANCH  20  23
ATOM     23  C   UNL d   1     -44.196  10.490  23.336  0.00  0.00     0.196 C 
ATOM     24  O   UNL d   1     -43.444  10.746  23.113  0.00  0.00    -0.287 OA
ATOM     25  C   UNL d   1     -44.315   9.702  23.558  0.00  0.00     0.045 C 
ENDBRANCH  20  23
ENDBRANCH  16  17
ENDBRANCH  15  16
ENDBRANCH   1  15
TORSDOF 6
ENDMDL
MODEL 3
REMARK VINA RESULT:      -6.7      1.495      5.205
REMARK  6 active torsions:
REMARK  status: ('A' for Active; 'I' for Inactive)
REMARK    1  A    between atoms: C_6  and  N_1 
REMARK    2  A    between atoms: C_13  and  C_6 
REMARK    3  A    between atoms: C_8  and  C_9 
REMARK    4  A    between atoms: C_16  and  C_13 
REMARK    5  A    between atoms: O_14  and  C_16 
REMARK    6  A    between atoms: C_15  and  O_14 
ROOT
ATOM      1  C   UNL d   1     -46.274  13.696  22.745  0.00  0.00     0.237 C 
ATOM      2  O   UNL d   1     -45.827  14.046  23.355  0.00  0.00    -0.283 OA
ENDROOT
BRANCH   1   3
ATOM      3  C   UNL d   1     -45.901  13.203  22.190  0.00  0.00     0.117 C 
BRANCH   3   4
ATOM      4  N   UNL d   1     -45.391  12.602  22.443  0.00  0.00    -0.344 N 
ATOM      5  C   UNL d   1     -44.615  12.562  22.143  0.00  0.00     0.086 A 
ATOM      6  C   UNL d   1     -44.107  11.966  22.393  0.00  0.00     0.035 A 
ATOM      7  C   UNL d   1     -43.847  12.527  21.844  0.00  0.00     0.027 C 
ATOM      8  C   UNL d   1     -45.124  13.163  21.890  0.00  0.00     0.027 C 
ATOM      9  C   UNL d   1     -44.365  11.401  22.945  0.00  0.00     0.191 A 
ATOM     10  C   UNL d   1     -45.141  11.441  23.245  0.00  0.00     0.035 A 
ATOM     11  O   UNL d   1     -43.856  10.804  23.196  0.00  0.00    -0.287 OA
ATOM     12  C   UNL d   1     -45.652  12.045  22.990  0.00  0.00     0.086 A 
ATOM     13  C   UNL d   1     -46.160  12.641  22.740  0.00  0.00     0.027 C 
ATOM     14  C   UNL d   1     -45.911  11.487  23.537  0.00  0.00     0.027 C 
ENDBRANCH   3   4
ENDBRANCH   1   3
BRANCH   1  15
ATOM     15  C   UNL d   1     -47.079  13.833  22.687  0.00  0.00     0.166 C 
BRANCH  15  16
ATOM     16  O   UNL d   1     -47.413  14.511  23.028  0.00  0.00    -0.302 OA
BRANCH  16  17
ATOM     17  C   UNL d   1     -48.229  14.674  22.933  0.00  0.00     0.100 A 
ATOM     18  C   UNL d   1     -48.483  15.237  22.386  0.00  0.00     0.025 A 
ATOM     19  C   UNL d   1     -49.286  15.393  22.298  0.00  0.00     0.005 A 
ATOM     20  C   UNL d   1     -49.841  14.988  22.755  0.00  0.00     0.039 A 
ATOM     21  C   UNL d   1     -49.585  14.423  23.305  0.00  0.00     0.005 A 
ATOM     22  C   UNL d   1     -48.777  14.268  23.393  0.00  0.00     0.025 A 
BRANCH  20  23
ATOM     23  C   UNL d   1     -50.643  15.151  22.660  0.00  0.00     0.196 C 
ATOM     24  O   UNL d   1     -51.032  14.955  21.959  0.00  0.00    -0.287 OA
ATOM     25  C   UNL d   1     -51.058  15.514  23.276  0.00  0.00     0.045 C 
ENDBRANCH  20  23
ENDBRANCH  16  17
ENDBRANCH  15  16
ENDBRANCH   1  15
TORSDOF 6
ENDMDL
MODEL 4
REMARK VINA RESULT:      -6.3      8.697     10.009
REMARK  6 active torsions:
REMARK  status: ('A' for Active; 'I' for Inactive)
REMARK    1  A    between atoms: C_6  and  N_1 
REMARK    2  A    between atoms: C_13  and  C_6 
REMARK    3  A    between atoms: C_8  and  C_9 
REMARK    4  A    between atoms: C_16  and  C_13 
REMARK    5  A    between atoms: O_14  and  C_16 
REMARK    6  A    between atoms: C_15  and  O_14 
ROOT
ATOM      1  C   UNL d   1     -39.803  14.276  18.748  0.00  0.00     0.237 C 
ATOM      2  O   UNL d   1     -40.411  13.728  18.596  0.00  0.00    -0.283 OA
ENDROOT
BRANCH   1   3
ATOM      3  C   UNL d   1     -39.503  14.742  18.128  0.00  0.00     0.117 C 
BRANCH   3   4
ATOM      4  N   UNL d   1     -39.112  14.387  17.491  0.00  0.00    -0.344 N 
ATOM      5  C   UNL d   1     -38.944  14.832  16.807  0.00  0.00     0.086 A 
ATOM      6  C   UNL d   1     -38.556  14.480  16.172  0.00  0.00     0.035 A 
ATOM      7  C   UNL d   1     -38.781  15.276  16.131  0.00  0.00     0.027 C 
ATOM      8  C   UNL d   1     -39.335  15.187  17.443  0.00  0.00     0.027 C 
ATOM      9  C   UNL d   1     -38.329  13.682  16.212  0.00  0.00     0.191 A 
ATOM     10  C   UNL d   1     -38.497  13.238  16.896  0.00  0.00     0.035 A 
ATOM     11  O   UNL d   1     -37.940  13.330  15.577  0.00  0.00    -0.287 OA
ATOM     12  C   UNL d   1     -38.889  13.596  17.535  0.00  0.00     0.086 A 
ATOM     13  C   UNL d   1     -39.278  13.947  18.169  0.00  0.00     0.027 C 
ATOM     14  C   UNL d   1     -38.666  12.805  17.577  0.00  0.00     0.027 C 
ENDBRANCH   3   4
ENDBRANCH   1   3
BRANCH   1  15
ATOM     15  C   UNL d   1     -39.496  14.361  19.501  0.00  0.00     0.166 C 
BRANCH  15  16
ATOM     16  O   UNL d   1     -40.001  14.501  20.145  0.00  0.00    -0.302 OA
BRANCH  16  17
ATOM     17  C   UNL d   1     -39.686  14.663  20.903  0.00  0.00     0.100 A 
ATOM     18  C   UNL d   1     -39.260  14.087  21.312  0.00  0.00     0.025 A 
ATOM     19  C   UNL d   1     -38.952  14.253  22.056  0.00  0.00     0.005 A 
ATOM     20  C   UNL d   1     -39.067  14.995  22.398  0.00  0.00     0.039 A 
ATOM     21  C   UNL d   1     -39.496  15.574  21.988  0.00  0.00     0.005 A 
ATOM     22  C   UNL d   1     -39.804  15.406  21.239  0.00  0.00     0.025 A 
BRANCH  20  23
ATOM     23  C   UNL d   1     -38.756  15.152  23.145  0.00  0.00     0.196 C 
ATOM     24  O   UNL d   1     -38.550  15.921  23.362  0.00  0.00    -0.287 OA
ATOM     25  C   UNL d   1     -38.650  14.529  23.679  0.00  0.00     0.045 C 
ENDBRANCH  20  23
ENDBRANCH  16  17
ENDBRANCH  15  16
ENDBRANCH   1  15
TORSDOF 6
ENDMDL
MODEL 5
REMARK VINA RESULT:      -5.8      8.342      9.699
REMARK  6 active torsions:
REMARK  status: ('A' for Active; 'I' for Inactive)
REMARK    1  A    between atoms: C_6  and  N_1 
REMARK    2  A    between atoms: C_13  and  C_6 
REMARK    3  A    between atoms: C_8  and  C_9 
REMARK    4  A    between atoms: C_16  and  C_13 
REMARK    5  A    between atoms: O_14  and  C_16 
REMARK    6  A    between atoms: C_15  and  O_14 
ROOT
ATOM      1  C   UNL d   1     -40.017  14.542  20.485  0.00  0.00     0.237 C 
ATOM      2  O   UNL d   1     -40.546  15.183  20.539  0.00  0.00    -0.283 OA
ENDROOT
BRANCH   1   3
ATOM      3  C   UNL d   1     -39.882  14.061  21.149  0.00  0.00     0.117 C 
BRANCH   3   4
ATOM      4  N   UNL d   1     -39.413  14.335  21.773  0.00  0.00    -0.344 N 
ATOM      5  C   UNL d   1     -38.912  13.808  22.180  0.00  0.00     0.086 A 
ATOM      6  C   UNL d   1     -38.445  14.078  22.800  0.00  0.00     0.035 A 
ATOM      7  C   UNL d   1     -38.418  13.281  22.580  0.00  0.00     0.027 C 
ATOM      8  C   UNL d   1     -39.381  13.533  21.556  0.00  0.00     0.027 C 
ATOM      9  C   UNL d   1     -38.470  14.878  23.024  0.00  0.00     0.191 A 
ATOM     10  C   UNL d   1     -38.970  15.405  22.618  0.00  0.00     0.035 A 
ATOM     11  O   UNL d   1     -38.002  15.149  23.645  0.00  0.00    -0.287 OA
ATOM     12  C   UNL d   1     -39.441  15.128  21.991  0.00  0.00     0.086 A 
ATOM     13  C   UNL d   1     -39.908  14.858  21.371  0.00  0.00     0.027 C 
ATOM     14  C   UNL d   1     -39.468  15.922  22.210  0.00  0.00     0.027 C 
ENDBRANCH   3   4
ENDBRANCH   1   3
BRANCH   1  15
ATOM     15  C   UNL d   1     -39.629  14.379  19.784  0.00  0.00     0.166 C 
BRANCH  15  16
ATOM     16  O   UNL d   1     -40.020  14.473  19.058  0.00  0.00    -0.302 OA
BRANCH  16  17
ATOM     17  C   UNL d   1     -39.609  14.361  18.338  0.00  0.00     0.100 A 
ATOM     18  C   UNL d   1     -38.804  14.181  18.339  0.00  0.00     0.025 A 
ATOM     19  C   UNL d   1     -38.405  14.072  17.628  0.00  0.00     0.005 A 
ATOM     20  C   UNL d   1     -38.806  14.142  16.911  0.00  0.00     0.039 A 
ATOM     21  C   UNL d   1     -39.615  14.323  16.909  0.00  0.00     0.005 A 
ATOM     22  C   UNL d   1     -40.015  14.432  17.625  0.00  0.00     0.025 A 
BRANCH  20  23
ATOM     23  C   UNL d   1     -38.398  14.031  16.204  0.00  0.00     0.196 C 
ATOM     24  O   UNL d   1     -38.357  14.633  15.642  0.00  0.00    -0.287 OA
ATOM     25  C   UNL d   1     -38.027  13.305  16.059  0.00  0.00     0.045 C 
ENDBRANCH  20  23
ENDBRANCH  16  17
ENDBRANCH  15  16
ENDBRANCH   1  15
TORSDOF 6
ENDMDL
