MODEL 1
REMARK VINA RESULT:      -5.5      0.000      0.000
REMARK  5 active torsions:
REMARK  status: ('A' for Active; 'I' for Inactive)
REMARK    1  A    between atoms: C_3  and  N_1 
REMARK       I    between atoms: C_2  and  N_4 
REMARK    2  A    between atoms: C_10  and  C_2 
REMARK    3  A    between atoms: N_4  and  C_9 
REMARK    4  A    between atoms: C_13  and  C_10 
REMARK    5  A    between atoms: C_16  and  C_13 
ROOT
ATOM      1  C   UNL d   1      56.507   0.059  32.463  0.00  0.00     0.064 A 
ATOM      2  C   UNL d   1      56.839   0.669  32.008  0.00  0.00     0.020 A 
ATOM      3  C   UNL d   1      56.594  -0.725  32.222  0.00  0.00     0.020 A 
ATOM      4  C   UNL d   1      57.340  -0.283  31.080  0.00  0.00     0.135 A 
ATOM      5  C   UNL d   1      57.013  -0.899  31.527  0.00  0.00     0.034 A 
ATOM      6  C   UNL d   1      57.254   0.493  31.319  0.00  0.00     0.034 A 
ENDROOT
BRANCH   4   7
ATOM      7  N   UNL d   1      57.756  -0.455  30.390  0.00  0.00    -0.365 NA
ATOM      8  C   UNL d   1      58.175  -0.626  29.693  0.00  0.00     0.328 C 
ATOM      9  O   UNL d   1      58.139  -0.105  29.054  0.00  0.00    -0.251 OA
BRANCH   8  10
ATOM     10  C   UNL d   1      58.626  -1.314  29.640  0.00  0.00     0.076 C 
BRANCH  10  11
ATOM     11  C   UNL d   1      58.896  -1.575  28.913  0.00  0.00     0.006 C 
BRANCH  11  12
ATOM     12  C   UNL d   1      59.299  -2.294  28.854  0.00  0.00     0.000 A 
ATOM     13  C   UNL d   1      60.122  -2.310  28.915  0.00  0.00     0.000 A 
ATOM     14  C   UNL d   1      60.533  -3.029  28.857  0.00  0.00     0.000 A 
ATOM     15  C   UNL d   1      60.116  -3.730  28.738  0.00  0.00     0.000 A 
ATOM     16  C   UNL d   1      59.288  -3.713  28.677  0.00  0.00     0.000 A 
ATOM     17  C   UNL d   1      58.881  -2.995  28.735  0.00  0.00     0.000 A 
ENDBRANCH  11  12
ENDBRANCH  10  11
ENDBRANCH   8  10
ENDBRANCH   4   7
BRANCH   1  18
ATOM     18  N   UNL d   1      56.092   0.235  33.152  0.00  0.00    -0.300 N 
ATOM     19  C   UNL d   1      56.502   0.505  33.815  0.00  0.00     0.107 A 
ATOM     20  C   UNL d   1      56.088   0.682  34.504  0.00  0.00     0.142 A 
ATOM     21  O   UNL d   1      55.274   0.590  34.532  0.00  0.00    -0.300 OA
ATOM     22  C   UNL d   1      54.864   0.320  33.869  0.00  0.00     0.142 A 
ATOM     23  C   UNL d   1      55.275   0.142  33.174  0.00  0.00     0.107 A 
ENDBRANCH   1  18
TORSDOF 5
ENDMDL
MODEL 2
REMARK VINA RESULT:      -4.1      1.530      2.006
REMARK  5 active torsions:
REMARK  status: ('A' for Active; 'I' for Inactive)
REMARK    1  A    between atoms: C_3  and  N_1 
REMARK       I    between atoms: C_2  and  N_4 
REMARK    2  A    between atoms: C_10  and  C_2 
REMARK    3  A    between atoms: N_4  and  C_9 
REMARK    4  A    between atoms: C_13  and  C_10 
REMARK    5  A    between atoms: C_16  and  C_13 
ROOT
ATOM      1  C   UNL d   1      56.018  -0.096  33.173  0.00  0.00     0.064 A 
ATOM      2  C   UNL d   1      56.504   0.437  32.761  0.00  0.00     0.020 A 
ATOM      3  C   UNL d   1      55.972  -0.881  32.926  0.00  0.00     0.020 A 
ATOM      4  C   UNL d   1      56.890  -0.594  31.863  0.00  0.00     0.135 A 
ATOM      5  C   UNL d   1      56.410  -1.134  32.267  0.00  0.00     0.034 A 
ATOM      6  C   UNL d   1      56.937   0.184  32.108  0.00  0.00     0.034 A 
ENDROOT
BRANCH   4   7
ATOM      7  N   UNL d   1      57.326  -0.843  31.209  0.00  0.00    -0.365 NA
ATOM      8  C   UNL d   1      57.764  -1.095  30.550  0.00  0.00     0.328 C 
ATOM      9  O   UNL d   1      57.822  -1.900  30.380  0.00  0.00    -0.251 OA
BRANCH   8  10
ATOM     10  C   UNL d   1      58.141  -0.543  30.068  0.00  0.00     0.076 C 
BRANCH  10  11
ATOM     11  C   UNL d   1      58.628  -0.791  29.459  0.00  0.00     0.006 C 
BRANCH  11  12
ATOM     12  C   UNL d   1      59.289  -0.343  29.249  0.00  0.00     0.000 A 
ATOM     13  C   UNL d   1      60.012  -0.476  29.626  0.00  0.00     0.000 A 
ATOM     14  C   UNL d   1      60.681  -0.030  29.420  0.00  0.00     0.000 A 
ATOM     15  C   UNL d   1      60.623   0.549  28.835  0.00  0.00     0.000 A 
ATOM     16  C   UNL d   1      59.895   0.681  28.456  0.00  0.00     0.000 A 
ATOM     17  C   UNL d   1      59.231   0.235  28.664  0.00  0.00     0.000 A 
ENDBRANCH  11  12
ENDBRANCH  10  11
ENDBRANCH   8  10
ENDBRANCH   4   7
BRANCH   1  18
ATOM     18  N   UNL d   1      55.586   0.158  33.825  0.00  0.00    -0.300 N 
ATOM     19  C   UNL d   1      54.765   0.218  33.770  0.00  0.00     0.107 A 
ATOM     20  C   UNL d   1      54.331   0.471  34.422  0.00  0.00     0.142 A 
ATOM     21  O   UNL d   1      54.712   0.663  35.123  0.00  0.00    -0.300 OA
ATOM     22  C   UNL d   1      55.533   0.602  35.178  0.00  0.00     0.142 A 
ATOM     23  C   UNL d   1      55.974   0.348  34.525  0.00  0.00     0.107 A 
ENDBRANCH   1  18
TORSDOF 5
ENDMDL
MODEL 3
REMARK VINA RESULT:      -3.1      1.621      5.689
REMARK  5 active torsions:
REMARK  status: ('A' for Active; 'I' for Inactive)
REMARK    1  A    between atoms: C_3  and  N_1 
REMARK       I    between atoms: C_2  and  N_4 
REMARK    2  A    between atoms: C_10  and  C_2 
REMARK    3  A    between atoms: N_4  and  C_9 
REMARK    4  A    between atoms: C_13  and  C_10 
REMARK    5  A    between atoms: C_16  and  C_13 
ROOT
ATOM      1  C   UNL d   1      59.520  -2.664  29.170  0.00  0.00     0.064 A 
ATOM      2  C   UNL d   1      59.954  -1.989  29.383  0.00  0.00     0.020 A 
ATOM      3  C   UNL d   1      58.695  -2.645  29.194  0.00  0.00     0.020 A 
ATOM      4  C   UNL d   1      58.747  -1.284  29.642  0.00  0.00     0.135 A 
ATOM      5  C   UNL d   1      58.305  -1.952  29.432  0.00  0.00     0.034 A 
ATOM      6  C   UNL d   1      59.564  -1.302  29.618  0.00  0.00     0.034 A 
ENDROOT
BRANCH   4   7
ATOM      7  N   UNL d   1      58.362  -0.595  29.878  0.00  0.00    -0.365 NA
ATOM      8  C   UNL d   1      57.973   0.100  30.115  0.00  0.00     0.328 C 
ATOM      9  O   UNL d   1      57.773   0.670  29.552  0.00  0.00    -0.251 OA
BRANCH   8  10
ATOM     10  C   UNL d   1      57.787   0.221  30.908  0.00  0.00     0.076 C 
BRANCH  10  11
ATOM     11  C   UNL d   1      57.009   0.191  31.160  0.00  0.00     0.006 C 
BRANCH  11  12
ATOM     12  C   UNL d   1      56.835   0.151  31.966  0.00  0.00     0.000 A 
ATOM     13  C   UNL d   1      57.193   0.679  32.490  0.00  0.00     0.000 A 
ATOM     14  C   UNL d   1      57.022   0.645  33.302  0.00  0.00     0.000 A 
ATOM     15  C   UNL d   1      56.492   0.080  33.586  0.00  0.00     0.000 A 
ATOM     16  C   UNL d   1      56.133  -0.451  33.057  0.00  0.00     0.000 A 
ATOM     17  C   UNL d   1      56.305  -0.414  32.250  0.00  0.00     0.000 A 
ENDBRANCH  11  12
ENDBRANCH  10  11
ENDBRANCH   8  10
ENDBRANCH   4   7
BRANCH   1  18
ATOM     18  N   UNL d   1      59.910  -3.349  28.935  0.00  0.00    -0.300 N 
ATOM     19  C   UNL d   1      59.470  -4.004  28.693  0.00  0.00     0.107 A 
ATOM     20  C   UNL d   1      59.859  -4.690  28.458  0.00  0.00     0.142 A 
ATOM     21  O   UNL d   1      60.679  -4.723  28.463  0.00  0.00    -0.300 OA
ATOM     22  C   UNL d   1      61.118  -4.068  28.705  0.00  0.00     0.142 A 
ATOM     23  C   UNL d   1      60.732  -3.376  28.943  0.00  0.00     0.107 A 
ENDBRANCH   1  18
TORSDOF 5
ENDMDL
