MODEL 1
REMARK VINA RESULT:      25.1      0.000      0.000
REMARK  4 active torsions:
REMARK  status: ('A' for Active; 'I' for Inactive)
REMARK    1  A    between atoms: C_14  and  C_2 
REMARK    2  A    between atoms: C_4  and  C_5 
REMARK    3  A    between atoms: C_5  and  O_9 
REMARK    4  A    between atoms: O_9  and  C_14 
ROOT
ATOM      1  N   UNL d   1     -55.685-100.166 -44.869  0.00  0.00    -0.236 NA
ATOM      2  C   UNL d   1     -55.698 -99.662 -44.228  0.00  0.00     0.136 A 
ATOM      3  S   UNL d   1     -55.390-100.068 -43.567  0.00  0.00    -0.064 SA
ATOM      4  C   UNL d   1     -55.370-100.889 -44.614  0.00  0.00     0.088 A 
ATOM      5  C   UNL d   1     -55.189-100.829 -43.818  0.00  0.00     0.049 A 
ATOM      6  C   UNL d   1     -55.227-101.594 -45.018  0.00  0.00     0.020 A 
ATOM      7  C   UNL d   1     -54.863-101.481 -43.425  0.00  0.00     0.008 A 
ATOM      8  C   UNL d   1     -54.717-102.193 -43.826  0.00  0.00     0.001 A 
ATOM      9  C   UNL d   1     -54.899-102.249 -44.623  0.00  0.00     0.002 A 
ENDROOT
BRANCH   2  10
ATOM     10  C   UNL d   1     -55.960 -98.889 -44.201  0.00  0.00     0.152 C 
BRANCH  10  11
ATOM     11  O   UNL d   1     -56.782 -98.761 -44.108  0.00  0.00    -0.269 OA
BRANCH  11  12
ATOM     12  C   UNL d   1     -57.284 -98.764 -44.784  0.00  0.00     0.306 C 
ATOM     13  O   UNL d   1     -56.949 -98.762 -45.543  0.00  0.00    -0.258 OA
BRANCH  12  14
ATOM     14  C   UNL d   1     -58.130 -98.769 -44.697  0.00  0.00     0.093 A 
ATOM     15  S   UNL d   1     -58.730 -98.761 -45.256  0.00  0.00    -0.081 SA
ATOM     16  C   UNL d   1     -59.445 -98.772 -44.841  0.00  0.00     0.036 A 
ATOM     17  C   UNL d   1     -59.282 -98.787 -44.050  0.00  0.00     0.008 A 
ATOM     18  C   UNL d   1     -58.467 -98.785 -43.951  0.00  0.00     0.012 A 
ENDBRANCH  12  14
ENDBRANCH  11  12
ENDBRANCH  10  11
ENDBRANCH   2  10
TORSDOF 4
ENDMDL
MODEL 2
REMARK VINA RESULT:      26.1      1.032      1.380
REMARK  4 active torsions:
REMARK  status: ('A' for Active; 'I' for Inactive)
REMARK    1  A    between atoms: C_14  and  C_2 
REMARK    2  A    between atoms: C_4  and  C_5 
REMARK    3  A    between atoms: C_5  and  O_9 
REMARK    4  A    between atoms: O_9  and  C_14 
ROOT
ATOM      1  N   UNL d   1     -54.790-100.457 -43.880  0.00  0.00    -0.236 NA
ATOM      2  C   UNL d   1     -54.780-100.006 -44.560  0.00  0.00     0.136 A 
ATOM      3  S   UNL d   1     -54.750-100.521 -45.216  0.00  0.00    -0.064 SA
ATOM      4  C   UNL d   1     -54.765-101.253 -44.105  0.00  0.00     0.088 A 
ATOM      5  C   UNL d   1     -54.741-101.294 -44.922  0.00  0.00     0.049 A 
ATOM      6  C   UNL d   1     -54.763-101.946 -43.657  0.00  0.00     0.020 A 
ATOM      7  C   UNL d   1     -54.714-102.033 -45.293  0.00  0.00     0.008 A 
ATOM      8  C   UNL d   1     -54.711-102.734 -44.848  0.00  0.00     0.001 A 
ATOM      9  C   UNL d   1     -54.736-102.691 -44.030  0.00  0.00     0.002 A 
ENDROOT
BRANCH   2  10
ATOM     10  C   UNL d   1     -54.796 -99.193 -44.625  0.00  0.00     0.152 C 
BRANCH  10  11
ATOM     11  O   UNL d   1     -55.488 -98.797 -44.370  0.00  0.00    -0.269 OA
BRANCH  11  12
ATOM     12  C   UNL d   1     -56.170 -98.789 -44.864  0.00  0.00     0.306 C 
ATOM     13  O   UNL d   1     -56.079 -98.784 -45.688  0.00  0.00    -0.258 OA
BRANCH  12  14
ATOM     14  C   UNL d   1     -56.951 -98.785 -44.527  0.00  0.00     0.093 A 
ATOM     15  S   UNL d   1     -57.203 -98.807 -43.747  0.00  0.00    -0.081 SA
ATOM     16  C   UNL d   1     -58.030 -98.791 -43.760  0.00  0.00     0.036 A 
ATOM     17  C   UNL d   1     -58.273 -98.760 -44.529  0.00  0.00     0.008 A 
ATOM     18  C   UNL d   1     -57.609 -98.756 -45.014  0.00  0.00     0.012 A 
ENDBRANCH  12  14
ENDBRANCH  11  12
ENDBRANCH  10  11
ENDBRANCH   2  10
TORSDOF 4
ENDMDL
MODEL 3
REMARK VINA RESULT:      26.5      3.816      5.247
REMARK  4 active torsions:
REMARK  status: ('A' for Active; 'I' for Inactive)
REMARK    1  A    between atoms: C_14  and  C_2 
REMARK    2  A    between atoms: C_4  and  C_5 
REMARK    3  A    between atoms: C_5  and  O_9 
REMARK    4  A    between atoms: O_9  and  C_14 
ROOT
ATOM      1  N   UNL d   1     -56.176-102.740 -40.207  0.00  0.00    -0.236 NA
ATOM      2  C   UNL d   1     -55.503-102.780 -40.667  0.00  0.00     0.136 A 
ATOM      3  S   UNL d   1     -54.842-102.840 -40.160  0.00  0.00    -0.064 SA
ATOM      4  C   UNL d   1     -55.942-102.774 -39.414  0.00  0.00     0.088 A 
ATOM      5  C   UNL d   1     -55.126-102.835 -39.384  0.00  0.00     0.049 A 
ATOM      6  C   UNL d   1     -56.380-102.757 -38.715  0.00  0.00     0.020 A 
ATOM      7  C   UNL d   1     -54.747-102.879 -38.649  0.00  0.00     0.008 A 
ATOM      8  C   UNL d   1     -55.183-102.861 -37.942  0.00  0.00     0.001 A 
ATOM      9  C   UNL d   1     -55.999-102.800 -37.975  0.00  0.00     0.002 A 
ENDROOT
BRANCH   2  10
ATOM     10  C   UNL d   1     -55.447-102.767 -41.481  0.00  0.00     0.152 C 
BRANCH  10  11
ATOM     11  O   UNL d   1     -54.741-102.468 -41.817  0.00  0.00    -0.269 OA
BRANCH  11  12
ATOM     12  C   UNL d   1     -54.770-101.784 -42.307  0.00  0.00     0.306 C 
ATOM     13  O   UNL d   1     -54.742-101.031 -41.962  0.00  0.00    -0.258 OA
BRANCH  12  14
ATOM     14  C   UNL d   1     -54.828-101.858 -43.153  0.00  0.00     0.093 A 
ATOM     15  S   UNL d   1     -54.713-102.502 -43.648  0.00  0.00    -0.081 SA
ATOM     16  C   UNL d   1     -54.848-102.238 -44.420  0.00  0.00     0.036 A 
ATOM     17  C   UNL d   1     -55.039-101.454 -44.393  0.00  0.00     0.008 A 
ATOM     18  C   UNL d   1     -55.029-101.209 -43.610  0.00  0.00     0.012 A 
ENDBRANCH  12  14
ENDBRANCH  11  12
ENDBRANCH  10  11
ENDBRANCH   2  10
TORSDOF 4
ENDMDL
