MODEL 1
REMARK VINA RESULT:      -3.5      0.000      0.000
REMARK  3 active torsions:
REMARK  status: ('A' for Active; 'I' for Inactive)
REMARK    1  A    between atoms: N_10  and  C_7 
REMARK       I    between atoms: C_9  and  N_10 
REMARK    2  A    between atoms: C_12  and  C_9 
REMARK    3  A    between atoms: O_20  and  C_17 
ROOT
ATOM      1  C   UNL d   1      58.481  -9.803  30.931  0.00  0.00     0.081 A 
ATOM      2  C   UNL d   1      58.151  -9.798  30.182  0.00  0.00     0.301 A 
ATOM      3  C   UNL d   1      59.296  -9.805  31.040  0.00  0.00     0.090 A 
ATOM      4  O   UNL d   1      58.652  -9.796  29.517  0.00  0.00    -0.273 OA
ATOM      5  N   UNL d   1      59.619  -9.810  31.802  0.00  0.00    -0.226 NA
ATOM      6  C   UNL d   1      59.790  -9.802  30.379  0.00  0.00     0.041 A 
ATOM      7  C   UNL d   1      59.111  -9.812  32.461  0.00  0.00     0.166 A 
ATOM      8  C   UNL d   1      57.979  -9.806  31.593  0.00  0.00     0.010 A 
ATOM      9  C   UNL d   1      59.471  -9.798  29.615  0.00  0.00     0.105 A 
ATOM     10  C   UNL d   1      58.294  -9.810  32.358  0.00  0.00     0.039 A 
ATOM     11  O   UNL d   1      57.328  -9.796  30.077  0.00  0.00    -0.259 OA
ATOM     12  C   UNL d   1      60.611  -9.804  30.480  0.00  0.00     0.004 A 
ATOM     13  C   UNL d   1      57.163  -9.804  31.480  0.00  0.00     0.000 C 
ATOM     14  C   UNL d   1      59.958  -9.795  28.960  0.00  0.00     0.025 A 
ATOM     15  C   UNL d   1      61.099  -9.801  29.817  0.00  0.00     0.000 A 
ATOM     16  C   UNL d   1      60.772  -9.797  29.056  0.00  0.00     0.002 A 
ENDROOT
BRANCH   7  17
ATOM     17  N   UNL d   1      59.433  -9.817  33.232  0.00  0.00    -0.189 NA
ATOM     18  C   UNL d   1      59.375  -9.144  33.703  0.00  0.00     0.281 C 
ATOM     19  O   UNL d   1      58.997  -8.464  33.411  0.00  0.00    -0.265 OA
BRANCH  18  20
ATOM     20  C   UNL d   1      59.688  -9.145  34.454  0.00  0.00     0.060 A 
ATOM     21  C   UNL d   1      59.450  -8.595  34.991  0.00  0.00     0.029 A 
ATOM     22  C   UNL d   1      59.769  -8.596  35.758  0.00  0.00     0.094 A 
ATOM     23  C   UNL d   1      60.324  -9.149  35.978  0.00  0.00     0.024 A 
ATOM     24  C   UNL d   1      60.568  -9.719  35.416  0.00  0.00     0.002 A 
ATOM     25  C   UNL d   1      60.251  -9.715  34.661  0.00  0.00     0.005 A 
BRANCH  22  26
ATOM     26  O   UNL d   1      59.521  -8.026  36.309  0.00  0.00    -0.328 OA
ATOM     27  C   UNL d   1      59.882  -7.268  36.318  0.00  0.00     0.181 C 
ENDBRANCH  22  26
ENDBRANCH  18  20
ENDBRANCH   7  17
TORSDOF 3
ENDMDL
MODEL 2
REMARK VINA RESULT:      -3.1      9.382     11.206
REMARK  3 active torsions:
REMARK  status: ('A' for Active; 'I' for Inactive)
REMARK    1  A    between atoms: N_10  and  C_7 
REMARK       I    between atoms: C_9  and  N_10 
REMARK    2  A    between atoms: C_12  and  C_9 
REMARK    3  A    between atoms: O_20  and  C_17 
ROOT
ATOM      1  C   UNL d   1      57.030   0.682  34.078  0.00  0.00     0.081 A 
ATOM      2  C   UNL d   1      56.821   0.682  34.870  0.00  0.00     0.301 A 
ATOM      3  C   UNL d   1      56.461   0.682  33.485  0.00  0.00     0.090 A 
ATOM      4  O   UNL d   1      56.015   0.682  35.077  0.00  0.00    -0.273 OA
ATOM      5  N   UNL d   1      56.683   0.682  32.688  0.00  0.00    -0.226 NA
ATOM      6  C   UNL d   1      55.662   0.682  33.694  0.00  0.00     0.041 A 
ATOM      7  C   UNL d   1      57.491   0.682  32.489  0.00  0.00     0.166 A 
ATOM      8  C   UNL d   1      57.835   0.682  33.873  0.00  0.00     0.010 A 
ATOM      9  C   UNL d   1      55.435   0.682  34.490  0.00  0.00     0.105 A 
ATOM     10  C   UNL d   1      58.066   0.682  33.079  0.00  0.00     0.039 A 
ATOM     11  O   UNL d   1      57.399   0.682  35.465  0.00  0.00    -0.259 OA
ATOM     12  C   UNL d   1      55.083   0.682  33.103  0.00  0.00     0.004 A 
ATOM     13  C   UNL d   1      58.403   0.682  34.471  0.00  0.00     0.000 C 
ATOM     14  C   UNL d   1      54.647   0.682  34.698  0.00  0.00     0.025 A 
ATOM     15  C   UNL d   1      54.289   0.682  33.318  0.00  0.00     0.000 A 
ATOM     16  C   UNL d   1      54.070   0.682  34.116  0.00  0.00     0.002 A 
ENDROOT
BRANCH   7  17
ATOM     17  N   UNL d   1      57.720   0.682  31.685  0.00  0.00    -0.189 NA
ATOM     18  C   UNL d   1      57.704  -0.021  31.257  0.00  0.00     0.281 C 
ATOM     19  O   UNL d   1      57.462  -0.727  31.624  0.00  0.00    -0.265 OA
BRANCH  18  20
ATOM     20  C   UNL d   1      57.926  -0.025  30.474  0.00  0.00     0.060 A 
ATOM     21  C   UNL d   1      58.399  -0.612  30.192  0.00  0.00     0.029 A 
ATOM     22  C   UNL d   1      58.626  -0.616  29.392  0.00  0.00     0.094 A 
ATOM     23  C   UNL d   1      58.374  -0.031  28.884  0.00  0.00     0.024 A 
ATOM     24  C   UNL d   1      57.883   0.576  29.183  0.00  0.00     0.002 A 
ATOM     25  C   UNL d   1      57.662   0.577  29.972  0.00  0.00     0.005 A 
BRANCH  22  26
ATOM     26  O   UNL d   1      59.114  -1.223  29.105  0.00  0.00    -0.328 OA
ATOM     27  C   UNL d   1      59.635  -1.072  28.464  0.00  0.00     0.181 C 
ENDBRANCH  22  26
ENDBRANCH  18  20
ENDBRANCH   7  17
TORSDOF 3
ENDMDL
MODEL 3
REMARK VINA RESULT:      -1.7      8.963      9.400
REMARK  3 active torsions:
REMARK  status: ('A' for Active; 'I' for Inactive)
REMARK    1  A    between atoms: N_10  and  C_7 
REMARK       I    between atoms: C_9  and  N_10 
REMARK    2  A    between atoms: C_12  and  C_9 
REMARK    3  A    between atoms: O_20  and  C_17 
ROOT
ATOM      1  C   UNL d   1      58.773  -1.381  29.505  0.00  0.00     0.081 A 
ATOM      2  C   UNL d   1      59.164  -1.795  28.916  0.00  0.00     0.301 A 
ATOM      3  C   UNL d   1      59.055  -0.660  29.783  0.00  0.00     0.090 A 
ATOM      4  O   UNL d   1      59.862  -1.477  28.592  0.00  0.00    -0.273 OA
ATOM      5  N   UNL d   1      58.652  -0.251  30.378  0.00  0.00    -0.226 NA
ATOM      6  C   UNL d   1      59.748  -0.349  29.460  0.00  0.00     0.041 A 
ATOM      7  C   UNL d   1      57.955  -0.576  30.697  0.00  0.00     0.166 A 
ATOM      8  C   UNL d   1      58.077  -1.699  29.827  0.00  0.00     0.010 A 
ATOM      9  C   UNL d   1      60.154  -0.755  28.863  0.00  0.00     0.105 A 
ATOM     10  C   UNL d   1      57.668  -1.297  30.423  0.00  0.00     0.039 A 
ATOM     11  O   UNL d   1      58.875  -2.521  28.640  0.00  0.00    -0.259 OA
ATOM     12  C   UNL d   1      60.038   0.376  29.733  0.00  0.00     0.004 A 
ATOM     13  C   UNL d   1      57.796  -2.422  29.547  0.00  0.00     0.000 C 
ATOM     14  C   UNL d   1      60.839  -0.448  28.543  0.00  0.00     0.025 A 
ATOM     15  C   UNL d   1      60.730   0.682  29.407  0.00  0.00     0.000 A 
ATOM     16  C   UNL d   1      61.130   0.270  28.811  0.00  0.00     0.002 A 
ENDROOT
BRANCH   7  17
ATOM     17  N   UNL d   1      57.545  -0.166  31.299  0.00  0.00    -0.189 NA
ATOM     18  C   UNL d   1      57.175  -0.588  31.901  0.00  0.00     0.281 C 
ATOM     19  O   UNL d   1      57.210  -1.418  31.909  0.00  0.00    -0.265 OA
BRANCH  18  20
ATOM     20  C   UNL d   1      56.775  -0.192  32.489  0.00  0.00     0.060 A 
ATOM     21  C   UNL d   1      55.975  -0.262  32.550  0.00  0.00     0.029 A 
ATOM     22  C   UNL d   1      55.567   0.142  33.151  0.00  0.00     0.094 A 
ATOM     23  C   UNL d   1      55.965   0.613  33.682  0.00  0.00     0.024 A 
ATOM     24  C   UNL d   1      56.796   0.682  33.613  0.00  0.00     0.002 A 
ATOM     25  C   UNL d   1      57.196   0.282  33.021  0.00  0.00     0.005 A 
BRANCH  22  26
ATOM     26  O   UNL d   1      54.742   0.067  33.211  0.00  0.00    -0.328 OA
ATOM     27  C   UNL d   1      54.353   0.288  33.921  0.00  0.00     0.181 C 
ENDBRANCH  22  26
ENDBRANCH  18  20
ENDBRANCH   7  17
TORSDOF 3
ENDMDL
