MODEL 1
REMARK VINA RESULT:      -3.2      0.000      0.000
REMARK  5 active torsions:
REMARK  status: ('A' for Active; 'I' for Inactive)
REMARK    1  A    between atoms: O_8  and  C_1 
REMARK    2  A    between atoms: C_10  and  C_5 
REMARK    3  A    between atoms: C_12  and  O_8 
REMARK    4  A    between atoms: N_9  and  C_10 
REMARK    5  A    between atoms: O_24  and  C_17 
ROOT
ATOM      1  C   UNL d   1      57.203   0.574  32.161  0.00  0.00     0.161 A 
ATOM      2  C   UNL d   1      58.611   0.596  31.279  0.00  0.00     0.108 A 
ATOM      3  C   UNL d   1      58.640   0.628  32.115  0.00  0.00     0.064 A 
ATOM      4  C   UNL d   1      57.944   0.617  32.551  0.00  0.00     0.222 A 
ATOM      5  C   UNL d   1      59.315   0.608  30.837  0.00  0.00     0.079 A 
ATOM      6  O   UNL d   1      57.883   0.554  30.883  0.00  0.00    -0.305 OA
ATOM      7  C   UNL d   1      57.175   0.542  31.332  0.00  0.00     0.126 A 
ATOM      8  C   UNL d   1      59.379   0.671  32.493  0.00  0.00     0.009 A 
ATOM      9  C   UNL d   1      60.042   0.650  31.229  0.00  0.00     0.199 A 
ATOM     10  O   UNL d   1      57.968   0.649  33.375  0.00  0.00    -0.284 OA
ATOM     11  C   UNL d   1      60.074   0.682  32.053  0.00  0.00     0.042 A 
ATOM     12  O   UNL d   1      60.738   0.661  30.788  0.00  0.00    -0.286 OA
ATOM     13  C   UNL d   1      56.448   0.500  30.949  0.00  0.00     0.029 C 
ENDROOT
BRANCH   1  14
ATOM     14  O   UNL d   1      56.508   0.563  32.601  0.00  0.00    -0.300 OA
BRANCH  14  15
ATOM     15  C   UNL d   1      56.176  -0.156  32.825  0.00  0.00     0.122 A 
ATOM     16  C   UNL d   1      55.538  -0.162  33.352  0.00  0.00     0.117 A 
ATOM     17  C   UNL d   1      55.204  -0.877  33.578  0.00  0.00     0.026 A 
ATOM     18  C   UNL d   1      55.501  -1.588  33.282  0.00  0.00     0.002 A 
ATOM     19  C   UNL d   1      56.143  -1.575  32.752  0.00  0.00     0.002 A 
ATOM     20  C   UNL d   1      56.475  -0.855  32.528  0.00  0.00     0.027 A 
BRANCH  16  21
ATOM     21  O   UNL d   1      55.241   0.540  33.647  0.00  0.00    -0.326 OA
ATOM     22  C   UNL d   1      54.689   0.534  34.263  0.00  0.00     0.181 C 
ENDBRANCH  16  21
ENDBRANCH  14  15
ENDBRANCH   1  14
BRANCH   5  23
ATOM     23  C   UNL d   1      59.283   0.577  30.027  0.00  0.00     0.086 C 
BRANCH  23  24
ATOM     24  N   UNL d   1      59.464  -0.129  29.633  0.00  0.00    -0.300 N 
ATOM     25  C   UNL d   1      58.862  -0.555  29.263  0.00  0.00     0.100 A 
ATOM     26  C   UNL d   1      59.041  -1.256  28.871  0.00  0.00     0.100 A 
ATOM     27  N   UNL d   1      59.819  -1.531  28.849  0.00  0.00    -0.299 N 
ATOM     28  C   UNL d   1      60.418  -1.102  29.220  0.00  0.00     0.100 A 
ATOM     29  C   UNL d   1      59.998  -2.233  28.457  0.00  0.00     0.100 C 
ATOM     30  C   UNL d   1      60.238  -0.397  29.613  0.00  0.00     0.100 A 
ENDBRANCH  23  24
ENDBRANCH   5  23
TORSDOF 5
ENDMDL
