MODEL 1
REMARK VINA RESULT:      41.7      0.000      0.000
REMARK  8 active torsions:
REMARK  status: ('A' for Active; 'I' for Inactive)
REMARK    1  A    between atoms: C_7  and  C_1 
REMARK    2  A    between atoms: C_2  and  O_5 
REMARK    3  A    between atoms: C_4  and  C_2 
REMARK    4  A    between atoms: O_5  and  C_3 
REMARK    5  A    between atoms: C_6  and  C_7 
REMARK    6  A    between atoms: C_8  and  C_6 
REMARK    7  A    between atoms: C_11  and  C_8 
REMARK    8  A    between atoms: O_22  and  C_18 
ROOT
ATOM      1  C   UNL d   1      13.287  12.856  -4.072  0.00  0.00     0.062 A 
ATOM      2  C   UNL d   1      13.378  13.636  -4.356  0.00  0.00     0.106 A 
ATOM      3  C   UNL d   1      13.154  12.243  -4.606  0.00  0.00     0.012 A 
ATOM      4  C   UNL d   1      13.333  13.781  -5.163  0.00  0.00     0.025 A 
ATOM      5  C   UNL d   1      13.110  12.397  -5.412  0.00  0.00     0.035 A 
ATOM      6  C   UNL d   1      13.200  13.169  -5.694  0.00  0.00     0.009 A 
ATOM      7 BR   UNL d   1      12.976  11.780  -5.945  0.00  0.00    -0.049 Br
ENDROOT
BRANCH   1   8
ATOM      8  C   UNL d   1      13.331  12.704  -3.262  0.00  0.00     0.198 C 
ATOM      9  O   UNL d   1      13.120  13.293  -2.722  0.00  0.00    -0.286 OA
BRANCH   8  10
ATOM     10  C   UNL d   1      13.585  11.969  -2.993  0.00  0.00     0.042 C 
BRANCH  10  11
ATOM     11  C   UNL d   1      14.158  11.920  -2.402  0.00  0.00     0.005 C 
BRANCH  11  12
ATOM     12  C   UNL d   1      13.932  11.899  -1.601  0.00  0.00     0.022 A 
ATOM     13  C   UNL d   1      14.535  11.981  -1.025  0.00  0.00     0.094 A 
ATOM     14  C   UNL d   1      14.285  11.957  -0.219  0.00  0.00     0.024 A 
ATOM     15  C   UNL d   1      13.490  11.859  -0.014  0.00  0.00     0.002 A 
ATOM     16  C   UNL d   1      12.914  11.780  -0.619  0.00  0.00     0.000 A 
ATOM     17  C   UNL d   1      13.142  11.801  -1.412  0.00  0.00     0.002 A 
BRANCH  13  18
ATOM     18  O   UNL d   1      15.327  12.079  -1.224  0.00  0.00    -0.328 OA
ATOM     19  C   UNL d   1      15.810  12.582  -0.778  0.00  0.00     0.181 C 
ENDBRANCH  13  18
ENDBRANCH  11  12
ENDBRANCH  10  11
ENDBRANCH   8  10
ENDBRANCH   1   8
BRANCH   2  20
ATOM     20  O   UNL d   1      13.511  14.248  -3.825  0.00  0.00    -0.271 OA
BRANCH  20  21
ATOM     21  C   UNL d   1      13.631  15.015  -4.109  0.00  0.00     0.323 C 
ATOM     22  O   UNL d   1      13.251  15.275  -4.799  0.00  0.00    -0.257 OA
BRANCH  21  23
ATOM     23  C   UNL d   1      14.133  15.531  -3.706  0.00  0.00     0.163 A 
ATOM     24  O   UNL d   1      14.104  15.698  -2.899  0.00  0.00    -0.300 OA
ATOM     25  C   UNL d   1      14.712  16.247  -2.730  0.00  0.00     0.123 A 
ATOM     26  C   UNL d   1      15.109  16.412  -3.435  0.00  0.00     0.029 A 
ATOM     27  C   UNL d   1      14.751  15.970  -4.037  0.00  0.00     0.032 A 
ENDBRANCH  21  23
ENDBRANCH  20  21
ENDBRANCH   2  20
TORSDOF 8
ENDMDL
