MODEL 1
REMARK VINA RESULT:      -2.3      0.000      0.000
REMARK  7 active torsions:
REMARK  status: ('A' for Active; 'I' for Inactive)
REMARK       I    between atoms: C_3  and  N_1 
REMARK    1  A    between atoms: C_4  and  N_2 
REMARK    2  A    between atoms: C_15  and  C_3 
REMARK    3  A    between atoms: C_12  and  C_4 
REMARK    4  A    between atoms: C_13  and  C_4 
REMARK    5  A    between atoms: C_5  and  C_17 
REMARK    6  A    between atoms: C_16  and  C_15 
REMARK    7  A    between atoms: C_17  and  C_16 
ROOT
ATOM      1  N   UNL d   1      32.730  19.587 -23.311  0.00  0.00    -0.269 N 
ATOM      2  N   UNL d   1      32.084  18.144 -23.840  0.00  0.00    -0.301 N 
ATOM      3  C   UNL d   1      33.050  20.298 -23.042  0.00  0.00     0.265 C 
ATOM      4  C   UNL d   1      32.556  18.981 -22.765  0.00  0.00     0.102 A 
ATOM      5  C   UNL d   1      32.577  19.463 -24.121  0.00  0.00     0.102 A 
ATOM      6  C   UNL d   1      32.255  18.743 -24.382  0.00  0.00     0.100 A 
ATOM      7  C   UNL d   1      32.229  18.250 -23.029  0.00  0.00     0.100 A 
ATOM      8  O   UNL d   1      33.216  20.887 -23.587  0.00  0.00    -0.267 OA
ENDROOT
BRANCH   2   9
ATOM      9  C   UNL d   1      31.764  17.429 -24.098  0.00  0.00     0.064 C 
BRANCH   9  10
ATOM     10  C   UNL d   1      30.944  17.359 -24.238  0.00  0.00     0.016 A 
ATOM     11  C   UNL d   1      30.479  16.920 -23.719  0.00  0.00     0.001 A 
ATOM     12  C   UNL d   1      29.674  16.859 -23.867  0.00  0.00     0.000 A 
ATOM     13  C   UNL d   1      29.331  17.227 -24.521  0.00  0.00     0.000 A 
ATOM     14  C   UNL d   1      29.806  17.664 -25.033  0.00  0.00     0.000 A 
ATOM     15  C   UNL d   1      30.620  17.734 -24.897  0.00  0.00     0.001 A 
ENDBRANCH   9  10
BRANCH   9  16
ATOM     16  C   UNL d   1      32.256  16.780 -24.219  0.00  0.00     0.016 A 
ATOM     17  C   UNL d   1      32.435  16.280 -23.597  0.00  0.00     0.001 A 
ATOM     18  C   UNL d   1      32.928  15.627 -23.710  0.00  0.00     0.000 A 
ATOM     19  C   UNL d   1      33.241  15.480 -24.466  0.00  0.00     0.000 A 
ATOM     20  C   UNL d   1      33.057  15.989 -25.097  0.00  0.00     0.000 A 
ATOM     21  C   UNL d   1      32.567  16.634 -24.969  0.00  0.00     0.001 A 
ENDBRANCH   9  16
ENDBRANCH   2   9
BRANCH   3  22
ATOM     22  C   UNL d   1      33.196  20.411 -22.247  0.00  0.00     0.061 C 
BRANCH  22  23
ATOM     23  C   UNL d   1      33.076  21.150 -21.914  0.00  0.00     0.011 C 
BRANCH  23  24
ATOM     24  C   UNL d   1      33.206  21.264 -21.113  0.00  0.00     0.070 C 
BRANCH  24  25
ATOM     25  C   UNL d   1      32.700  21.741 -20.680  0.00  0.00     0.211 C 
ATOM     26  O   UNL d   1      32.987  22.391 -20.286  0.00  0.00    -0.644 OA
ATOM     27  O   UNL d   1      31.893  21.557 -20.646  0.00  0.00    -0.644 OA
ENDBRANCH  24  25
ENDBRANCH  23  24
ENDBRANCH  22  23
ENDBRANCH   3  22
TORSDOF 7
ENDMDL
