MODEL 1
REMARK VINA RESULT:      -3.4      0.000      0.000
REMARK  5 active torsions:
REMARK  status: ('A' for Active; 'I' for Inactive)
REMARK    1  A    between atoms: N_2  and  C_1 
REMARK    2  A    between atoms: C_8  and  C_5 
REMARK    3  A    between atoms: C_6  and  C_9 
REMARK       I    between atoms: N_12  and  C_6 
REMARK    4  A    between atoms: C_9  and  C_8 
REMARK    5  A    between atoms: C_14  and  N_12 
ROOT
ATOM      1  C   UNL d   1      32.963  20.318 -21.912  0.00  0.00     0.279 C 
ATOM      2  N   UNL d   1      32.686  20.461 -21.155  0.00  0.00    -0.208 NA
ATOM      3  O   UNL d   1      33.239  20.939 -22.374  0.00  0.00    -0.265 OA
ENDROOT
BRANCH   1   4
ATOM      4  C   UNL d   1      32.965  19.544 -22.215  0.00  0.00     0.063 C 
BRANCH   4   5
ATOM      5  C   UNL d   1      32.986  19.415 -23.029  0.00  0.00     0.011 C 
BRANCH   5   6
ATOM      6  C   UNL d   1      32.803  18.653 -23.346  0.00  0.00     0.031 A 
ATOM      7  S   UNL d   1      32.847  17.897 -23.020  0.00  0.00    -0.064 SA
ATOM      8  C   UNL d   1      32.596  17.369 -23.591  0.00  0.00     0.156 A 
ATOM      9  C   UNL d   1      32.393  17.776 -24.272  0.00  0.00     0.031 A 
ATOM     10  C   UNL d   1      32.524  18.585 -24.115  0.00  0.00     0.009 A 
BRANCH   8  11
ATOM     11  N   UNL d   1      32.558  16.548 -23.482  0.00  0.00    -0.107 N 
ATOM     12  O   UNL d   1      33.236  16.081 -23.498  0.00  0.00    -0.531 OA
ATOM     13  O   UNL d   1      31.816  16.201 -23.355  0.00  0.00    -0.531 OA
ENDBRANCH   8  11
ENDBRANCH   5   6
ENDBRANCH   4   5
ENDBRANCH   1   4
BRANCH   2  14
ATOM     14  C   UNL d   1      32.684  21.234 -20.853  0.00  0.00     0.085 A 
ATOM     15  C   UNL d   1      32.114  21.780 -21.117  0.00  0.00     0.019 A 
ATOM     16  C   UNL d   1      32.095  22.542 -20.834  0.00  0.00     0.002 A 
ATOM     17  C   UNL d   1      32.679  22.764 -20.255  0.00  0.00     0.000 A 
ATOM     18  C   UNL d   1      33.239  22.218 -19.999  0.00  0.00     0.002 A 
ATOM     19  C   UNL d   1      32.694  23.534 -19.939  0.00  0.00     0.000 C 
ATOM     20  C   UNL d   1      33.241  21.462 -20.294  0.00  0.00     0.019 A 
ENDBRANCH   2  14
TORSDOF 5
ENDMDL
MODEL 2
REMARK VINA RESULT:      -3.2      1.620      5.369
REMARK  5 active torsions:
REMARK  status: ('A' for Active; 'I' for Inactive)
REMARK    1  A    between atoms: N_2  and  C_1 
REMARK    2  A    between atoms: C_8  and  C_5 
REMARK    3  A    between atoms: C_6  and  C_9 
REMARK       I    between atoms: N_12  and  C_6 
REMARK    4  A    between atoms: C_9  and  C_8 
REMARK    5  A    between atoms: C_14  and  N_12 
ROOT
ATOM      1  C   UNL d   1      32.879  18.806 -22.868  0.00  0.00     0.279 C 
ATOM      2  N   UNL d   1      32.510  18.602 -23.570  0.00  0.00    -0.208 NA
ATOM      3  O   UNL d   1      33.241  18.226 -22.411  0.00  0.00    -0.265 OA
ENDROOT
BRANCH   1   4
ATOM      4  C   UNL d   1      32.889  19.598 -22.617  0.00  0.00     0.063 C 
BRANCH   4   5
ATOM      5  C   UNL d   1      33.149  19.792 -21.858  0.00  0.00     0.011 C 
BRANCH   5   6
ATOM      6  C   UNL d   1      32.977  20.551 -21.529  0.00  0.00     0.031 A 
ATOM      7  S   UNL d   1      32.758  21.265 -21.878  0.00  0.00    -0.064 SA
ATOM      8  C   UNL d   1      32.665  21.812 -21.278  0.00  0.00     0.156 A 
ATOM      9  C   UNL d   1      32.821  21.458 -20.556  0.00  0.00     0.031 A 
ATOM     10  C   UNL d   1      33.017  20.663 -20.716  0.00  0.00     0.009 A 
BRANCH   8  11
ATOM     11  N   UNL d   1      32.446  22.603 -21.398  0.00  0.00    -0.107 N 
ATOM     12  O   UNL d   1      31.693  22.873 -21.205  0.00  0.00    -0.531 OA
ATOM     13  O   UNL d   1      33.006  23.122 -21.719  0.00  0.00    -0.531 OA
ENDBRANCH   8  11
ENDBRANCH   5   6
ENDBRANCH   4   5
ENDBRANCH   1   4
BRANCH   2  14
ATOM     14  C   UNL d   1      32.500  17.811 -23.820  0.00  0.00     0.085 A 
ATOM     15  C   UNL d   1      31.882  17.309 -23.581  0.00  0.00     0.019 A 
ATOM     16  C   UNL d   1      31.853  16.531 -23.815  0.00  0.00     0.002 A 
ATOM     17  C   UNL d   1      32.481  16.245 -24.316  0.00  0.00     0.000 A 
ATOM     18  C   UNL d   1      33.089  16.748 -24.549  0.00  0.00     0.002 A 
ATOM     19  C   UNL d   1      32.490  15.456 -24.578  0.00  0.00     0.000 C 
ATOM     20  C   UNL d   1      33.098  17.522 -24.304  0.00  0.00     0.019 A 
ENDBRANCH   2  14
TORSDOF 5
ENDMDL
MODEL 3
REMARK VINA RESULT:      -1.9      1.692      2.214
REMARK  5 active torsions:
REMARK  status: ('A' for Active; 'I' for Inactive)
REMARK    1  A    between atoms: N_2  and  C_1 
REMARK    2  A    between atoms: C_8  and  C_5 
REMARK    3  A    between atoms: C_6  and  C_9 
REMARK       I    between atoms: N_12  and  C_6 
REMARK    4  A    between atoms: C_9  and  C_8 
REMARK    5  A    between atoms: C_14  and  N_12 
ROOT
ATOM      1  C   UNL d   1      32.714  21.461 -20.909  0.00  0.00     0.279 C 
ATOM      2  N   UNL d   1      32.948  22.237 -20.795  0.00  0.00    -0.208 NA
ATOM      3  O   UNL d   1      32.346  21.049 -20.301  0.00  0.00    -0.265 OA
ENDROOT
BRANCH   1   4
ATOM      4  C   UNL d   1      32.848  21.088 -21.640  0.00  0.00     0.063 C 
BRANCH   4   5
ATOM      5  C   UNL d   1      32.755  20.272 -21.715  0.00  0.00     0.011 C 
BRANCH   5   6
ATOM      6  C   UNL d   1      32.901  19.892 -22.456  0.00  0.00     0.031 A 
ATOM      7  S   UNL d   1      32.855  20.164 -23.232  0.00  0.00    -0.064 SA
ATOM      8  C   UNL d   1      33.062  19.544 -23.722  0.00  0.00     0.156 A 
ATOM      9  C   UNL d   1      33.240  18.884 -23.271  0.00  0.00     0.031 A 
ATOM     10  C   UNL d   1      33.138  19.106 -22.472  0.00  0.00     0.009 A 
BRANCH   8  11
ATOM     11  N   UNL d   1      33.085  19.591 -24.550  0.00  0.00    -0.107 N 
ATOM     12  O   UNL d   1      32.957  18.928 -25.021  0.00  0.00    -0.531 OA
ATOM     13  O   UNL d   1      33.240  20.326 -24.898  0.00  0.00    -0.531 OA
ENDBRANCH   8  11
ENDBRANCH   5   6
ENDBRANCH   4   5
ENDBRANCH   1   4
BRANCH   2  14
ATOM     14  C   UNL d   1      32.814  22.609 -20.066  0.00  0.00     0.085 A 
ATOM     15  C   UNL d   1      32.347  23.297 -20.031  0.00  0.00     0.019 A 
ATOM     16  C   UNL d   1      32.204  23.676 -19.327  0.00  0.00     0.002 A 
ATOM     17  C   UNL d   1      32.549  23.345 -18.621  0.00  0.00     0.000 A 
ATOM     18  C   UNL d   1      33.009  22.664 -18.664  0.00  0.00     0.002 A 
ATOM     19  C   UNL d   1      32.427  23.702 -17.880  0.00  0.00     0.000 C 
ATOM     20  C   UNL d   1      33.140  22.301 -19.378  0.00  0.00     0.019 A 
ENDBRANCH   2  14
TORSDOF 5
ENDMDL
MODEL 4
REMARK VINA RESULT:      -1.6      2.257      5.453
REMARK  5 active torsions:
REMARK  status: ('A' for Active; 'I' for Inactive)
REMARK    1  A    between atoms: N_2  and  C_1 
REMARK    2  A    between atoms: C_8  and  C_5 
REMARK    3  A    between atoms: C_6  and  C_9 
REMARK       I    between atoms: N_12  and  C_6 
REMARK    4  A    between atoms: C_9  and  C_8 
REMARK    5  A    between atoms: C_14  and  N_12 
ROOT
ATOM      1  C   UNL d   1      32.829  20.727 -21.967  0.00  0.00     0.279 C 
ATOM      2  N   UNL d   1      33.241  20.020 -21.997  0.00  0.00    -0.208 NA
ATOM      3  O   UNL d   1      32.263  20.898 -22.537  0.00  0.00    -0.265 OA
ENDROOT
BRANCH   1   4
ATOM      4  C   UNL d   1      32.983  21.273 -21.359  0.00  0.00     0.063 C 
BRANCH   4   5
ATOM      5  C   UNL d   1      32.380  21.755 -21.069  0.00  0.00     0.011 C 
BRANCH   5   6
ATOM      6  C   UNL d   1      32.546  22.342 -20.484  0.00  0.00     0.031 A 
ATOM      7  S   UNL d   1      32.368  22.384 -19.680  0.00  0.00    -0.064 SA
ATOM      8  C   UNL d   1      32.672  23.088 -19.398  0.00  0.00     0.156 A 
ATOM      9  C   UNL d   1      33.040  23.492 -20.008  0.00  0.00     0.031 A 
ATOM     10  C   UNL d   1      32.960  23.020 -20.692  0.00  0.00     0.009 A 
BRANCH   8  11
ATOM     11  N   UNL d   1      32.610  23.340 -18.611  0.00  0.00    -0.107 N 
ATOM     12  O   UNL d   1      33.228  23.238 -18.078  0.00  0.00    -0.531 OA
ATOM     13  O   UNL d   1      31.905  23.701 -18.368  0.00  0.00    -0.531 OA
ENDBRANCH   8  11
ENDBRANCH   5   6
ENDBRANCH   4   5
ENDBRANCH   1   4
BRANCH   2  14
ATOM     14  C   UNL d   1      33.087  19.475 -22.604  0.00  0.00     0.085 A 
ATOM     15  C   UNL d   1      33.078  19.730 -23.396  0.00  0.00     0.019 A 
ATOM     16  C   UNL d   1      32.929  19.213 -24.005  0.00  0.00     0.002 A 
ATOM     17  C   UNL d   1      32.782  18.397 -23.805  0.00  0.00     0.000 A 
ATOM     18  C   UNL d   1      32.793  18.154 -23.020  0.00  0.00     0.002 A 
ATOM     19  C   UNL d   1      32.626  17.835 -24.398  0.00  0.00     0.000 C 
ATOM     20  C   UNL d   1      32.944  18.687 -22.426  0.00  0.00     0.019 A 
ENDBRANCH   2  14
TORSDOF 5
ENDMDL
MODEL 5
REMARK VINA RESULT:      -0.9      3.143      5.851
REMARK  5 active torsions:
REMARK  status: ('A' for Active; 'I' for Inactive)
REMARK    1  A    between atoms: N_2  and  C_1 
REMARK    2  A    between atoms: C_8  and  C_5 
REMARK    3  A    between atoms: C_6  and  C_9 
REMARK       I    between atoms: N_12  and  C_6 
REMARK    4  A    between atoms: C_9  and  C_8 
REMARK    5  A    between atoms: C_14  and  N_12 
ROOT
ATOM      1  C   UNL d   1      30.253  16.752 -24.375  0.00  0.00     0.279 C 
ATOM      2  N   UNL d   1      30.002  16.122 -23.916  0.00  0.00    -0.208 NA
ATOM      3  O   UNL d   1      29.702  17.221 -24.766  0.00  0.00    -0.265 OA
ENDROOT
BRANCH   1   4
ATOM      4  C   UNL d   1      31.064  16.919 -24.446  0.00  0.00     0.063 C 
BRANCH   4   5
ATOM      5  C   UNL d   1      31.317  17.674 -24.662  0.00  0.00     0.011 C 
BRANCH   5   6
ATOM      6  C   UNL d   1      31.957  18.043 -24.252  0.00  0.00     0.031 A 
ATOM      7  S   UNL d   1      31.978  18.522 -23.581  0.00  0.00    -0.064 SA
ATOM      8  C   UNL d   1      32.759  18.715 -23.442  0.00  0.00     0.156 A 
ATOM      9  C   UNL d   1      33.234  18.368 -24.012  0.00  0.00     0.031 A 
ATOM     10  C   UNL d   1      32.727  17.944 -24.521  0.00  0.00     0.009 A 
BRANCH   8  11
ATOM     11  N   UNL d   1      33.017  19.192 -22.815  0.00  0.00    -0.107 N 
ATOM     12  O   UNL d   1      33.052  20.011 -22.885  0.00  0.00    -0.531 OA
ATOM     13  O   UNL d   1      33.241  18.825 -22.107  0.00  0.00    -0.531 OA
ENDBRANCH   8  11
ENDBRANCH   5   6
ENDBRANCH   4   5
ENDBRANCH   1   4
BRANCH   2  14
ATOM     14  C   UNL d   1      29.192  15.956 -23.845  0.00  0.00     0.085 A 
ATOM     15  C   UNL d   1      28.795  16.128 -23.135  0.00  0.00     0.019 A 
ATOM     16  C   UNL d   1      28.002  15.973 -23.045  0.00  0.00     0.002 A 
ATOM     17  C   UNL d   1      27.588  15.627 -23.705  0.00  0.00     0.000 A 
ATOM     18  C   UNL d   1      27.989  15.460 -24.404  0.00  0.00     0.002 A 
ATOM     19  C   UNL d   1      26.777  15.453 -23.655  0.00  0.00     0.000 C 
ATOM     20  C   UNL d   1      28.781  15.623 -24.473  0.00  0.00     0.019 A 
ENDBRANCH   2  14
TORSDOF 5
ENDMDL
