MODEL 1
REMARK VINA RESULT:      -8.1      0.000      0.000
REMARK  6 active torsions:
REMARK  status: ('A' for Active; 'I' for Inactive)
REMARK    1  A    between atoms: N_2  and  S_1 
REMARK    2  A    between atoms: N_3  and  S_1 
REMARK    3  A    between atoms: C_9  and  N_3 
REMARK    4  A    between atoms: C_4  and  C_7 
REMARK    5  A    between atoms: O_12  and  C_4 
REMARK    6  A    between atoms: C_17  and  O_12 
ROOT
ATOM      1  C   UNL d   1      50.604  34.043  52.630  0.00  0.00     0.064 A 
ATOM      2  C   UNL d   1      51.956  33.123  52.895  0.00  0.00     0.095 A 
ATOM      3  C   UNL d   1      51.319  34.239  52.249  0.00  0.00     0.007 A 
ATOM      4  C   UNL d   1      50.550  33.386  53.143  0.00  0.00     0.007 A 
ATOM      5  C   UNL d   1      51.238  32.922  53.272  0.00  0.00     0.020 A 
ATOM      6  C   UNL d   1      51.996  33.780  52.384  0.00  0.00     0.020 A 
ENDROOT
BRANCH   2   7
ATOM      7  N   UNL d   1      52.639  32.649  53.023  0.00  0.00    -0.144 NA
BRANCH   7   8
ATOM      8  S   UNL d   1      53.222  32.896  53.550  0.00  0.00     0.351 S 
ATOM      9  O   UNL d   1      53.636  33.122  52.876  0.00  0.00    -0.180 OA
ATOM     10  O   UNL d   1      52.808  32.669  54.225  0.00  0.00    -0.180 OA
BRANCH   8  11
ATOM     11  N   UNL d   1      53.843  33.162  54.022  0.00  0.00    -0.215 N 
ATOM     12  C   UNL d   1      54.592  33.149  53.666  0.00  0.00     0.093 C 
ATOM     13  C   UNL d   1      55.309  33.404  53.980  0.00  0.00     0.020 C 
ATOM     14  C   UNL d   1      55.475  33.627  54.757  0.00  0.00     0.002 C 
ATOM     15  C   UNL d   1      54.970  33.651  55.407  0.00  0.00     0.002 C 
ATOM     16  C   UNL d   1      54.173  33.457  55.438  0.00  0.00     0.020 C 
ATOM     17  C   UNL d   1      53.677  33.189  54.828  0.00  0.00     0.093 C 
ENDBRANCH   8  11
ENDBRANCH   7   8
ENDBRANCH   2   7
BRANCH   1  18
ATOM     18  C   UNL d   1      49.937  34.519  52.503  0.00  0.00     0.300 C 
ATOM     19  O   UNL d   1      49.706  35.055  53.086  0.00  0.00    -0.259 OA
BRANCH  18  20
ATOM     20  O   UNL d   1      49.514  34.454  51.801  0.00  0.00    -0.271 OA
BRANCH  20  21
ATOM     21  C   UNL d   1      48.794  34.846  51.706  0.00  0.00     0.126 C 
ATOM     22  C   UNL d   1      48.396  34.824  50.986  0.00  0.00     0.029 C 
ENDBRANCH  20  21
ENDBRANCH  18  20
ENDBRANCH   1  18
TORSDOF 6
ENDMDL
MODEL 2
REMARK VINA RESULT:      -8.1      1.559      2.226
REMARK  6 active torsions:
REMARK  status: ('A' for Active; 'I' for Inactive)
REMARK    1  A    between atoms: N_2  and  S_1 
REMARK    2  A    between atoms: N_3  and  S_1 
REMARK    3  A    between atoms: C_9  and  N_3 
REMARK    4  A    between atoms: C_4  and  C_7 
REMARK    5  A    between atoms: O_12  and  C_4 
REMARK    6  A    between atoms: C_17  and  O_12 
ROOT
ATOM      1  C   UNL d   1      50.438  34.335  52.651  0.00  0.00     0.064 A 
ATOM      2  C   UNL d   1      51.952  33.726  52.936  0.00  0.00     0.095 A 
ATOM      3  C   UNL d   1      50.627  34.030  53.404  0.00  0.00     0.007 A 
ATOM      4  C   UNL d   1      51.000  34.345  52.032  0.00  0.00     0.007 A 
ATOM      5  C   UNL d   1      51.766  34.038  52.183  0.00  0.00     0.020 A 
ATOM      6  C   UNL d   1      51.383  33.722  53.545  0.00  0.00     0.020 A 
ENDROOT
BRANCH   2   7
ATOM      7  N   UNL d   1      52.724  33.425  53.082  0.00  0.00    -0.144 NA
BRANCH   7   8
ATOM      8  S   UNL d   1      52.845  32.614  53.160  0.00  0.00     0.351 S 
ATOM      9  O   UNL d   1      52.940  32.776  53.961  0.00  0.00    -0.180 OA
ATOM     10  O   UNL d   1      52.750  32.450  52.358  0.00  0.00    -0.180 OA
BRANCH   8  11
ATOM     11  N   UNL d   1      52.976  31.814  53.306  0.00  0.00    -0.215 N 
ATOM     12  C   UNL d   1      53.633  31.640  53.781  0.00  0.00     0.093 C 
ATOM     13  C   UNL d   1      53.890  30.905  54.046  0.00  0.00     0.020 C 
ATOM     14  C   UNL d   1      53.625  30.159  53.815  0.00  0.00     0.002 C 
ATOM     15  C   UNL d   1      53.042  29.963  53.267  0.00  0.00     0.002 C 
ATOM     16  C   UNL d   1      52.581  30.470  52.814  0.00  0.00     0.020 C 
ATOM     17  C   UNL d   1      52.585  31.301  52.794  0.00  0.00     0.093 C 
ENDBRANCH   8  11
ENDBRANCH   7   8
ENDBRANCH   2   7
BRANCH   1  18
ATOM     18  C   UNL d   1      49.673  34.624  52.514  0.00  0.00     0.300 C 
ATOM     19  O   UNL d   1      49.268  34.388  51.835  0.00  0.00    -0.259 OA
BRANCH  18  20
ATOM     20  O   UNL d   1      49.326  35.140  53.052  0.00  0.00    -0.271 OA
BRANCH  20  21
ATOM     21  C   UNL d   1      48.609  35.510  52.878  0.00  0.00     0.126 C 
ATOM     22  C   UNL d   1      48.263  36.027  53.417  0.00  0.00     0.029 C 
ENDBRANCH  20  21
ENDBRANCH  18  20
ENDBRANCH   1  18
TORSDOF 6
ENDMDL
MODEL 3
REMARK VINA RESULT:      -7.8      2.547      4.260
REMARK  6 active torsions:
REMARK  status: ('A' for Active; 'I' for Inactive)
REMARK    1  A    between atoms: N_2  and  S_1 
REMARK    2  A    between atoms: N_3  and  S_1 
REMARK    3  A    between atoms: C_9  and  N_3 
REMARK    4  A    between atoms: C_4  and  C_7 
REMARK    5  A    between atoms: O_12  and  C_4 
REMARK    6  A    between atoms: C_17  and  O_12 
ROOT
ATOM      1  C   UNL d   1      53.037  30.267  53.460  0.00  0.00     0.064 A 
ATOM      2  C   UNL d   1      53.085  31.833  52.923  0.00  0.00     0.095 A 
ATOM      3  C   UNL d   1      52.326  30.667  53.286  0.00  0.00     0.007 A 
ATOM      4  C   UNL d   1      53.779  30.638  53.365  0.00  0.00     0.007 A 
ATOM      5  C   UNL d   1      53.798  31.431  53.091  0.00  0.00     0.020 A 
ATOM      6  C   UNL d   1      52.351  31.451  53.021  0.00  0.00     0.020 A 
ENDROOT
BRANCH   2   7
ATOM      7  N   UNL d   1      53.111  32.626  52.642  0.00  0.00    -0.144 NA
BRANCH   7   8
ATOM      8  S   UNL d   1      53.125  33.255  53.174  0.00  0.00     0.351 S 
ATOM      9  O   UNL d   1      52.316  33.299  53.034  0.00  0.00    -0.180 OA
ATOM     10  O   UNL d   1      53.936  33.211  53.315  0.00  0.00    -0.180 OA
BRANCH   8  11
ATOM     11  N   UNL d   1      53.070  33.890  53.696  0.00  0.00    -0.215 N 
ATOM     12  C   UNL d   1      52.760  34.589  53.376  0.00  0.00     0.093 C 
ATOM     13  C   UNL d   1      52.611  35.303  53.758  0.00  0.00     0.020 C 
ATOM     14  C   UNL d   1      52.836  35.529  54.519  0.00  0.00     0.002 C 
ATOM     15  C   UNL d   1      53.262  35.104  55.081  0.00  0.00     0.002 C 
ATOM     16  C   UNL d   1      53.567  34.344  55.018  0.00  0.00     0.020 C 
ATOM     17  C   UNL d   1      53.525  33.816  54.378  0.00  0.00     0.093 C 
ENDBRANCH   8  11
ENDBRANCH   7   8
ENDBRANCH   2   7
BRANCH   1  18
ATOM     18  C   UNL d   1      53.001  29.488  53.743  0.00  0.00     0.300 C 
ATOM     19  O   UNL d   1      52.638  28.908  53.282  0.00  0.00    -0.259 OA
BRANCH  18  20
ATOM     20  O   UNL d   1      53.325  29.301  54.475  0.00  0.00    -0.271 OA
BRANCH  20  21
ATOM     21  C   UNL d   1      53.259  28.538  54.781  0.00  0.00     0.126 C 
ATOM     22  C   UNL d   1      53.392  28.394  55.580  0.00  0.00     0.029 C 
ENDBRANCH  20  21
ENDBRANCH  18  20
ENDBRANCH   1  18
TORSDOF 6
ENDMDL
MODEL 4
REMARK VINA RESULT:      -6.9      2.089      4.689
REMARK  6 active torsions:
REMARK  status: ('A' for Active; 'I' for Inactive)
REMARK    1  A    between atoms: N_2  and  S_1 
REMARK    2  A    between atoms: N_3  and  S_1 
REMARK    3  A    between atoms: C_9  and  N_3 
REMARK    4  A    between atoms: C_4  and  C_7 
REMARK    5  A    between atoms: O_12  and  C_4 
REMARK    6  A    between atoms: C_17  and  O_12 
ROOT
ATOM      1  C   UNL d   1      53.431  31.108  53.567  0.00  0.00     0.064 A 
ATOM      2  C   UNL d   1      53.055  32.698  53.298  0.00  0.00     0.095 A 
ATOM      3  C   UNL d   1      52.961  31.317  52.911  0.00  0.00     0.007 A 
ATOM      4  C   UNL d   1      53.725  31.686  54.094  0.00  0.00     0.007 A 
ATOM      5  C   UNL d   1      53.533  32.490  53.952  0.00  0.00     0.020 A 
ATOM      6  C   UNL d   1      52.770  32.112  52.779  0.00  0.00     0.020 A 
ENDROOT
BRANCH   2   7
ATOM      7  N   UNL d   1      52.872  33.507  53.158  0.00  0.00    -0.144 NA
BRANCH   7   8
ATOM      8  S   UNL d   1      52.093  33.739  53.022  0.00  0.00     0.351 S 
ATOM      9  O   UNL d   1      52.355  33.926  52.265  0.00  0.00    -0.180 OA
ATOM     10  O   UNL d   1      51.830  33.552  53.781  0.00  0.00    -0.180 OA
BRANCH   8  11
ATOM     11  N   UNL d   1      51.334  33.988  52.821  0.00  0.00    -0.215 N 
ATOM     12  C   UNL d   1      51.181  34.045  52.009  0.00  0.00     0.093 C 
ATOM     13  C   UNL d   1      50.476  34.248  51.636  0.00  0.00     0.020 C 
ATOM     14  C   UNL d   1      49.788  34.551  51.977  0.00  0.00     0.002 C 
ATOM     15  C   UNL d   1      49.635  34.724  52.767  0.00  0.00     0.002 C 
ATOM     16  C   UNL d   1      50.137  34.636  53.412  0.00  0.00     0.020 C 
ATOM     17  C   UNL d   1      50.917  34.352  53.431  0.00  0.00     0.093 C 
ENDBRANCH   8  11
ENDBRANCH   7   8
ENDBRANCH   2   7
BRANCH   1  18
ATOM     18  C   UNL d   1      53.602  30.307  53.701  0.00  0.00     0.300 C 
ATOM     19  O   UNL d   1      54.097  29.906  53.176  0.00  0.00    -0.259 OA
BRANCH  18  20
ATOM     20  O   UNL d   1      53.279  29.921  54.351  0.00  0.00    -0.271 OA
BRANCH  20  21
ATOM     21  C   UNL d   1      53.342  29.102  54.428  0.00  0.00     0.126 C 
ATOM     22  C   UNL d   1      53.250  28.742  55.162  0.00  0.00     0.029 C 
ENDBRANCH  20  21
ENDBRANCH  18  20
ENDBRANCH   1  18
TORSDOF 6
ENDMDL
