MODEL 1
REMARK VINA RESULT:      33.8      0.000      0.000
REMARK  3 active torsions:
REMARK  status: ('A' for Active; 'I' for Inactive)
REMARK    1  A    between atoms: N_2  and  C_1 
REMARK       I    between atoms: C_4  and  N_2 
REMARK    2  A    between atoms: C_8  and  C_4 
REMARK    3  A    between atoms: C_10  and  C_5 
ROOT
ATOM      1  C   UNL d   1     -54.756-101.855 -41.006  0.00  0.00     0.197 A 
ATOM      2  N   UNL d   1     -54.722-101.517 -40.267  0.00  0.00    -0.221 NA
ATOM      3  C   UNL d   1     -54.789-102.177 -39.721  0.00  0.00     0.090 A 
ATOM      4  S   UNL d   1     -54.840-102.679 -40.960  0.00  0.00    -0.046 SA
ATOM      5  C   UNL d   1     -54.861-102.879 -40.175  0.00  0.00     0.058 A 
ENDROOT
BRANCH   1   6
ATOM      6  N   UNL d   1     -54.711-101.419 -41.732  0.00  0.00    -0.183 NA
ATOM      7  C   UNL d   1     -54.975-101.794 -42.440  0.00  0.00     0.281 C 
ATOM      8  O   UNL d   1     -55.270-102.569 -42.422  0.00  0.00    -0.265 OA
BRANCH   7   9
ATOM      9  C   UNL d   1     -54.946-101.400 -43.164  0.00  0.00     0.058 A 
ATOM     10  C   UNL d   1     -54.903-100.585 -43.161  0.00  0.00     0.005 A 
ATOM     11  C   UNL d   1     -54.873-100.176 -43.892  0.00  0.00     0.000 A 
ATOM     12  C   UNL d   1     -54.887-100.577 -44.609  0.00  0.00     0.000 A 
ATOM     13  C   UNL d   1     -54.932-101.417 -44.600  0.00  0.00     0.000 A 
ATOM     14  C   UNL d   1     -54.861-100.226 -45.281  0.00  0.00     0.000 C 
ATOM     15  C   UNL d   1     -54.961-101.823 -43.872  0.00  0.00     0.005 A 
ENDBRANCH   7   9
ENDBRANCH   1   6
BRANCH   3  16
ATOM     16  C   UNL d   1     -54.787-102.148 -38.903  0.00  0.00     0.018 A 
ATOM     17  C   UNL d   1     -54.731-101.427 -38.531  0.00  0.00     0.002 A 
ATOM     18  C   UNL d   1     -54.727-101.381 -37.697  0.00  0.00     0.000 A 
ATOM     19  C   UNL d   1     -54.780-102.062 -37.243  0.00  0.00     0.000 A 
ATOM     20  C   UNL d   1     -54.837-102.806 -37.615  0.00  0.00     0.000 A 
ATOM     21  C   UNL d   1     -54.840-102.835 -38.451  0.00  0.00     0.002 A 
ENDBRANCH   3  16
TORSDOF 3
ENDMDL
MODEL 2
REMARK VINA RESULT:      35.3      0.978      1.713
REMARK  3 active torsions:
REMARK  status: ('A' for Active; 'I' for Inactive)
REMARK    1  A    between atoms: N_2  and  C_1 
REMARK       I    between atoms: C_4  and  N_2 
REMARK    2  A    between atoms: C_8  and  C_4 
REMARK    3  A    between atoms: C_10  and  C_5 
ROOT
ATOM      1  C   UNL d   1     -54.977-102.007 -39.447  0.00  0.00     0.197 A 
ATOM      2  N   UNL d   1     -54.819-101.613 -38.754  0.00  0.00    -0.221 NA
ATOM      3  C   UNL d   1     -55.024-102.170 -38.133  0.00  0.00     0.090 A 
ATOM      4  S   UNL d   1     -55.267-102.771 -39.303  0.00  0.00    -0.046 SA
ATOM      5  C   UNL d   1     -55.297-102.874 -38.500  0.00  0.00     0.058 A 
ENDROOT
BRANCH   1   6
ATOM      6  N   UNL d   1     -54.860-101.678 -40.220  0.00  0.00    -0.183 NA
ATOM      7  C   UNL d   1     -55.105-102.131 -40.888  0.00  0.00     0.281 C 
ATOM      8  O   UNL d   1     -55.450-102.879 -40.788  0.00  0.00    -0.265 OA
BRANCH   7   9
ATOM      9  C   UNL d   1     -55.006-101.843 -41.655  0.00  0.00     0.058 A 
ATOM     10  C   UNL d   1     -55.005-102.377 -42.272  0.00  0.00     0.005 A 
ATOM     11  C   UNL d   1     -54.906-102.093 -43.055  0.00  0.00     0.000 A 
ATOM     12  C   UNL d   1     -54.810-101.293 -43.212  0.00  0.00     0.000 A 
ATOM     13  C   UNL d   1     -54.814-100.752 -42.568  0.00  0.00     0.000 A 
ATOM     14  C   UNL d   1     -54.719-101.015 -43.912  0.00  0.00     0.000 C 
ATOM     15  C   UNL d   1     -54.912-101.035 -41.790  0.00  0.00     0.005 A 
ENDBRANCH   7   9
ENDBRANCH   1   6
BRANCH   3  16
ATOM     16  C   UNL d   1     -54.971-102.056 -37.324  0.00  0.00     0.018 A 
ATOM     17  C   UNL d   1     -54.788-101.317 -37.039  0.00  0.00     0.002 A 
ATOM     18  C   UNL d   1     -54.730-101.184 -36.216  0.00  0.00     0.000 A 
ATOM     19  C   UNL d   1     -54.858-101.797 -35.686  0.00  0.00     0.000 A 
ATOM     20  C   UNL d   1     -55.047-102.558 -35.969  0.00  0.00     0.000 A 
ATOM     21  C   UNL d   1     -55.101-102.675 -36.795  0.00  0.00     0.002 A 
ENDBRANCH   3  16
TORSDOF 3
ENDMDL
