MODEL 1
REMARK VINA RESULT:      -6.8      0.000      0.000
REMARK  5 active torsions:
REMARK  status: ('A' for Active; 'I' for Inactive)
REMARK    1  A    between atoms: C_11  and  N_2 
REMARK    2  A    between atoms: C_5  and  C_3 
REMARK    3  A    between atoms: C_7  and  C_5 
REMARK    4  A    between atoms: C_8  and  C_7 
REMARK    5  A    between atoms: C_10  and  C_8 
ROOT
ATOM      1  C   UNL d   1     -47.746  13.849  22.786  0.00  0.00     0.006 C 
ENDROOT
BRANCH   1   2
ATOM      2  C   UNL d   1     -47.483  13.120  23.063  0.00  0.00     0.039 A 
ATOM      3  C   UNL d   1     -47.872  12.485  23.410  0.00  0.00     0.122 A 
ATOM      4  N   UNL d   1     -47.316  11.903  23.572  0.00  0.00    -0.164 NA
ATOM      5  N   UNL d   1     -46.584  12.172  23.327  0.00  0.00    -0.228 N 
ATOM      6  C   UNL d   1     -46.684  12.930  23.010  0.00  0.00     0.085 A 
ATOM      7  C   UNL d   1     -46.080  13.407  22.695  0.00  0.00     0.021 C 
BRANCH   5   8
ATOM      8  C   UNL d   1     -45.875  11.758  23.389  0.00  0.00     0.101 C 
ATOM      9  C   UNL d   1     -45.869  10.989  23.692  0.00  0.00     0.022 C 
ENDBRANCH   5   8
ENDBRANCH   1   2
BRANCH   1  10
ATOM     10  C   UNL d   1     -48.502  14.115  22.981  0.00  0.00     0.042 C 
BRANCH  10  11
ATOM     11  C   UNL d   1     -48.779  14.840  22.688  0.00  0.00     0.196 C 
ATOM     12  O   UNL d   1     -48.298  15.301  22.205  0.00  0.00    -0.287 OA
BRANCH  11  13
ATOM     13  C   UNL d   1     -49.545  15.102  22.881  0.00  0.00     0.039 A 
ATOM     14  C   UNL d   1     -49.650  15.643  23.498  0.00  0.00     0.003 A 
ATOM     15  C   UNL d   1     -50.406  15.905  23.693  0.00  0.00     0.000 A 
ATOM     16  C   UNL d   1     -51.062  15.628  23.273  0.00  0.00     0.000 A 
ATOM     17  C   UNL d   1     -50.954  15.089  22.658  0.00  0.00     0.000 A 
ATOM     18  C   UNL d   1     -50.198  14.828  22.465  0.00  0.00     0.003 A 
ENDBRANCH  11  13
ENDBRANCH  10  11
ENDBRANCH   1  10
TORSDOF 5
ENDMDL
MODEL 2
REMARK VINA RESULT:      -5.4      8.601     10.092
REMARK  5 active torsions:
REMARK  status: ('A' for Active; 'I' for Inactive)
REMARK    1  A    between atoms: C_11  and  N_2 
REMARK    2  A    between atoms: C_5  and  C_3 
REMARK    3  A    between atoms: C_7  and  C_5 
REMARK    4  A    between atoms: C_8  and  C_7 
REMARK    5  A    between atoms: C_10  and  C_8 
ROOT
ATOM      1  C   UNL d   1     -39.842  13.994  18.199  0.00  0.00     0.006 C 
ENDROOT
BRANCH   1   2
ATOM      2  C   UNL d   1     -39.487  14.201  17.485  0.00  0.00     0.039 A 
ATOM      3  C   UNL d   1     -39.561  14.860  16.999  0.00  0.00     0.122 A 
ATOM      4  N   UNL d   1     -39.064  14.758  16.354  0.00  0.00    -0.164 NA
ATOM      5  N   UNL d   1     -38.682  14.039  16.436  0.00  0.00    -0.228 N 
ATOM      6  C   UNL d   1     -38.943  13.690  17.139  0.00  0.00     0.085 A 
ATOM      7  C   UNL d   1     -38.695  12.954  17.436  0.00  0.00     0.021 C 
BRANCH   5   8
ATOM      8  C   UNL d   1     -38.134  13.724  15.908  0.00  0.00     0.101 C 
ATOM      9  C   UNL d   1     -37.940  14.134  15.217  0.00  0.00     0.022 C 
ENDBRANCH   5   8
ENDBRANCH   1   2
BRANCH   1  10
ATOM     10  C   UNL d   1     -40.019  14.577  18.755  0.00  0.00     0.042 C 
BRANCH  10  11
ATOM     11  C   UNL d   1     -40.487  14.396  19.416  0.00  0.00     0.196 C 
ATOM     12  O   UNL d   1     -40.965  13.727  19.412  0.00  0.00    -0.287 OA
BRANCH  11  13
ATOM     13  C   UNL d   1     -40.472  14.892  20.084  0.00  0.00     0.039 A 
ATOM     14  C   UNL d   1     -39.843  14.840  20.621  0.00  0.00     0.003 A 
ATOM     15  C   UNL d   1     -39.824  15.328  21.283  0.00  0.00     0.000 A 
ATOM     16  C   UNL d   1     -40.433  15.872  21.414  0.00  0.00     0.000 A 
ATOM     17  C   UNL d   1     -41.058  15.922  20.879  0.00  0.00     0.000 A 
ATOM     18  C   UNL d   1     -41.075  15.433  20.217  0.00  0.00     0.003 A 
ENDBRANCH  11  13
ENDBRANCH  10  11
ENDBRANCH   1  10
TORSDOF 5
ENDMDL
MODEL 3
REMARK VINA RESULT:      -5.2      1.897      4.693
REMARK  5 active torsions:
REMARK  status: ('A' for Active; 'I' for Inactive)
REMARK    1  A    between atoms: C_11  and  N_2 
REMARK    2  A    between atoms: C_5  and  C_3 
REMARK    3  A    between atoms: C_7  and  C_5 
REMARK    4  A    between atoms: C_8  and  C_7 
REMARK    5  A    between atoms: C_10  and  C_8 
ROOT
ATOM      1  C   UNL d   1     -49.188  12.651  23.417  0.00  0.00     0.006 C 
ENDROOT
BRANCH   1   2
ATOM      2  C   UNL d   1     -49.458  13.417  23.287  0.00  0.00     0.039 A 
ATOM      3  C   UNL d   1     -49.082  14.102  23.030  0.00  0.00     0.122 A 
ATOM      4  N   UNL d   1     -49.640  14.705  23.007  0.00  0.00    -0.164 NA
ATOM      5  N   UNL d   1     -50.358  14.399  23.248  0.00  0.00    -0.228 N 
ATOM      6  C   UNL d   1     -50.249  13.597  23.423  0.00  0.00     0.085 A 
ATOM      7  C   UNL d   1     -50.839  13.075  23.689  0.00  0.00     0.021 C 
BRANCH   5   8
ATOM      8  C   UNL d   1     -51.064  14.819  23.304  0.00  0.00     0.101 C 
ATOM      9  C   UNL d   1     -51.052  15.630  23.463  0.00  0.00     0.022 C 
ENDBRANCH   5   8
ENDBRANCH   1   2
BRANCH   1  10
ATOM     10  C   UNL d   1     -48.377  12.501  23.456  0.00  0.00     0.042 C 
BRANCH  10  11
ATOM     11  C   UNL d   1     -48.097  11.720  23.492  0.00  0.00     0.196 C 
ATOM     12  O   UNL d   1     -48.629  11.093  23.536  0.00  0.00    -0.287 OA
BRANCH  11  13
ATOM     13  C   UNL d   1     -47.279  11.571  23.483  0.00  0.00     0.039 A 
ATOM     14  C   UNL d   1     -46.995  10.824  23.698  0.00  0.00     0.003 A 
ATOM     15  C   UNL d   1     -46.186  10.671  23.690  0.00  0.00     0.000 A 
ATOM     16  C   UNL d   1     -45.656  11.264  23.467  0.00  0.00     0.000 A 
ATOM     17  C   UNL d   1     -45.940  12.008  23.253  0.00  0.00     0.000 A 
ATOM     18  C   UNL d   1     -46.749  12.159  23.262  0.00  0.00     0.003 A 
ENDBRANCH  11  13
ENDBRANCH  10  11
ENDBRANCH   1  10
TORSDOF 5
ENDMDL
MODEL 4
REMARK VINA RESULT:      -4.8      9.315     10.118
REMARK  5 active torsions:
REMARK  status: ('A' for Active; 'I' for Inactive)
REMARK    1  A    between atoms: C_11  and  N_2 
REMARK    2  A    between atoms: C_5  and  C_3 
REMARK    3  A    between atoms: C_7  and  C_5 
REMARK    4  A    between atoms: C_8  and  C_7 
REMARK    5  A    between atoms: C_10  and  C_8 
ROOT
ATOM      1  C   UNL d   1     -39.481  14.429  19.254  0.00  0.00     0.006 C 
ENDROOT
BRANCH   1   2
ATOM      2  C   UNL d   1     -39.982  14.906  18.807  0.00  0.00     0.039 A 
ATOM      3  C   UNL d   1     -40.406  15.587  18.988  0.00  0.00     0.122 A 
ATOM      4  N   UNL d   1     -40.813  15.820  18.313  0.00  0.00    -0.164 NA
ATOM      5  N   UNL d   1     -40.643  15.289  17.715  0.00  0.00    -0.228 N 
ATOM      6  C   UNL d   1     -40.126  14.718  18.019  0.00  0.00     0.085 A 
ATOM      7  C   UNL d   1     -39.814  14.074  17.597  0.00  0.00     0.021 C 
BRANCH   5   8
ATOM      8  C   UNL d   1     -40.939  15.320  16.947  0.00  0.00     0.101 C 
ATOM      9  C   UNL d   1     -41.462  15.921  16.728  0.00  0.00     0.022 C 
ENDBRANCH   5   8
ENDBRANCH   1   2
BRANCH   1  10
ATOM     10  C   UNL d   1     -39.369  14.587  20.056  0.00  0.00     0.042 C 
BRANCH  10  11
ATOM     11  C   UNL d   1     -38.803  14.163  20.490  0.00  0.00     0.196 C 
ATOM     12  O   UNL d   1     -38.281  13.657  20.104  0.00  0.00    -0.287 OA
BRANCH  11  13
ATOM     13  C   UNL d   1     -38.764  14.248  21.316  0.00  0.00     0.039 A 
ATOM     14  C   UNL d   1     -39.098  13.671  21.806  0.00  0.00     0.003 A 
ATOM     15  C   UNL d   1     -39.061  13.751  22.624  0.00  0.00     0.000 A 
ATOM     16  C   UNL d   1     -38.690  14.409  22.959  0.00  0.00     0.000 A 
ATOM     17  C   UNL d   1     -38.357  14.984  22.470  0.00  0.00     0.000 A 
ATOM     18  C   UNL d   1     -38.395  14.901  21.652  0.00  0.00     0.003 A 
ENDBRANCH  11  13
ENDBRANCH  10  11
ENDBRANCH   1  10
TORSDOF 5
ENDMDL
MODEL 5
REMARK VINA RESULT:      -4.7      2.173      4.815
REMARK  5 active torsions:
REMARK  status: ('A' for Active; 'I' for Inactive)
REMARK    1  A    between atoms: C_11  and  N_2 
REMARK    2  A    between atoms: C_5  and  C_3 
REMARK    3  A    between atoms: C_7  and  C_5 
REMARK    4  A    between atoms: C_8  and  C_7 
REMARK    5  A    between atoms: C_10  and  C_8 
ROOT
ATOM      1  C   UNL d   1     -47.611  12.401  23.318  0.00  0.00     0.006 C 
ENDROOT
BRANCH   1   2
ATOM      2  C   UNL d   1     -48.392  12.140  23.301  0.00  0.00     0.039 A 
ATOM      3  C   UNL d   1     -48.783  11.535  23.698  0.00  0.00     0.122 A 
ATOM      4  N   UNL d   1     -49.568  11.537  23.455  0.00  0.00    -0.164 NA
ATOM      5  N   UNL d   1     -49.666  12.140  22.912  0.00  0.00    -0.228 N 
ATOM      6  C   UNL d   1     -48.936  12.517  22.813  0.00  0.00     0.085 A 
ATOM      7  C   UNL d   1     -48.788  13.161  22.309  0.00  0.00     0.021 C 
BRANCH   5   8
ATOM      8  C   UNL d   1     -50.371  12.332  22.531  0.00  0.00     0.101 C 
ATOM      9  C   UNL d   1     -51.064  12.433  22.969  0.00  0.00     0.022 C 
ENDBRANCH   5   8
ENDBRANCH   1   2
BRANCH   1  10
ATOM     10  C   UNL d   1     -46.994  11.854  23.338  0.00  0.00     0.042 C 
BRANCH  10  11
ATOM     11  C   UNL d   1     -46.212  12.109  23.447  0.00  0.00     0.196 C 
ATOM     12  O   UNL d   1     -46.055  12.902  23.603  0.00  0.00    -0.287 OA
BRANCH  11  13
ATOM     13  C   UNL d   1     -45.586  11.564  23.400  0.00  0.00     0.039 A 
ATOM     14  C   UNL d   1     -45.685  10.798  23.698  0.00  0.00     0.003 A 
ATOM     15  C   UNL d   1     -45.068  10.255  23.653  0.00  0.00     0.000 A 
ATOM     16  C   UNL d   1     -44.348  10.473  23.310  0.00  0.00     0.000 A 
ATOM     17  C   UNL d   1     -44.252  11.236  23.013  0.00  0.00     0.000 A 
ATOM     18  C   UNL d   1     -44.870  11.778  23.059  0.00  0.00     0.003 A 
ENDBRANCH  11  13
ENDBRANCH  10  11
ENDBRANCH   1  10
TORSDOF 5
ENDMDL
