MODEL 1
REMARK VINA RESULT:      -9.6      0.000      0.000
REMARK  5 active torsions:
REMARK  status: ('A' for Active; 'I' for Inactive)
REMARK    1  A    between atoms: C_15  and  C_4 
REMARK    2  A    between atoms: S_10  and  C_5 
REMARK    3  A    between atoms: C_17  and  S_10 
REMARK    4  A    between atoms: C_11  and  C_14 
REMARK    5  A    between atoms: C_14  and  C_17 
ROOT
ATOM      1  N   UNL d   1      51.874  34.199  53.444  0.00  0.00    -0.206 N 
ATOM      2  C   UNL d   1      52.578  33.869  53.723  0.00  0.00     0.166 A 
ATOM      3  N   UNL d   1      52.207  35.417  54.063  0.00  0.00    -0.163 NA
ATOM      4  C   UNL d   1      53.092  34.309  54.167  0.00  0.00     0.055 A 
ATOM      5  C   UNL d   1      51.376  33.743  53.004  0.00  0.00     0.116 A 
ATOM      6  C   UNL d   1      52.899  35.093  54.336  0.00  0.00     0.104 A 
ATOM      7  N   UNL d   1      52.765  33.092  53.552  0.00  0.00    -0.227 NA
ATOM      8  C   UNL d   1      51.547  32.966  52.824  0.00  0.00     0.045 A 
ATOM      9  C   UNL d   1      52.247  32.638  53.101  0.00  0.00     0.085 A 
ATOM     10  C   UNL d   1      53.413  35.528  54.779  0.00  0.00     0.023 C 
ATOM     11  C   UNL d   1      52.442  31.828  52.923  0.00  0.00     0.021 C 
ENDROOT
BRANCH   5  12
ATOM     12  S   UNL d   1      50.651  34.084  52.717  0.00  0.00    -0.064 SA
BRANCH  12  13
ATOM     13  C   UNL d   1      49.872  34.408  52.696  0.00  0.00     0.079 C 
BRANCH  13  14
ATOM     14  C   UNL d   1      49.528  34.627  51.951  0.00  0.00     0.202 C 
ATOM     15  O   UNL d   1      49.943  34.457  51.235  0.00  0.00    -0.286 OA
BRANCH  14  16
ATOM     16  C   UNL d   1      48.781  35.009  51.927  0.00  0.00     0.043 A 
ATOM     17  C   UNL d   1      48.228  34.831  51.312  0.00  0.00     0.049 A 
ATOM     18  C   UNL d   1      47.472  35.222  51.292  0.00  0.00     0.234 A 
ATOM     19  O   UNL d   1      46.915  35.042  50.672  0.00  0.00    -0.283 OA
ATOM     20  C   UNL d   1      47.273  35.786  51.886  0.00  0.00     0.234 A 
ATOM     21  C   UNL d   1      47.818  35.969  52.502  0.00  0.00     0.045 A 
ATOM     22  O   UNL d   1      46.525  36.177  51.872  0.00  0.00    -0.283 OA
ATOM     23  C   UNL d   1      48.574  35.579  52.522  0.00  0.00     0.007 A 
ENDBRANCH  14  16
ENDBRANCH  13  14
ENDBRANCH  12  13
ENDBRANCH   5  12
BRANCH   4  24
ATOM     24  C   UNL d   1      53.785  33.984  54.441  0.00  0.00     0.004 A 
ATOM     25  C   UNL d   1      54.442  33.980  53.975  0.00  0.00     0.000 A 
ATOM     26  C   UNL d   1      55.135  33.656  54.249  0.00  0.00     0.000 A 
ATOM     27  C   UNL d   1      55.171  33.335  54.988  0.00  0.00     0.000 A 
ATOM     28  C   UNL d   1      54.494  33.342  55.461  0.00  0.00     0.000 A 
ATOM     29  C   UNL d   1      53.818  33.665  55.180  0.00  0.00     0.000 A 
ENDBRANCH   4  24
TORSDOF 5
ENDMDL
MODEL 2
REMARK VINA RESULT:      -8.2      2.111      6.027
REMARK  5 active torsions:
REMARK  status: ('A' for Active; 'I' for Inactive)
REMARK    1  A    between atoms: C_15  and  C_4 
REMARK    2  A    between atoms: S_10  and  C_5 
REMARK    3  A    between atoms: C_17  and  S_10 
REMARK    4  A    between atoms: C_11  and  C_14 
REMARK    5  A    between atoms: C_14  and  C_17 
ROOT
ATOM      1  N   UNL d   1      49.336  35.093  52.915  0.00  0.00    -0.206 N 
ATOM      2  C   UNL d   1      48.602  35.270  52.581  0.00  0.00     0.166 A 
ATOM      3  N   UNL d   1      49.002  35.861  54.044  0.00  0.00    -0.163 NA
ATOM      4  C   UNL d   1      48.072  35.738  52.975  0.00  0.00     0.055 A 
ATOM      5  C   UNL d   1      49.849  34.625  52.506  0.00  0.00     0.116 A 
ATOM      6  C   UNL d   1      48.280  36.035  53.715  0.00  0.00     0.104 A 
ATOM      7  N   UNL d   1      48.401  34.973  51.847  0.00  0.00    -0.227 NA
ATOM      8  C   UNL d   1      49.665  34.320  51.772  0.00  0.00     0.045 A 
ATOM      9  C   UNL d   1      48.935  34.496  51.440  0.00  0.00     0.085 A 
ATOM     10  C   UNL d   1      47.750  36.501  54.105  0.00  0.00     0.023 C 
ATOM     11  C   UNL d   1      48.725  34.186  50.674  0.00  0.00     0.021 C 
ENDROOT
BRANCH   5  12
ATOM     12  S   UNL d   1      50.606  34.443  52.850  0.00  0.00    -0.064 SA
BRANCH  12  13
ATOM     13  C   UNL d   1      51.222  34.037  53.259  0.00  0.00     0.079 C 
BRANCH  13  14
ATOM     14  C   UNL d   1      52.030  34.277  53.146  0.00  0.00     0.202 C 
ATOM     15  O   UNL d   1      52.217  34.841  52.545  0.00  0.00    -0.286 OA
BRANCH  14  16
ATOM     16  C   UNL d   1      52.637  33.956  53.628  0.00  0.00     0.043 A 
ATOM     17  C   UNL d   1      52.996  34.425  54.234  0.00  0.00     0.049 A 
ATOM     18  C   UNL d   1      53.612  34.094  54.721  0.00  0.00     0.234 A 
ATOM     19  O   UNL d   1      53.973  34.567  55.331  0.00  0.00    -0.283 OA
ATOM     20  C   UNL d   1      53.864  33.299  54.600  0.00  0.00     0.234 A 
ATOM     21  C   UNL d   1      53.511  32.825  53.998  0.00  0.00     0.045 A 
ATOM     22  O   UNL d   1      54.473  32.965  55.079  0.00  0.00    -0.283 OA
ATOM     23  C   UNL d   1      52.896  33.155  53.512  0.00  0.00     0.007 A 
ENDBRANCH  14  16
ENDBRANCH  13  14
ENDBRANCH  12  13
ENDBRANCH   5  12
BRANCH   4  24
ATOM     24  C   UNL d   1      47.349  35.912  52.646  0.00  0.00     0.004 A 
ATOM     25  C   UNL d   1      46.703  35.469  52.833  0.00  0.00     0.000 A 
ATOM     26  C   UNL d   1      45.980  35.643  52.504  0.00  0.00     0.000 A 
ATOM     27  C   UNL d   1      45.904  36.259  51.989  0.00  0.00     0.000 A 
ATOM     28  C   UNL d   1      46.570  36.709  51.802  0.00  0.00     0.000 A 
ATOM     29  C   UNL d   1      47.277  36.528  52.132  0.00  0.00     0.000 A 
ENDBRANCH   4  24
TORSDOF 5
ENDMDL
