MODEL 1
REMARK VINA RESULT:      27.9      0.000      0.000
REMARK  3 active torsions:
REMARK  status: ('A' for Active; 'I' for Inactive)
REMARK    1  A    between atoms: C_7  and  C_1 
REMARK    2  A    between atoms: C_12  and  C_6 
REMARK       I    between atoms: N_10  and  C_7 
REMARK    3  A    between atoms: C_13  and  N_10 
ROOT
ATOM      1  C   UNL d   1      45.733 -16.811  43.533  0.00  0.00     0.108 A 
ATOM      2  C   UNL d   1      46.006 -18.051  43.184  0.00  0.00     0.046 A 
ATOM      3  C   UNL d   1      45.831 -17.570  43.823  0.00  0.00     0.116 A 
ATOM      4  C   UNL d   1      46.011 -17.572  42.512  0.00  0.00     0.112 A 
ATOM      5  S   UNL d   1      45.839 -16.804  42.749  0.00  0.00    -0.061 SA
ATOM      6  C   UNL d   1      46.161 -18.856  43.115  0.00  0.00     0.028 A 
ATOM      7  N   UNL d   1      46.171 -17.895  41.767  0.00  0.00    -0.239 NA
ATOM      8  C   UNL d   1      46.323 -19.189  42.375  0.00  0.00     0.020 A 
ATOM      9  C   UNL d   1      46.328 -18.710  41.703  0.00  0.00     0.082 A 
ATOM     10  N   UNL d   1      45.764 -17.802  44.618  0.00  0.00    -0.147 N 
ATOM     11  C   UNL d   1      46.478 -19.993  42.306  0.00  0.00     0.002 A 
ATOM     12  C   UNL d   1      46.488 -19.032  40.959  0.00  0.00     0.019 A 
ATOM     13  C   UNL d   1      46.641 -20.330  41.564  0.00  0.00     0.000 A 
ATOM     14  C   UNL d   1      46.646 -19.851  40.892  0.00  0.00     0.002 A 
ENDROOT
BRANCH   1  15
ATOM     15  C   UNL d   1      45.550 -16.134  43.969  0.00  0.00     0.287 C 
ATOM     16  N   UNL d   1      45.321 -15.441  43.600  0.00  0.00    -0.208 NA
ATOM     17  O   UNL d   1      45.603 -16.163  44.799  0.00  0.00    -0.265 OA
BRANCH  16  18
ATOM     18  C   UNL d   1      45.142 -14.775  44.045  0.00  0.00     0.085 A 
ATOM     19  C   UNL d   1      45.671 -14.139  44.073  0.00  0.00     0.018 A 
ATOM     20  C   UNL d   1      46.372 -14.116  43.687  0.00  0.00     0.002 C 
ATOM     21  C   UNL d   1      45.473 -13.469  44.530  0.00  0.00     0.002 A 
ATOM     22  C   UNL d   1      44.756 -13.436  44.955  0.00  0.00     0.000 A 
ATOM     23  C   UNL d   1      44.243 -14.081  44.913  0.00  0.00     0.002 A 
ATOM     24  C   UNL d   1      44.430 -14.748  44.463  0.00  0.00     0.019 A 
ENDBRANCH  16  18
ENDBRANCH   1  15
BRANCH   6  25
ATOM     25  C   UNL d   1      46.156 -19.332  43.782  0.00  0.00     0.100 A 
ATOM     26  O   UNL d   1      46.647 -19.306  44.441  0.00  0.00    -0.305 OA
ATOM     27  C   UNL d   1      46.407 -19.908  44.954  0.00  0.00     0.123 A 
ATOM     28  C   UNL d   1      45.790 -20.292  44.624  0.00  0.00     0.029 A 
ATOM     29  C   UNL d   1      45.621 -19.952  43.904  0.00  0.00     0.027 A 
ENDBRANCH   6  25
TORSDOF 3
ENDMDL
