MODEL 1
REMARK VINA RESULT:       1.9      0.000      0.000
REMARK  7 active torsions:
REMARK  status: ('A' for Active; 'I' for Inactive)
REMARK    1  A    between atoms: C_8  and  C_1 
REMARK    2  A    between atoms: N_7  and  C_2 
REMARK    3  A    between atoms: C_5  and  N_7 
REMARK    4  A    between atoms: N_9  and  C_5 
REMARK    5  A    between atoms: O_14  and  C_8 
REMARK    6  A    between atoms: C_10  and  N_9 
REMARK    7  A    between atoms: C_20  and  O_14 
ROOT
ATOM      1  C   UNL d   1     -41.471-121.388 -52.684  0.00  0.00     0.162 A 
ATOM      2  C   UNL d   1     -41.329-122.156 -52.446  0.00  0.00     0.108 A 
ATOM      3  N   UNL d   1     -41.654-121.396 -53.488  0.00  0.00    -0.239 NA
ATOM      4  C   UNL d   1     -41.422-122.648 -53.095  0.00  0.00     0.037 A 
ATOM      5  C   UNL d   1     -41.623-122.183 -53.743  0.00  0.00     0.083 A 
ATOM      6  C   UNL d   1     -41.349-123.464 -53.182  0.00  0.00     0.003 A 
ATOM      7  C   UNL d   1     -41.752-122.529 -54.481  0.00  0.00     0.019 A 
ATOM      8  C   UNL d   1     -41.477-123.817 -53.916  0.00  0.00     0.000 A 
ATOM      9  C   UNL d   1     -41.679-123.342 -54.565  0.00  0.00     0.002 A 
ENDROOT
BRANCH   2  10
ATOM     10  N   UNL d   1     -41.125-122.403 -51.675  0.00  0.00    -0.216 NA
BRANCH  10  11
ATOM     11  C   UNL d   1     -41.611-122.940 -51.278  0.00  0.00     0.221 C 
ATOM     12  S   UNL d   1     -41.567-123.751 -51.440  0.00  0.00    -0.037 SA
BRANCH  11  13
ATOM     13  N   UNL d   1     -42.146-122.658 -50.713  0.00  0.00    -0.217 NA
BRANCH  13  14
ATOM     14  C   UNL d   1     -42.164-123.003 -49.965  0.00  0.00     0.084 A 
ATOM     15  C   UNL d   1     -42.862-123.004 -49.517  0.00  0.00     0.018 A 
ATOM     16  C   UNL d   1     -43.560-122.652 -49.826  0.00  0.00     0.002 C 
ATOM     17  C   UNL d   1     -42.886-123.346 -48.771  0.00  0.00     0.002 A 
ATOM     18  C   UNL d   1     -42.201-123.693 -48.466  0.00  0.00     0.000 A 
ATOM     19  C   UNL d   1     -41.498-123.699 -48.902  0.00  0.00     0.002 A 
ATOM     20  C   UNL d   1     -41.486-123.349 -49.655  0.00  0.00     0.019 A 
ENDBRANCH  13  14
ENDBRANCH  11  13
ENDBRANCH  10  11
ENDBRANCH   2  10
BRANCH   1  21
ATOM     21  C   UNL d   1     -41.437-120.717 -52.204  0.00  0.00     0.320 C 
ATOM     22  O   UNL d   1     -41.675-120.767 -51.415  0.00  0.00    -0.257 OA
BRANCH  21  23
ATOM     23  O   UNL d   1     -41.171-120.000 -52.500  0.00  0.00    -0.270 OA
BRANCH  23  24
ATOM     24  C   UNL d   1     -41.529-119.298 -52.248  0.00  0.00     0.126 C 
ATOM     25  C   UNL d   1     -41.123-118.589 -52.312  0.00  0.00     0.029 C 
ENDBRANCH  23  24
ENDBRANCH  21  23
ENDBRANCH   1  21
TORSDOF 7
ENDMDL
MODEL 2
REMARK VINA RESULT:       3.9      1.246      2.521
REMARK  7 active torsions:
REMARK  status: ('A' for Active; 'I' for Inactive)
REMARK    1  A    between atoms: C_8  and  C_1 
REMARK    2  A    between atoms: N_7  and  C_2 
REMARK    3  A    between atoms: C_5  and  N_7 
REMARK    4  A    between atoms: N_9  and  C_5 
REMARK    5  A    between atoms: O_14  and  C_8 
REMARK    6  A    between atoms: C_10  and  N_9 
REMARK    7  A    between atoms: C_20  and  O_14 
ROOT
ATOM      1  C   UNL d   1     -41.340-122.385 -52.952  0.00  0.00     0.162 A 
ATOM      2  C   UNL d   1     -41.293-122.429 -52.138  0.00  0.00     0.108 A 
ATOM      3  N   UNL d   1     -41.311-121.589 -53.170  0.00  0.00    -0.239 NA
ATOM      4  C   UNL d   1     -41.235-121.666 -51.842  0.00  0.00     0.037 A 
ATOM      5  C   UNL d   1     -41.246-121.143 -52.477  0.00  0.00     0.083 A 
ATOM      6  C   UNL d   1     -41.174-121.378 -51.073  0.00  0.00     0.003 A 
ATOM      7  C   UNL d   1     -41.195-120.330 -52.346  0.00  0.00     0.019 A 
ATOM      8  C   UNL d   1     -41.123-120.567 -50.935  0.00  0.00     0.000 A 
ATOM      9  C   UNL d   1     -41.134-120.045 -51.579  0.00  0.00     0.002 A 
ENDROOT
BRANCH   2  10
ATOM     10  N   UNL d   1     -41.303-123.127 -51.681  0.00  0.00    -0.216 NA
BRANCH  10  11
ATOM     11  C   UNL d   1     -41.499-123.086 -50.880  0.00  0.00     0.221 C 
ATOM     12  S   UNL d   1     -41.155-122.515 -50.389  0.00  0.00    -0.037 SA
BRANCH  11  13
ATOM     13  N   UNL d   1     -42.045-123.625 -50.570  0.00  0.00    -0.217 NA
BRANCH  13  14
ATOM     14  C   UNL d   1     -42.143-123.680 -49.754  0.00  0.00     0.084 A 
ATOM     15  C   UNL d   1     -42.901-123.732 -49.422  0.00  0.00     0.018 A 
ATOM     16  C   UNL d   1     -43.579-123.729 -49.918  0.00  0.00     0.002 C 
ATOM     17  C   UNL d   1     -43.004-123.787 -48.609  0.00  0.00     0.002 A 
ATOM     18  C   UNL d   1     -42.338-123.789 -48.118  0.00  0.00     0.000 A 
ATOM     19  C   UNL d   1     -41.577-123.738 -48.437  0.00  0.00     0.002 A 
ATOM     20  C   UNL d   1     -41.486-123.683 -49.261  0.00  0.00     0.019 A 
ENDBRANCH  13  14
ENDBRANCH  11  13
ENDBRANCH  10  11
ENDBRANCH   2  10
BRANCH   1  21
ATOM     21  C   UNL d   1     -41.405-123.024 -53.471  0.00  0.00     0.320 C 
ATOM     22  O   UNL d   1     -41.551-123.780 -53.170  0.00  0.00    -0.257 OA
BRANCH  21  23
ATOM     23  O   UNL d   1     -41.327-122.921 -54.280  0.00  0.00    -0.270 OA
BRANCH  23  24
ATOM     24  C   UNL d   1     -41.828-123.333 -54.793  0.00  0.00     0.126 C 
ATOM     25  C   UNL d   1     -41.788-123.193 -55.599  0.00  0.00     0.029 C 
ENDBRANCH  23  24
ENDBRANCH  21  23
ENDBRANCH   1  21
TORSDOF 7
ENDMDL
