MODEL 1
REMARK VINA RESULT:      -5.1      0.000      0.000
REMARK  1 active torsions:
REMARK  status: ('A' for Active; 'I' for Inactive)
REMARK    1  A    between atoms: C_7  and  C_4 
ROOT
ATOM      1  N   UNL d   1      58.205   0.346  31.739  0.00  0.00    -0.211 NA
ATOM      2  C   UNL d   1      58.831   0.502  31.211  0.00  0.00     0.140 A 
ATOM      3  C   UNL d   1      58.685   0.514  30.400  0.00  0.00     0.051 A 
ATOM      4  C   UNL d   1      57.440   0.204  31.440  0.00  0.00     0.183 A 
ATOM      5  C   UNL d   1      57.923   0.373  30.105  0.00  0.00     0.104 A 
ATOM      6  O   UNL d   1      57.304   0.219  30.628  0.00  0.00    -0.289 OA
ATOM      7  S   UNL d   1      59.591   0.643  31.499  0.00  0.00    -0.057 SA
ATOM      8  C   UNL d   1      59.309   0.670  29.866  0.00  0.00     0.004 A 
ATOM      9  C   UNL d   1      57.784   0.386  29.302  0.00  0.00     0.025 A 
ATOM     10  C   UNL d   1      59.160   0.682  29.053  0.00  0.00     0.000 A 
ATOM     11  C   UNL d   1      58.400   0.540  28.773  0.00  0.00     0.002 A 
ENDROOT
BRANCH   4  12
ATOM     12  C   UNL d   1      56.826   0.051  31.964  0.00  0.00     0.041 A 
ATOM     13  C   UNL d   1      56.664  -0.717  32.200  0.00  0.00     0.004 A 
ATOM     14  C   UNL d   1      56.047  -0.860  32.724  0.00  0.00     0.000 A 
ATOM     15  C   UNL d   1      55.885  -1.635  32.961  0.00  0.00     0.000 C 
ATOM     16  C   UNL d   1      55.591  -0.238  33.015  0.00  0.00     0.000 A 
ATOM     17  C   UNL d   1      55.758   0.535  32.775  0.00  0.00     0.000 A 
ATOM     18  C   UNL d   1      56.377   0.681  32.248  0.00  0.00     0.004 A 
ENDBRANCH   4  12
TORSDOF 1
ENDMDL
MODEL 2
REMARK VINA RESULT:      -5.1      1.503      1.615
REMARK  1 active torsions:
REMARK  status: ('A' for Active; 'I' for Inactive)
REMARK    1  A    between atoms: C_7  and  C_4 
ROOT
ATOM      1  N   UNL d   1      57.716   0.174  30.351  0.00  0.00    -0.211 NA
ATOM      2  C   UNL d   1      58.189   0.047  29.676  0.00  0.00     0.140 A 
ATOM      3  C   UNL d   1      58.439  -0.717  29.492  0.00  0.00     0.051 A 
ATOM      4  C   UNL d   1      57.504  -0.473  30.831  0.00  0.00     0.183 A 
ATOM      5  C   UNL d   1      58.226  -1.358  29.972  0.00  0.00     0.104 A 
ATOM      6  O   UNL d   1      57.759  -1.232  30.640  0.00  0.00    -0.289 OA
ATOM      7  S   UNL d   1      58.404   0.682  29.195  0.00  0.00    -0.057 SA
ATOM      8  C   UNL d   1      58.913  -0.850  28.817  0.00  0.00     0.004 A 
ATOM      9  C   UNL d   1      58.476  -2.112  29.786  0.00  0.00     0.025 A 
ATOM     10  C   UNL d   1      59.163  -1.616  28.634  0.00  0.00     0.000 A 
ATOM     11  C   UNL d   1      58.944  -2.244  29.118  0.00  0.00     0.002 A 
ENDROOT
BRANCH   4  12
ATOM     12  C   UNL d   1      57.038  -0.344  31.495  0.00  0.00     0.041 A 
ATOM     13  C   UNL d   1      56.678  -0.972  31.878  0.00  0.00     0.004 A 
ATOM     14  C   UNL d   1      56.213  -0.832  32.543  0.00  0.00     0.000 A 
ATOM     15  C   UNL d   1      55.850  -1.467  32.928  0.00  0.00     0.000 C 
ATOM     16  C   UNL d   1      56.108  -0.065  32.827  0.00  0.00     0.000 A 
ATOM     17  C   UNL d   1      56.473   0.566  32.438  0.00  0.00     0.000 A 
ATOM     18  C   UNL d   1      56.939   0.428  31.771  0.00  0.00     0.004 A 
ENDBRANCH   4  12
TORSDOF 1
ENDMDL
MODEL 3
REMARK VINA RESULT:      -4.7      1.057      3.581
REMARK  1 active torsions:
REMARK  status: ('A' for Active; 'I' for Inactive)
REMARK    1  A    between atoms: C_7  and  C_4 
ROOT
ATOM      1  N   UNL d   1      57.793   0.294  31.864  0.00  0.00    -0.211 NA
ATOM      2  C   UNL d   1      57.444   0.230  32.619  0.00  0.00     0.140 A 
ATOM      3  C   UNL d   1      56.811  -0.287  32.733  0.00  0.00     0.051 A 
ATOM      4  C   UNL d   1      57.497  -0.165  31.235  0.00  0.00     0.183 A 
ATOM      5  C   UNL d   1      56.520  -0.742  32.104  0.00  0.00     0.104 A 
ATOM      6  O   UNL d   1      56.865  -0.678  31.358  0.00  0.00    -0.289 OA
ATOM      7  S   UNL d   1      57.730   0.681  33.248  0.00  0.00    -0.057 SA
ATOM      8  C   UNL d   1      56.458  -0.354  33.487  0.00  0.00     0.004 A 
ATOM      9  C   UNL d   1      55.894  -1.251  32.221  0.00  0.00     0.025 A 
ATOM     10  C   UNL d   1      55.824  -0.873  33.598  0.00  0.00     0.000 A 
ATOM     11  C   UNL d   1      55.544  -1.319  32.967  0.00  0.00     0.002 A 
ENDROOT
BRANCH   4  12
ATOM     12  C   UNL d   1      57.844  -0.099  30.494  0.00  0.00     0.041 A 
ATOM     13  C   UNL d   1      58.278  -0.721  30.181  0.00  0.00     0.004 A 
ATOM     14  C   UNL d   1      58.621  -0.645  29.438  0.00  0.00     0.000 A 
ATOM     15  C   UNL d   1      59.058  -1.273  29.124  0.00  0.00     0.000 C 
ATOM     16  C   UNL d   1      58.533   0.050  29.004  0.00  0.00     0.000 A 
ATOM     17  C   UNL d   1      58.095   0.675  29.322  0.00  0.00     0.000 A 
ATOM     18  C   UNL d   1      57.749   0.601  30.068  0.00  0.00     0.004 A 
ENDBRANCH   4  12
TORSDOF 1
ENDMDL
MODEL 4
REMARK VINA RESULT:      -4.0      1.269      3.557
REMARK  1 active torsions:
REMARK  status: ('A' for Active; 'I' for Inactive)
REMARK    1  A    between atoms: C_7  and  C_4 
ROOT
ATOM      1  N   UNL d   1      57.724   0.366  32.488  0.00  0.00    -0.211 NA
ATOM      2  C   UNL d   1      57.386   0.524  33.234  0.00  0.00     0.140 A 
ATOM      3  C   UNL d   1      56.565   0.521  33.317  0.00  0.00     0.051 A 
ATOM      4  C   UNL d   1      57.228   0.207  31.837  0.00  0.00     0.183 A 
ATOM      5  C   UNL d   1      56.075   0.363  32.668  0.00  0.00     0.104 A 
ATOM      6  O   UNL d   1      56.410   0.206  31.931  0.00  0.00    -0.289 OA
ATOM      7  S   UNL d   1      57.869   0.682  33.883  0.00  0.00    -0.057 SA
ATOM      8  C   UNL d   1      56.221   0.679  34.062  0.00  0.00     0.004 A 
ATOM      9  C   UNL d   1      55.264   0.361  32.755  0.00  0.00     0.025 A 
ATOM     10  C   UNL d   1      55.399   0.675  34.144  0.00  0.00     0.000 A 
ATOM     11  C   UNL d   1      54.924   0.517  33.492  0.00  0.00     0.002 A 
ENDROOT
BRANCH   4  12
ATOM     12  C   UNL d   1      57.565   0.052  31.105  0.00  0.00     0.041 A 
ATOM     13  C   UNL d   1      57.733  -0.719  30.880  0.00  0.00     0.004 A 
ATOM     14  C   UNL d   1      58.071  -0.864  30.144  0.00  0.00     0.000 A 
ATOM     15  C   UNL d   1      58.240  -1.641  29.919  0.00  0.00     0.000 C 
ATOM     16  C   UNL d   1      58.241  -0.242  29.631  0.00  0.00     0.000 A 
ATOM     17  C   UNL d   1      58.070   0.534  29.861  0.00  0.00     0.000 A 
ATOM     18  C   UNL d   1      57.731   0.682  30.599  0.00  0.00     0.004 A 
ENDBRANCH   4  12
TORSDOF 1
ENDMDL
MODEL 5
REMARK VINA RESULT:      -3.6      2.609      4.022
REMARK  1 active torsions:
REMARK  status: ('A' for Active; 'I' for Inactive)
REMARK    1  A    between atoms: C_7  and  C_4 
ROOT
ATOM      1  N   UNL d   1      58.931  -0.753  29.161  0.00  0.00    -0.211 NA
ATOM      2  C   UNL d   1      58.632  -0.039  29.471  0.00  0.00     0.140 A 
ATOM      3  C   UNL d   1      58.122  -0.059  30.119  0.00  0.00     0.051 A 
ATOM      4  C   UNL d   1      58.711  -1.477  29.510  0.00  0.00     0.183 A 
ATOM      5  C   UNL d   1      57.905  -0.782  30.464  0.00  0.00     0.104 A 
ATOM      6  O   UNL d   1      58.202  -1.487  30.157  0.00  0.00    -0.289 OA
ATOM      7  S   UNL d   1      58.844   0.682  29.132  0.00  0.00    -0.057 SA
ATOM      8  C   UNL d   1      57.819   0.653  30.434  0.00  0.00     0.004 A 
ATOM      9  C   UNL d   1      57.401  -0.797  31.105  0.00  0.00     0.025 A 
ATOM     10  C   UNL d   1      57.308   0.630  31.083  0.00  0.00     0.000 A 
ATOM     11  C   UNL d   1      57.101  -0.093  31.416  0.00  0.00     0.002 A 
ENDROOT
BRANCH   4  12
ATOM     12  C   UNL d   1      59.009  -2.177  29.201  0.00  0.00     0.041 A 
ATOM     13  C   UNL d   1      59.811  -2.344  29.246  0.00  0.00     0.004 A 
ATOM     14  C   UNL d   1      60.099  -3.048  28.934  0.00  0.00     0.000 A 
ATOM     15  C   UNL d   1      60.907  -3.214  28.980  0.00  0.00     0.000 C 
ATOM     16  C   UNL d   1      59.589  -3.588  28.576  0.00  0.00     0.000 A 
ATOM     17  C   UNL d   1      58.781  -3.417  28.533  0.00  0.00     0.000 A 
ATOM     18  C   UNL d   1      58.489  -2.711  28.846  0.00  0.00     0.004 A 
ENDBRANCH   4  12
TORSDOF 1
ENDMDL
MODEL 6
REMARK VINA RESULT:      -2.4      1.662      3.937
REMARK  1 active torsions:
REMARK  status: ('A' for Active; 'I' for Inactive)
REMARK    1  A    between atoms: C_7  and  C_4 
ROOT
ATOM      1  N   UNL d   1      56.568  -1.414  31.888  0.00  0.00    -0.211 NA
ATOM      2  C   UNL d   1      56.092  -1.391  32.573  0.00  0.00     0.140 A 
ATOM      3  C   UNL d   1      56.058  -0.699  33.021  0.00  0.00     0.051 A 
ATOM      4  C   UNL d   1      57.002  -0.739  31.666  0.00  0.00     0.183 A 
ATOM      5  C   UNL d   1      56.492  -0.029  32.797  0.00  0.00     0.104 A 
ATOM      6  O   UNL d   1      56.962  -0.053  32.120  0.00  0.00    -0.289 OA
ATOM      7  S   UNL d   1      55.659  -2.055  32.800  0.00  0.00    -0.057 SA
ATOM      8  C   UNL d   1      55.584  -0.670  33.708  0.00  0.00     0.004 A 
ATOM      9  C   UNL d   1      56.455   0.653  33.243  0.00  0.00     0.025 A 
ATOM     10  C   UNL d   1      55.551   0.024  34.156  0.00  0.00     0.000 A 
ATOM     11  C   UNL d   1      55.986   0.682  33.923  0.00  0.00     0.002 A 
ENDROOT
BRANCH   4  12
ATOM     12  C   UNL d   1      57.469  -0.766  30.991  0.00  0.00     0.041 A 
ATOM     13  C   UNL d   1      57.619  -0.084  30.562  0.00  0.00     0.004 A 
ATOM     14  C   UNL d   1      58.088  -0.122  29.888  0.00  0.00     0.000 A 
ATOM     15  C   UNL d   1      58.239   0.567  29.456  0.00  0.00     0.000 C 
ATOM     16  C   UNL d   1      58.408  -0.840  29.639  0.00  0.00     0.000 A 
ATOM     17  C   UNL d   1      58.254  -1.526  30.074  0.00  0.00     0.000 A 
ATOM     18  C   UNL d   1      57.783  -1.490  30.751  0.00  0.00     0.004 A 
ENDBRANCH   4  12
TORSDOF 1
ENDMDL
