MODEL 1
REMARK VINA RESULT:      15.6      0.000      0.000
REMARK  5 active torsions:
REMARK  status: ('A' for Active; 'I' for Inactive)
REMARK    1  A    between atoms: C_4  and  C_1 
REMARK    2  A    between atoms: N_5  and  C_2 
REMARK       I    between atoms: N_9  and  C_4 
REMARK       I    between atoms: C_7  and  N_5 
REMARK    3  A    between atoms: C_10  and  C_7 
REMARK    4  A    between atoms: C_21  and  N_9 
REMARK    5  A    between atoms: O_29  and  C_22 
ROOT
ATOM      1  C   UNL d   1     -41.155-121.312 -51.388  0.00  0.00     0.175 A 
ATOM      2  C   UNL d   1     -41.195-122.093 -51.675  0.00  0.00     0.114 A 
ATOM      3  O   UNL d   1     -41.125-121.360 -50.560  0.00  0.00    -0.301 OA
ATOM      4  C   UNL d   1     -41.189-122.600 -51.032  0.00  0.00     0.043 A 
ATOM      5  C   UNL d   1     -41.146-122.150 -50.341  0.00  0.00     0.102 A 
ATOM      6  C   UNL d   1     -41.217-123.425 -50.984  0.00  0.00     0.004 A 
ATOM      7  C   UNL d   1     -41.131-122.521 -49.609  0.00  0.00     0.025 A 
ATOM      8  C   UNL d   1     -41.202-123.796 -50.245  0.00  0.00     0.000 A 
ATOM      9  C   UNL d   1     -41.159-123.338 -49.557  0.00  0.00     0.002 A 
ENDROOT
BRANCH   2  10
ATOM     10  N   UNL d   1     -41.234-122.312 -52.476  0.00  0.00    -0.206 NA
ATOM     11  C   UNL d   1     -41.968-122.409 -52.838  0.00  0.00     0.279 C 
ATOM     12  O   UNL d   1     -42.663-122.289 -52.411  0.00  0.00    -0.265 OA
BRANCH  11  13
ATOM     13  C   UNL d   1     -42.006-122.625 -53.631  0.00  0.00     0.060 A 
ATOM     14  C   UNL d   1     -42.459-122.186 -54.154  0.00  0.00     0.031 A 
ATOM     15  C   UNL d   1     -42.495-122.402 -54.941  0.00  0.00     0.119 A 
ATOM     16  O   UNL d   1     -42.896-122.076 -55.589  0.00  0.00    -0.300 OA
ATOM     17  C   UNL d   1     -42.076-123.062 -55.205  0.00  0.00     0.119 A 
ATOM     18  C   UNL d   1     -42.720-122.539 -56.252  0.00  0.00     0.304 A 
ATOM     19  O   UNL d   1     -42.215-123.145 -56.011  0.00  0.00    -0.300 OA
ATOM     20  C   UNL d   1     -41.623-123.501 -54.681  0.00  0.00     0.026 A 
ATOM     21  C   UNL d   1     -41.592-123.273 -53.883  0.00  0.00     0.007 A 
ENDBRANCH  11  13
ENDBRANCH   2  10
BRANCH   1  22
ATOM     22  C   UNL d   1     -41.148-120.623 -51.843  0.00  0.00     0.303 C 
ATOM     23  N   UNL d   1     -41.157-119.892 -51.473  0.00  0.00    -0.206 NA
ATOM     24  O   UNL d   1     -41.130-120.674 -52.670  0.00  0.00    -0.263 OA
BRANCH  23  25
ATOM     25  C   UNL d   1     -41.150-119.199 -51.925  0.00  0.00     0.085 A 
ATOM     26  C   UNL d   1     -41.131-118.470 -51.539  0.00  0.00     0.021 A 
ATOM     27  C   UNL d   1     -41.123-117.771 -51.985  0.00  0.00     0.026 A 
ATOM     28  C   UNL d   1     -41.134-117.814 -52.812  0.00  0.00     0.094 A 
ATOM     29  C   UNL d   1     -41.153-118.544 -53.188  0.00  0.00     0.026 A 
ATOM     30  C   UNL d   1     -41.161-119.241 -52.735  0.00  0.00     0.021 A 
BRANCH  28  31
ATOM     31  O   UNL d   1     -41.126-117.123 -53.259  0.00  0.00    -0.328 OA
ATOM     32  C   UNL d   1     -41.582-117.078 -53.946  0.00  0.00     0.181 C 
ENDBRANCH  28  31
ENDBRANCH  23  25
ENDBRANCH   1  22
TORSDOF 5
ENDMDL
