MODEL 1
REMARK VINA RESULT:      41.2      0.000      0.000
REMARK  3 active torsions:
REMARK  status: ('A' for Active; 'I' for Inactive)
REMARK    1  A    between atoms: S_15  and  C_4 
REMARK    2  A    between atoms: C_9  and  C_16 
REMARK    3  A    between atoms: C_16  and  S_15 
ROOT
ATOM      1  C   UNL d   1      13.260  13.422  -4.340  0.00  0.00     0.141 A 
ATOM      2  C   UNL d   1      13.510  13.664  -5.088  0.00  0.00     0.110 A 
ATOM      3  O   UNL d   1      13.293  14.074  -3.836  0.00  0.00    -0.303 OA
ATOM      4  C   UNL d   1      13.033  12.639  -4.213  0.00  0.00     0.137 A 
ATOM      5  N   UNL d   1      13.057  12.096  -4.835  0.00  0.00    -0.218 NA
ATOM      6  C   UNL d   1      13.699  14.466  -5.047  0.00  0.00     0.043 A 
ATOM      7  N   UNL d   1      13.534  13.121  -5.709  0.00  0.00    -0.225 NA
ATOM      8  C   UNL d   1      13.564  14.720  -4.273  0.00  0.00     0.102 A 
ATOM      9  C   UNL d   1      13.308  12.339  -5.583  0.00  0.00     0.163 A 
ATOM     10  C   UNL d   1      13.974  14.997  -5.613  0.00  0.00     0.004 A 
ATOM     11  C   UNL d   1      13.707  15.506  -4.068  0.00  0.00     0.025 A 
ATOM     12  C   UNL d   1      13.332  11.797  -6.204  0.00  0.00     0.042 C 
ATOM     13  C   UNL d   1      14.117  15.783  -5.407  0.00  0.00     0.000 A 
ATOM     14  C   UNL d   1      13.983  16.037  -4.634  0.00  0.00     0.002 A 
ENDROOT
BRANCH   4  15
ATOM     15  S   UNL d   1      12.782  12.397  -3.465  0.00  0.00    -0.062 SA
BRANCH  15  16
ATOM     16  C   UNL d   1      13.172  11.779  -3.080  0.00  0.00     0.076 C 
BRANCH  16  17
ATOM     17  C   UNL d   1      13.642  11.937  -2.420  0.00  0.00     0.169 A 
ATOM     18  N   UNL d   1      13.439  11.784  -1.634  0.00  0.00    -0.225 NA
ATOM     19  C   UNL d   1      14.067  12.027  -1.158  0.00  0.00     0.101 A 
ATOM     20  C   UNL d   1      14.180  12.012  -0.341  0.00  0.00     0.021 A 
ATOM     21  C   UNL d   1      14.658  12.330  -1.649  0.00  0.00     0.101 A 
ATOM     22  C   UNL d   1      14.880  12.299  -0.015  0.00  0.00     0.002 A 
ATOM     23  C   UNL d   1      15.470  12.602  -0.505  0.00  0.00     0.002 A 
ATOM     24  C   UNL d   1      15.360  12.617  -1.322  0.00  0.00     0.021 A 
ATOM     25  N   UNL d   1      14.395  12.274  -2.428  0.00  0.00    -0.225 NA
ENDBRANCH  16  17
ENDBRANCH  15  16
ENDBRANCH   4  15
TORSDOF 3
ENDMDL
