MODEL 1
REMARK VINA RESULT:       2.0      0.000      0.000
REMARK  3 active torsions:
REMARK  status: ('A' for Active; 'I' for Inactive)
REMARK    1  A    between atoms: C_5  and  C_1 
REMARK    2  A    between atoms: N_8  and  C_5 
REMARK    3  A    between atoms: C_10  and  C_5 
ROOT
ATOM      1  C   UNL d   1      59.158  -0.698  29.584  0.00  0.00     0.085 C 
ENDROOT
BRANCH   1   2
ATOM      2  C   UNL d   1      58.536  -0.351  30.012  0.00  0.00     0.059 A 
ATOM      3  C   UNL d   1      58.565  -0.355  30.838  0.00  0.00     0.214 A 
ATOM      4  C   UNL d   1      57.947  -0.009  31.258  0.00  0.00     0.121 A 
ATOM      5  O   UNL d   1      59.196  -0.696  31.230  0.00  0.00    -0.285 OA
ATOM      6  N   UNL d   1      57.976  -0.013  32.084  0.00  0.00    -0.241 NA
ATOM      7  C   UNL d   1      57.310   0.335  30.863  0.00  0.00     0.032 A 
ATOM      8  C   UNL d   1      57.357   0.333  32.508  0.00  0.00     0.099 A 
ATOM      9  C   UNL d   1      56.712   0.682  32.121  0.00  0.00     0.021 A 
ATOM     10  C   UNL d   1      56.694   0.680  31.288  0.00  0.00     0.004 A 
ATOM     11  C   UNL d   1      57.283   0.338  30.042  0.00  0.00     0.059 A 
ATOM     12  C   UNL d   1      57.901  -0.008  29.612  0.00  0.00     0.016 A 
ATOM     13 CL   UNL d   1      56.649   0.681  29.649  0.00  0.00    -0.082 Cl
ENDBRANCH   1   2
BRANCH   1  14
ATOM     14  N   UNL d   1      59.120  -1.485  29.367  0.00  0.00    -0.302 N 
ATOM     15  C   UNL d   1      59.574  -2.054  29.769  0.00  0.00     0.080 A 
ATOM     16  C   UNL d   1      59.536  -2.852  29.548  0.00  0.00     0.019 A 
ATOM     17  C   UNL d   1      59.045  -3.073  28.928  0.00  0.00     0.003 A 
ATOM     18  C   UNL d   1      58.595  -2.512  28.528  0.00  0.00     0.019 A 
ATOM     19  C   UNL d   1      58.632  -1.726  28.745  0.00  0.00     0.080 A 
ENDBRANCH   1  14
BRANCH   1  20
ATOM     20  C   UNL d   1      59.814  -0.238  29.381  0.00  0.00     0.098 A 
ATOM     21  N   UNL d   1      60.484  -0.238  29.866  0.00  0.00    -0.243 NA
ATOM     22  C   UNL d   1      61.132   0.214  29.672  0.00  0.00     0.099 A 
ATOM     23  C   UNL d   1      61.125   0.678  28.986  0.00  0.00     0.021 A 
ATOM     24  C   UNL d   1      60.458   0.682  28.498  0.00  0.00     0.003 A 
ATOM     25  C   UNL d   1      59.806   0.225  28.698  0.00  0.00     0.021 A 
ENDBRANCH   1  20
TORSDOF 3
ENDMDL
