MODEL 1
REMARK VINA RESULT:      -7.0      0.000      0.000
REMARK  2 active torsions:
REMARK  status: ('A' for Active; 'I' for Inactive)
REMARK       I    between atoms: N_2  and  C_1 
REMARK    1  A    between atoms: C_6  and  C_1 
REMARK    2  A    between atoms: C_4  and  N_2 
ROOT
ATOM      1  C   UNL d   1      53.835  32.613  53.897  0.00  0.00     0.085 A 
ATOM      2  C   UNL d   1      54.568  32.850  53.582  0.00  0.00     0.019 A 
ATOM      3  C   UNL d   1      53.636  32.783  54.680  0.00  0.00     0.019 A 
ATOM      4  C   UNL d   1      54.166  33.193  55.162  0.00  0.00     0.002 A 
ATOM      5  C   UNL d   1      55.098  33.260  54.064  0.00  0.00     0.002 A 
ATOM      6  C   UNL d   1      54.895  33.433  54.859  0.00  0.00     0.000 A 
ENDROOT
BRANCH   1   7
ATOM      7  N   UNL d   1      53.306  32.203  53.415  0.00  0.00    -0.207 NA
ATOM      8  C   UNL d   1      53.295  31.379  53.425  0.00  0.00     0.300 C 
ATOM      9  O   UNL d   1      53.814  30.964  53.915  0.00  0.00    -0.263 OA
BRANCH   8  10
ATOM     10  C   UNL d   1      52.765  30.969  52.943  0.00  0.00     0.184 C 
ATOM     11  N   UNL d   1      52.781  30.144  52.923  0.00  0.00    -0.141 N 
ENDBRANCH   8  10
ENDBRANCH   1   7
TORSDOF 2
ENDMDL
MODEL 2
REMARK VINA RESULT:      -6.7      1.275      2.853
REMARK  2 active torsions:
REMARK  status: ('A' for Active; 'I' for Inactive)
REMARK       I    between atoms: N_2  and  C_1 
REMARK    1  A    between atoms: C_6  and  C_1 
REMARK    2  A    between atoms: C_4  and  N_2 
ROOT
ATOM      1  C   UNL d   1      53.780  32.009  53.489  0.00  0.00     0.085 A 
ATOM      2  C   UNL d   1      53.071  32.247  53.125  0.00  0.00     0.019 A 
ATOM      3  C   UNL d   1      53.937  31.210  53.627  0.00  0.00     0.019 A 
ATOM      4  C   UNL d   1      53.388  30.635  53.403  0.00  0.00     0.002 A 
ATOM      5  C   UNL d   1      52.522  31.673  52.902  0.00  0.00     0.002 A 
ATOM      6  C   UNL d   1      52.682  30.862  53.042  0.00  0.00     0.000 A 
ENDROOT
BRANCH   1   7
ATOM      7  N   UNL d   1      54.329  32.582  53.712  0.00  0.00    -0.207 NA
ATOM      8  C   UNL d   1      54.349  32.851  54.492  0.00  0.00     0.300 C 
ATOM      9  O   UNL d   1      53.820  32.546  55.048  0.00  0.00    -0.263 OA
BRANCH   8  10
ATOM     10  C   UNL d   1      54.898  33.425  54.715  0.00  0.00     0.184 C 
ATOM     11  N   UNL d   1      54.947  33.662  55.503  0.00  0.00    -0.141 N 
ENDBRANCH   8  10
ENDBRANCH   1   7
TORSDOF 2
ENDMDL
MODEL 3
REMARK VINA RESULT:      -6.6      1.882      2.216
REMARK  2 active torsions:
REMARK  status: ('A' for Active; 'I' for Inactive)
REMARK       I    between atoms: N_2  and  C_1 
REMARK    1  A    between atoms: C_6  and  C_1 
REMARK    2  A    between atoms: C_4  and  N_2 
ROOT
ATOM      1  C   UNL d   1      53.341  33.261  54.060  0.00  0.00     0.085 A 
ATOM      2  C   UNL d   1      53.976  32.892  53.670  0.00  0.00     0.019 A 
ATOM      3  C   UNL d   1      53.458  33.664  54.772  0.00  0.00     0.019 A 
ATOM      4  C   UNL d   1      54.211  33.704  55.106  0.00  0.00     0.002 A 
ATOM      5  C   UNL d   1      54.730  32.932  54.003  0.00  0.00     0.002 A 
ATOM      6  C   UNL d   1      54.848  33.341  54.726  0.00  0.00     0.000 A 
ENDROOT
BRANCH   1   7
ATOM      7  N   UNL d   1      52.588  33.221  53.727  0.00  0.00    -0.207 NA
ATOM      8  C   UNL d   1      52.318  33.832  53.244  0.00  0.00     0.300 C 
ATOM      9  O   UNL d   1      52.802  34.484  53.094  0.00  0.00    -0.263 OA
BRANCH   8  10
ATOM     10  C   UNL d   1      51.565  33.792  52.911  0.00  0.00     0.184 C 
ATOM     11  N   UNL d   1      51.373  34.272  52.268  0.00  0.00    -0.141 N 
ENDBRANCH   8  10
ENDBRANCH   1   7
TORSDOF 2
ENDMDL
MODEL 4
REMARK VINA RESULT:      -6.2      2.281      3.118
REMARK  2 active torsions:
REMARK  status: ('A' for Active; 'I' for Inactive)
REMARK       I    between atoms: N_2  and  C_1 
REMARK    1  A    between atoms: C_6  and  C_1 
REMARK    2  A    between atoms: C_4  and  N_2 
ROOT
ATOM      1  C   UNL d   1      52.633  33.523  53.344  0.00  0.00     0.085 A 
ATOM      2  C   UNL d   1      51.948  33.059  53.432  0.00  0.00     0.019 A 
ATOM      3  C   UNL d   1      52.590  34.287  53.034  0.00  0.00     0.019 A 
ATOM      4  C   UNL d   1      51.861  34.601  52.807  0.00  0.00     0.002 A 
ATOM      5  C   UNL d   1      51.220  33.372  53.206  0.00  0.00     0.002 A 
ATOM      6  C   UNL d   1      51.176  34.149  52.891  0.00  0.00     0.000 A 
ENDROOT
BRANCH   1   7
ATOM      7  N   UNL d   1      53.362  33.210  53.571  0.00  0.00    -0.207 NA
ATOM      8  C   UNL d   1      53.667  33.379  54.318  0.00  0.00     0.300 C 
ATOM      9  O   UNL d   1      53.244  33.861  54.839  0.00  0.00    -0.263 OA
BRANCH   8  10
ATOM     10  C   UNL d   1      54.396  33.066  54.545  0.00  0.00     0.184 C 
ATOM     11  N   UNL d   1      54.750  33.315  55.247  0.00  0.00    -0.141 N 
ENDBRANCH   8  10
ENDBRANCH   1   7
TORSDOF 2
ENDMDL
