MODEL 1
REMARK VINA RESULT:      60.7      0.000      0.000
REMARK  2 active torsions:
REMARK  status: ('A' for Active; 'I' for Inactive)
REMARK    1  A    between atoms: C_4  and  C_1 
REMARK    2  A    between atoms: N_2  and  C_9 
REMARK       I    between atoms: N_7  and  C_4 
ROOT
ATOM      1  C   UNL d   1     -55.593-100.578 -44.034  0.00  0.00     0.086 A 
ATOM      2  S   UNL d   1     -55.354-101.330 -44.149  0.00  0.00    -0.082 SA
ATOM      3  C   UNL d   1     -55.580-100.385 -43.244  0.00  0.00     0.012 A 
ATOM      4  C   UNL d   1     -55.318-101.054 -42.833  0.00  0.00     0.008 A 
ATOM      5  C   UNL d   1     -55.177-101.641 -43.396  0.00  0.00     0.030 A 
ATOM      6  C   UNL d   1     -54.917-101.953 -41.794  0.00  0.00     0.127 A 
ATOM      7  C   UNL d   1     -55.188-101.212 -42.046  0.00  0.00     0.024 A 
ATOM      8  C   UNL d   1     -54.907-102.386 -43.171  0.00  0.00     0.008 A 
ATOM      9  C   UNL d   1     -54.777-102.540 -42.357  0.00  0.00     0.024 A 
ENDROOT
BRANCH   1  10
ATOM     10  C   UNL d   1     -55.827-100.059 -44.659  0.00  0.00     0.271 C 
ATOM     11  N   UNL d   1     -56.537 -99.663 -44.627  0.00  0.00    -0.272 N 
ATOM     12  C   UNL d   1     -57.035 -99.769 -43.978  0.00  0.00     0.083 A 
ATOM     13  C   UNL d   1     -56.767 -99.151 -45.244  0.00  0.00     0.083 A 
ATOM     14  C   UNL d   1     -57.756 -99.375 -43.933  0.00  0.00     0.019 A 
ATOM     15  C   UNL d   1     -57.987 -98.867 -44.541  0.00  0.00     0.003 A 
ATOM     16  C   UNL d   1     -57.492 -98.756 -45.197  0.00  0.00     0.019 A 
ATOM     17  O   UNL d   1     -55.317 -99.963 -45.302  0.00  0.00    -0.266 OA
ENDBRANCH   1  10
BRANCH   6  18
ATOM     18  N   UNL d   1     -54.786-102.108 -40.981  0.00  0.00    -0.114 N 
ATOM     19  O   UNL d   1     -54.727-101.469 -40.442  0.00  0.00    -0.532 OA
ATOM     20  O   UNL d   1     -54.717-102.880 -40.714  0.00  0.00    -0.532 OA
ENDBRANCH   6  18
TORSDOF 2
ENDMDL
