MODEL 1
REMARK VINA RESULT:      16.6      0.000      0.000
REMARK  5 active torsions:
REMARK  status: ('A' for Active; 'I' for Inactive)
REMARK    1  A    between atoms: N_2  and  C_1 
REMARK    2  A    between atoms: C_4  and  C_8 
REMARK    3  A    between atoms: N_15  and  C_5 
REMARK    4  A    between atoms: C_19  and  N_15 
REMARK    5  A    between atoms: C_20  and  N_15 
ROOT
ATOM      1  C   UNL d   1      46.022 -17.879  43.498  0.00  0.00     0.143 A 
ATOM      2  C   UNL d   1      46.223 -18.304  44.173  0.00  0.00     0.086 A 
ATOM      3  C   UNL d   1      45.892 -17.061  43.543  0.00  0.00     0.027 A 
ATOM      4  C   UNL d   1      45.966 -16.670  44.275  0.00  0.00     0.021 A 
ATOM      5  C   UNL d   1      46.296 -17.917  44.897  0.00  0.00     0.019 A 
ATOM      6  C   UNL d   1      46.168 -17.101  44.954  0.00  0.00     0.003 A 
ENDROOT
BRANCH   4   7
ATOM      7  C   UNL d   1      45.838 -15.860  44.324  0.00  0.00     0.103 A 
ATOM      8  N   UNL d   1      46.404 -15.334  44.032  0.00  0.00    -0.145 NA
ATOM      9  N   UNL d   1      46.277 -14.523  44.081  0.00  0.00    -0.106 NA
ATOM     10  C   UNL d   1      45.584 -14.234  44.421  0.00  0.00     0.297 A 
ATOM     11  C   UNL d   1      45.017 -14.759  44.712  0.00  0.00     0.066 A 
ATOM     12  O   UNL d   1      45.456 -13.423  44.470  0.00  0.00    -0.264 OA
ATOM     13  C   UNL d   1      45.142 -15.578  44.664  0.00  0.00     0.024 A 
ATOM     14  C   UNL d   1      44.577 -16.100  44.955  0.00  0.00     0.002 C 
ENDBRANCH   4   7
BRANCH   1  15
ATOM     15  N   UNL d   1      45.947 -18.261  42.767  0.00  0.00    -0.112 N 
ATOM     16  O   UNL d   1      46.602 -18.296  42.259  0.00  0.00    -0.532 OA
ATOM     17  O   UNL d   1      45.233 -18.602  42.544  0.00  0.00    -0.532 OA
ENDBRANCH   1  15
BRANCH   2  18
ATOM     18  N   UNL d   1      46.351 -19.115  44.125  0.00  0.00    -0.302 N 
BRANCH  18  19
ATOM     19  C   UNL d   1      46.184 -19.594  44.771  0.00  0.00     0.080 C 
ATOM     20  C   UNL d   1      46.565 -20.323  44.853  0.00  0.00     0.021 C 
ENDBRANCH  18  19
BRANCH  18  21
ATOM     21  C   UNL d   1      46.646 -19.445  43.430  0.00  0.00     0.080 C 
ATOM     22  C   UNL d   1      46.503 -20.235  43.256  0.00  0.00     0.021 C 
ENDBRANCH  18  21
ENDBRANCH   2  18
TORSDOF 5
ENDMDL
