MODEL 1
REMARK VINA RESULT:      46.7      0.000      0.000
REMARK  2 active torsions:
REMARK  status: ('A' for Active; 'I' for Inactive)
REMARK    1  A    between atoms: O_3  and  C_1 
REMARK    2  A    between atoms: C_2  and  O_3 
REMARK       I    between atoms: N_7  and  C_2 
ROOT
ATOM      1  C   UNL d   1      59.630  49.664  50.524  0.00  0.00     0.129 A 
ATOM      2  C   UNL d   1      59.823  49.658  51.327  0.00  0.00     0.105 A 
ATOM      3  C   UNL d   1      60.601  49.617  51.573  0.00  0.00     0.026 A 
ATOM      4  C   UNL d   1      60.251  49.628  49.969  0.00  0.00     0.059 A 
ATOM      5  C   UNL d   1      61.204  49.582  51.023  0.00  0.00     0.037 A 
ATOM      6  C   UNL d   1      61.019  49.588  50.212  0.00  0.00     0.015 A 
ATOM      7  N   UNL d   1      59.208  49.695  51.884  0.00  0.00    -0.242 NA
ATOM      8 BR   UNL d   1      60.101  49.632  49.163  0.00  0.00    -0.047 Br
ATOM      9 BR   UNL d   1      62.005  49.540  51.276  0.00  0.00    -0.049 Br
ATOM     10  C   UNL d   1      60.779  49.612  52.372  0.00  0.00     0.004 A 
ATOM     11  C   UNL d   1      59.385  49.689  52.690  0.00  0.00     0.099 A 
ATOM     12  C   UNL d   1      60.171  49.648  52.939  0.00  0.00     0.021 A 
ENDROOT
BRANCH   1  13
ATOM     13  O   UNL d   1      58.843  49.706  50.275  0.00  0.00    -0.257 OA
BRANCH  13  14
ATOM     14  C   UNL d   1      58.365  49.087  50.409  0.00  0.00     0.378 C 
ATOM     15  N   UNL d   1      57.576  49.087  50.063  0.00  0.00    -0.252 N 
ATOM     16  C   UNL d   1      57.326  49.706  49.610  0.00  0.00     0.085 A 
ATOM     17  C   UNL d   1      57.067  48.436  50.200  0.00  0.00     0.085 A 
ATOM     18  C   UNL d   1      56.563  49.706  49.276  0.00  0.00     0.019 A 
ATOM     19  C   UNL d   1      56.053  49.087  49.395  0.00  0.00     0.003 A 
ATOM     20  C   UNL d   1      56.321  48.436  49.874  0.00  0.00     0.019 A 
ATOM     21  O   UNL d   1      58.610  48.465  50.861  0.00  0.00    -0.237 OA
ENDBRANCH  13  14
ENDBRANCH   1  13
TORSDOF 2
ENDMDL
