MODEL 1
REMARK VINA RESULT:      48.8      0.000      0.000
REMARK  5 active torsions:
REMARK  status: ('A' for Active; 'I' for Inactive)
REMARK    1  A    between atoms: C_10  and  C_3 
REMARK    2  A    between atoms: S_11  and  C_4 
REMARK    3  A    between atoms: C_17  and  S_11 
REMARK    4  A    between atoms: C_13  and  C_17 
REMARK       I    between atoms: N_14  and  C_13 
REMARK    5  A    between atoms: C_15  and  N_14 
ROOT
ATOM      1  C   UNL d   1      46.171 -18.499  42.955  0.00  0.00     0.150 A 
ATOM      2  N   UNL d   1      45.925 -18.018  42.326  0.00  0.00    -0.285 N 
ATOM      3  C   UNL d   1      46.396 -19.266  42.812  0.00  0.00     0.056 A 
ATOM      4  C   UNL d   1      45.911 -18.321  41.574  0.00  0.00     0.096 A 
ATOM      5  N   UNL d   1      46.188 -18.200  43.720  0.00  0.00    -0.227 NA
ATOM      6  C   UNL d   1      46.380 -19.568  42.045  0.00  0.00     0.006 A 
ATOM      7  C   UNL d   1      46.136 -19.089  41.431  0.00  0.00     0.025 A 
ATOM      8  C   UNL d   1      45.715 -16.946  43.239  0.00  0.00     0.084 A 
ATOM      9  C   UNL d   1      45.962 -17.426  43.868  0.00  0.00     0.099 A 
ATOM     10  C   UNL d   1      46.604 -20.330  41.907  0.00  0.00     0.000 C 
ATOM     11  C   UNL d   1      45.490 -16.177  43.383  0.00  0.00     0.019 A 
ATOM     12  C   UNL d   1      45.975 -17.123  44.620  0.00  0.00     0.021 A 
ATOM     13  C   UNL d   1      45.508 -15.882  44.144  0.00  0.00     0.002 A 
ATOM     14  C   UNL d   1      45.750 -16.354  44.764  0.00  0.00     0.002 A 
ENDROOT
BRANCH   4  15
ATOM     15  S   UNL d   1      45.660 -17.831  40.932  0.00  0.00    -0.064 SA
BRANCH  15  16
ATOM     16  C   UNL d   1      45.077 -17.695  40.327  0.00  0.00     0.099 C 
BRANCH  16  17
ATOM     17  C   UNL d   1      45.271 -17.230  39.650  0.00  0.00     0.286 C 
ATOM     18  N   UNL d   1      44.662 -17.004  39.101  0.00  0.00    -0.208 NA
ATOM     19  O   UNL d   1      46.076 -16.985  39.512  0.00  0.00    -0.265 OA
BRANCH  18  20
ATOM     20  C   UNL d   1      44.858 -16.532  38.412  0.00  0.00     0.085 A 
ATOM     21  C   UNL d   1      44.302 -16.460  37.787  0.00  0.00     0.019 A 
ATOM     22  C   UNL d   1      44.495 -15.993  37.107  0.00  0.00     0.002 A 
ATOM     23  C   UNL d   1      43.937 -15.918  36.473  0.00  0.00     0.000 C 
ATOM     24  C   UNL d   1      45.248 -15.594  37.048  0.00  0.00     0.000 A 
ATOM     25  C   UNL d   1      45.800 -15.679  37.694  0.00  0.00     0.002 A 
ATOM     26  C   UNL d   1      45.606 -16.146  38.374  0.00  0.00     0.019 A 
ENDBRANCH  18  20
ENDBRANCH  16  17
ENDBRANCH  15  16
ENDBRANCH   4  15
BRANCH   3  27
ATOM     27  C   UNL d   1      46.640 -19.745  43.426  0.00  0.00     0.125 C 
ATOM     28  N   UNL d   1      46.066 -20.005  43.945  0.00  0.00    -0.146 N 
ENDBRANCH   3  27
TORSDOF 5
ENDMDL
MODEL 2
REMARK VINA RESULT:      50.1      1.833      6.260
REMARK  5 active torsions:
REMARK  status: ('A' for Active; 'I' for Inactive)
REMARK    1  A    between atoms: C_10  and  C_3 
REMARK    2  A    between atoms: S_11  and  C_4 
REMARK    3  A    between atoms: C_17  and  S_11 
REMARK    4  A    between atoms: C_13  and  C_17 
REMARK       I    between atoms: N_14  and  C_13 
REMARK    5  A    between atoms: C_15  and  N_14 
ROOT
ATOM      1  C   UNL d   1      44.516 -15.431  37.050  0.00  0.00     0.150 A 
ATOM      2  N   UNL d   1      44.386 -16.040  37.598  0.00  0.00    -0.285 N 
ATOM      3  C   UNL d   1      45.268 -15.149  36.933  0.00  0.00     0.056 A 
ATOM      4  C   UNL d   1      45.013 -16.347  38.010  0.00  0.00     0.096 A 
ATOM      5  N   UNL d   1      43.887 -15.115  36.628  0.00  0.00    -0.227 NA
ATOM      6  C   UNL d   1      45.902 -15.465  37.356  0.00  0.00     0.006 A 
ATOM      7  C   UNL d   1      45.766 -16.064  37.893  0.00  0.00     0.025 A 
ATOM      8  C   UNL d   1      42.996 -16.006  37.291  0.00  0.00     0.084 A 
ATOM      9  C   UNL d   1      43.126 -15.398  36.743  0.00  0.00     0.099 A 
ATOM     10  C   UNL d   1      46.647 -15.182  37.237  0.00  0.00     0.000 C 
ATOM     11  C   UNL d   1      42.242 -16.289  37.408  0.00  0.00     0.019 A 
ATOM     12  C   UNL d   1      42.498 -15.091  36.331  0.00  0.00     0.021 A 
ATOM     13  C   UNL d   1      41.617 -15.973  36.987  0.00  0.00     0.002 A 
ATOM     14  C   UNL d   1      41.745 -15.374  36.448  0.00  0.00     0.002 A 
ENDROOT
BRANCH   4  15
ATOM     15  S   UNL d   1      44.880 -16.968  38.569  0.00  0.00    -0.064 SA
BRANCH  15  16
ATOM     16  C   UNL d   1      45.141 -17.719  38.873  0.00  0.00     0.099 C 
BRANCH  16  17
ATOM     17  C   UNL d   1      45.489 -17.766  39.640  0.00  0.00     0.286 C 
ATOM     18  N   UNL d   1      45.528 -18.514  40.044  0.00  0.00    -0.208 NA
ATOM     19  O   UNL d   1      45.803 -17.067  40.016  0.00  0.00    -0.265 OA
BRANCH  18  20
ATOM     20  C   UNL d   1      45.881 -18.563  40.824  0.00  0.00     0.085 A 
ATOM     21  C   UNL d   1      46.082 -19.315  41.141  0.00  0.00     0.019 A 
ATOM     22  C   UNL d   1      46.431 -19.364  41.912  0.00  0.00     0.002 A 
ATOM     23  C   UNL d   1      46.636 -20.120  42.236  0.00  0.00     0.000 C 
ATOM     24  C   UNL d   1      46.581 -18.659  42.371  0.00  0.00     0.000 A 
ATOM     25  C   UNL d   1      46.370 -17.905  42.032  0.00  0.00     0.002 A 
ATOM     26  C   UNL d   1      46.022 -17.856  41.261  0.00  0.00     0.019 A 
ENDBRANCH  18  20
ENDBRANCH  16  17
ENDBRANCH  15  16
ENDBRANCH   4  15
BRANCH   3  27
ATOM     27  C   UNL d   1      45.405 -14.550  36.396  0.00  0.00     0.125 C 
ATOM     28  N   UNL d   1      46.135 -14.185  36.424  0.00  0.00    -0.146 N 
ENDBRANCH   3  27
TORSDOF 5
ENDMDL
