MODEL 1
REMARK VINA RESULT:      -1.4      0.000      0.000
REMARK  5 active torsions:
REMARK  status: ('A' for Active; 'I' for Inactive)
REMARK    1  A    between atoms: C_7  and  C_1 
REMARK    2  A    between atoms: C_13  and  C_2 
REMARK    3  A    between atoms: C_12  and  N_3 
REMARK    4  A    between atoms: C_4  and  C_7 
REMARK    5  A    between atoms: O_17  and  C_13 
ROOT
ATOM      1  N   UNL d   1      56.852  -0.339  32.298  0.00  0.00    -0.305 N 
ATOM      2  C   UNL d   1      57.501  -0.601  31.162  0.00  0.00     0.018 A 
ATOM      3  C   UNL d   1      57.517   0.137  32.273  0.00  0.00     0.064 A 
ATOM      4  C   UNL d   1      56.834  -0.800  31.613  0.00  0.00     0.064 A 
ATOM      5  C   UNL d   1      57.924  -0.026  31.562  0.00  0.00     0.019 A 
ATOM      6  C   UNL d   1      57.749   0.681  32.844  0.00  0.00     0.019 C 
ATOM      7  C   UNL d   1      56.259  -1.358  31.411  0.00  0.00     0.019 C 
ENDROOT
BRANCH   2   8
ATOM      8  C   UNL d   1      57.708  -0.926  30.429  0.00  0.00     0.006 C 
BRANCH   8   9
ATOM      9  C   UNL d   1      58.091  -0.468  29.868  0.00  0.00     0.065 A 
ATOM     10  C   UNL d   1      58.788  -0.670  29.475  0.00  0.00     0.086 A 
ATOM     11  C   UNL d   1      58.980  -0.051  28.957  0.00  0.00     0.090 A 
ATOM     12  C   UNL d   1      59.631  -0.027  28.461  0.00  0.00     0.021 C 
ATOM     13  N   UNL d   1      58.402   0.533  29.030  0.00  0.00    -0.208 NA
ATOM     14  C   UNL d   1      57.849   0.277  29.595  0.00  0.00     0.279 A 
ATOM     15  O   UNL d   1      57.182   0.682  29.842  0.00  0.00    -0.265 OA
BRANCH  10  16
ATOM     16  C   UNL d   1      59.221  -1.364  29.576  0.00  0.00     0.297 C 
ATOM     17  O   UNL d   1      59.873  -1.383  30.090  0.00  0.00    -0.259 OA
BRANCH  16  18
ATOM     18  O   UNL d   1      59.014  -2.055  29.168  0.00  0.00    -0.296 OA
ATOM     19  C   UNL d   1      59.356  -2.779  29.366  0.00  0.00     0.185 C 
ENDBRANCH  16  18
ENDBRANCH  10  16
ENDBRANCH   8   9
ENDBRANCH   2   8
BRANCH   1  20
ATOM     20  C   UNL d   1      56.297  -0.351  32.909  0.00  0.00     0.092 A 
ATOM     21  C   UNL d   1      55.663   0.153  32.893  0.00  0.00     0.156 A 
ATOM     22  F   UNL d   1      55.568   0.680  32.266  0.00  0.00    -0.203 F 
ATOM     23  C   UNL d   1      55.100   0.145  33.508  0.00  0.00     0.031 A 
ATOM     24  C   UNL d   1      55.203  -0.391  34.137  0.00  0.00     0.002 A 
ATOM     25  C   UNL d   1      55.852  -0.901  34.146  0.00  0.00     0.002 A 
ATOM     26  C   UNL d   1      56.399  -0.881  33.532  0.00  0.00     0.020 A 
ENDBRANCH   1  20
TORSDOF 5
ENDMDL
MODEL 2
REMARK VINA RESULT:       0.2      1.252      1.949
REMARK  5 active torsions:
REMARK  status: ('A' for Active; 'I' for Inactive)
REMARK    1  A    between atoms: C_7  and  C_1 
REMARK    2  A    between atoms: C_13  and  C_2 
REMARK    3  A    between atoms: C_12  and  N_3 
REMARK    4  A    between atoms: C_4  and  C_7 
REMARK    5  A    between atoms: O_17  and  C_13 
ROOT
ATOM      1  N   UNL d   1      57.045  -0.490  31.697  0.00  0.00    -0.305 N 
ATOM      2  C   UNL d   1      57.653  -0.734  30.534  0.00  0.00     0.018 A 
ATOM      3  C   UNL d   1      57.111  -1.302  31.613  0.00  0.00     0.064 A 
ATOM      4  C   UNL d   1      57.379  -0.131  31.032  0.00  0.00     0.064 A 
ATOM      5  C   UNL d   1      57.492  -1.455  30.885  0.00  0.00     0.019 A 
ATOM      6  C   UNL d   1      56.851  -1.870  32.147  0.00  0.00     0.019 C 
ATOM      7  C   UNL d   1      57.431   0.681  30.887  0.00  0.00     0.019 C 
ENDROOT
BRANCH   2   8
ATOM      8  C   UNL d   1      58.028  -0.630  29.803  0.00  0.00     0.006 C 
BRANCH   8   9
ATOM      9  C   UNL d   1      58.611  -1.152  29.560  0.00  0.00     0.065 A 
ATOM     10  C   UNL d   1      59.415  -0.980  29.494  0.00  0.00     0.086 A 
ATOM     11  C   UNL d   1      59.804  -1.664  29.231  0.00  0.00     0.090 A 
ATOM     12  C   UNL d   1      60.607  -1.734  29.092  0.00  0.00     0.021 C 
ATOM     13  N   UNL d   1      59.240  -2.258  29.133  0.00  0.00    -0.208 NA
ATOM     14  C   UNL d   1      58.498  -1.943  29.337  0.00  0.00     0.279 A 
ATOM     15  O   UNL d   1      57.781  -2.337  29.323  0.00  0.00    -0.265 OA
BRANCH  10  16
ATOM     16  C   UNL d   1      59.774  -0.257  29.661  0.00  0.00     0.297 C 
ATOM     17  O   UNL d   1      59.640   0.402  29.174  0.00  0.00    -0.259 OA
BRANCH  16  18
ATOM     18  O   UNL d   1      60.275  -0.174  30.316  0.00  0.00    -0.296 OA
ATOM     19  C   UNL d   1      60.769   0.482  30.387  0.00  0.00     0.185 C 
ENDBRANCH  16  18
ENDBRANCH  10  16
ENDBRANCH   8   9
ENDBRANCH   2   8
BRANCH   1  20
ATOM     20  C   UNL d   1      56.701  -0.104  32.341  0.00  0.00     0.092 A 
ATOM     21  C   UNL d   1      57.166   0.290  32.874  0.00  0.00     0.156 A 
ATOM     22  F   UNL d   1      57.984   0.309  32.778  0.00  0.00    -0.203 F 
ATOM     23  C   UNL d   1      56.823   0.681  33.526  0.00  0.00     0.031 A 
ATOM     24  C   UNL d   1      55.995   0.657  33.616  0.00  0.00     0.002 A 
ATOM     25  C   UNL d   1      55.529   0.253  33.067  0.00  0.00     0.002 A 
ATOM     26  C   UNL d   1      55.882  -0.128  32.430  0.00  0.00     0.020 A 
ENDBRANCH   1  20
TORSDOF 5
ENDMDL
MODEL 3
REMARK VINA RESULT:       1.0      1.790      4.690
REMARK  5 active torsions:
REMARK  status: ('A' for Active; 'I' for Inactive)
REMARK    1  A    between atoms: C_7  and  C_1 
REMARK    2  A    between atoms: C_13  and  C_2 
REMARK    3  A    between atoms: C_12  and  N_3 
REMARK    4  A    between atoms: C_4  and  C_7 
REMARK    5  A    between atoms: O_17  and  C_13 
ROOT
ATOM      1  N   UNL d   1      58.679  -0.051  30.013  0.00  0.00    -0.305 N 
ATOM      2  C   UNL d   1      57.784  -0.004  31.002  0.00  0.00     0.018 A 
ATOM      3  C   UNL d   1      57.934  -0.127  29.682  0.00  0.00     0.064 A 
ATOM      4  C   UNL d   1      58.595   0.026  30.831  0.00  0.00     0.064 A 
ATOM      5  C   UNL d   1      57.374  -0.098  30.301  0.00  0.00     0.019 A 
ATOM      6  C   UNL d   1      57.761  -0.217  28.883  0.00  0.00     0.019 C 
ATOM      7  C   UNL d   1      59.206   0.116  31.380  0.00  0.00     0.019 C 
ENDROOT
BRANCH   2   8
ATOM      8  C   UNL d   1      57.444   0.051  31.754  0.00  0.00     0.006 C 
BRANCH   8   9
ATOM      9  C   UNL d   1      56.937  -0.535  32.022  0.00  0.00     0.065 A 
ATOM     10  C   UNL d   1      56.470  -0.496  32.701  0.00  0.00     0.086 A 
ATOM     11  C   UNL d   1      56.046  -1.207  32.762  0.00  0.00     0.090 A 
ATOM     12  C   UNL d   1      55.516  -1.397  33.357  0.00  0.00     0.021 C 
ATOM     13  N   UNL d   1      56.249  -1.684  32.122  0.00  0.00    -0.208 NA
ATOM     14  C   UNL d   1      56.803  -1.270  31.660  0.00  0.00     0.279 A 
ATOM     15  O   UNL d   1      57.157  -1.534  30.970  0.00  0.00    -0.265 OA
BRANCH  10  16
ATOM     16  C   UNL d   1      56.430   0.135  33.229  0.00  0.00     0.297 C 
ATOM     17  O   UNL d   1      55.784   0.657  33.214  0.00  0.00    -0.259 OA
BRANCH  16  18
ATOM     18  O   UNL d   1      57.033   0.262  33.784  0.00  0.00    -0.296 OA
ATOM     19  C   UNL d   1      56.881   0.668  34.484  0.00  0.00     0.185 C 
ENDBRANCH  16  18
ENDBRANCH  10  16
ENDBRANCH   8   9
ENDBRANCH   2   8
BRANCH   1  20
ATOM     20  C   UNL d   1      59.389  -0.051  29.591  0.00  0.00     0.092 A 
ATOM     21  C   UNL d   1      59.726  -0.752  29.362  0.00  0.00     0.156 A 
ATOM     22  F   UNL d   1      59.361  -1.467  29.547  0.00  0.00    -0.203 F 
ATOM     23  C   UNL d   1      60.443  -0.757  28.936  0.00  0.00     0.031 A 
ATOM     24  C   UNL d   1      60.804  -0.029  28.753  0.00  0.00     0.002 A 
ATOM     25  C   UNL d   1      60.454   0.680  28.991  0.00  0.00     0.002 A 
ATOM     26  C   UNL d   1      59.747   0.669  29.410  0.00  0.00     0.020 A 
ENDBRANCH   1  20
TORSDOF 5
ENDMDL
