MODEL 1
REMARK VINA RESULT:      18.7      0.000      0.000
REMARK  4 active torsions:
REMARK  status: ('A' for Active; 'I' for Inactive)
REMARK    1  A    between atoms: C_10  and  C_2 
REMARK    2  A    between atoms: C_9  and  C_4 
REMARK    3  A    between atoms: C_8  and  N_6 
REMARK    4  A    between atoms: N_7  and  C_9 
ROOT
ATOM      1  N   UNL d   1      46.023 -17.800  43.387  0.00  0.00    -0.301 N 
ATOM      2  N   UNL d   1      45.709 -16.567  44.432  0.00  0.00    -0.297 N 
ATOM      3  C   UNL d   1      45.244 -17.590  43.557  0.00  0.00     0.100 A 
ATOM      4  C   UNL d   1      46.645 -17.395  43.739  0.00  0.00     0.100 A 
ATOM      5  C   UNL d   1      45.086 -16.973  44.079  0.00  0.00     0.100 A 
ATOM      6  C   UNL d   1      46.489 -16.776  44.263  0.00  0.00     0.100 A 
ENDROOT
BRANCH   2   7
ATOM      7  C   UNL d   1      45.557 -15.949  44.955  0.00  0.00     0.127 C 
BRANCH   7   8
ATOM      8  C   UNL d   1      45.705 -15.175  44.721  0.00  0.00     0.222 A 
ATOM      9  N   UNL d   1      46.367 -14.715  44.916  0.00  0.00    -0.119 NA
ATOM     10  N   UNL d   1      46.281 -13.976  44.560  0.00  0.00    -0.121 NA
ATOM     11  C   UNL d   1      45.566 -13.977  44.142  0.00  0.00     0.204 A 
ATOM     12  O   UNL d   1      45.209 -14.716  44.240  0.00  0.00    -0.267 OA
BRANCH  11  13
ATOM     13  C   UNL d   1      45.266 -13.343  43.704  0.00  0.00     0.043 A 
ATOM     14  C   UNL d   1      45.765 -12.737  43.461  0.00  0.00     0.004 A 
ATOM     15  C   UNL d   1      45.465 -12.104  43.023  0.00  0.00     0.000 A 
ATOM     16  C   UNL d   1      44.665 -12.081  42.830  0.00  0.00     0.000 A 
ATOM     17  C   UNL d   1      44.162 -12.700  43.079  0.00  0.00     0.000 A 
ATOM     18  C   UNL d   1      44.470 -13.325  43.515  0.00  0.00     0.004 A 
ENDBRANCH  11  13
ENDBRANCH   7   8
ENDBRANCH   2   7
BRANCH   1  19
ATOM     19  C   UNL d   1      46.181 -18.417  42.864  0.00  0.00     0.064 A 
ATOM     20  C   UNL d   1      46.380 -18.253  42.080  0.00  0.00     0.020 A 
ATOM     21  C   UNL d   1      46.538 -18.874  41.558  0.00  0.00     0.031 A 
ATOM     22  C   UNL d   1      46.497 -19.660  41.817  0.00  0.00     0.140 A 
ATOM     23  C   UNL d   1      46.296 -19.812  42.604  0.00  0.00     0.031 A 
ATOM     24  F   UNL d   1      46.646 -20.307  41.330  0.00  0.00    -0.204 F 
ATOM     25  C   UNL d   1      46.139 -19.195  43.126  0.00  0.00     0.020 A 
ENDBRANCH   1  19
TORSDOF 4
ENDMDL
