MODEL 1
REMARK VINA RESULT:      12.4      0.000      0.000
REMARK  4 active torsions:
REMARK  status: ('A' for Active; 'I' for Inactive)
REMARK    1  A    between atoms: C_7  and  N_1 
REMARK    2  A    between atoms: C_6  and  C_2 
REMARK    3  A    between atoms: C_17  and  C_6 
REMARK    4  A    between atoms: C_8  and  C_7 
ROOT
ATOM      1  N   UNL d   1      45.379 -14.497  44.658  0.00  0.00    -0.303 N 
ATOM      2  C   UNL d   1      45.245 -13.285  44.082  0.00  0.00     0.057 A 
ATOM      3  C   UNL d   1      45.790 -13.855  44.299  0.00  0.00     0.067 A 
ATOM      4  C   UNL d   1      44.497 -13.559  44.299  0.00  0.00     0.022 A 
ATOM      5  C   UNL d   1      44.602 -14.315  44.656  0.00  0.00     0.064 A 
ATOM      6  C   UNL d   1      46.612 -13.800  44.180  0.00  0.00     0.019 C 
ATOM      7  C   UNL d   1      43.986 -14.786  44.955  0.00  0.00     0.019 C 
ENDROOT
BRANCH   1   8
ATOM      8  C   UNL d   1      45.716 -15.182  44.955  0.00  0.00     0.105 C 
BRANCH   8   9
ATOM      9  C   UNL d   1      45.817 -15.855  44.460  0.00  0.00     0.118 A 
ATOM     10  O   UNL d   1      45.967 -15.942  43.665  0.00  0.00    -0.304 OA
ATOM     11  C   UNL d   1      46.003 -16.750  43.531  0.00  0.00     0.123 A 
ATOM     12  C   UNL d   1      45.885 -17.156  44.195  0.00  0.00     0.029 A 
ATOM     13  C   UNL d   1      45.764 -16.600  44.800  0.00  0.00     0.028 A 
ENDBRANCH   8   9
ENDBRANCH   1   8
BRANCH   2  14
ATOM     14  C   UNL d   1      45.409 -12.591  43.725  0.00  0.00     0.208 C 
ATOM     15  O   UNL d   1      45.968 -12.090  44.042  0.00  0.00    -0.286 OA
BRANCH  14  16
ATOM     16  C   UNL d   1      45.019 -12.369  43.035  0.00  0.00     0.110 C 
ATOM     17 CL   UNL d   1      45.451 -12.170  42.339  0.00  0.00    -0.078 Cl
ENDBRANCH  14  16
ENDBRANCH   2  14
TORSDOF 4
ENDMDL
