MODEL 1
REMARK VINA RESULT:       3.0      0.000      0.000
REMARK  1 active torsions:
REMARK  status: ('A' for Active; 'I' for Inactive)
REMARK    1  A    between atoms: C_6  and  C_1 
ROOT
ATOM      1  C   UNL d   1     -51.330  25.125  33.315  0.00  0.00     0.168 A 
ATOM      2  N   UNL d   1     -50.608  24.689  33.313  0.00  0.00    -0.142 NA
ATOM      3  C   UNL d   1     -51.953  24.595  33.313  0.00  0.00     0.045 A 
ATOM      4  N   UNL d   1     -50.809  23.874  33.310  0.00  0.00    -0.148 NA
ATOM      5  C   UNL d   1     -51.639  23.812  33.309  0.00  0.00     0.105 A 
ATOM      6  C   UNL d   1     -52.771  24.530  33.313  0.00  0.00     0.003 A 
ATOM      7  C   UNL d   1     -52.274  23.273  33.307  0.00  0.00     0.021 A 
ATOM      8  C   UNL d   1     -52.994  23.740  33.309  0.00  0.00     0.002 A 
ENDROOT
BRANCH   1   9
ATOM      9  C   UNL d   1     -51.393  25.935  33.319  0.00  0.00     0.231 C 
ATOM     10  O   UNL d   1     -50.722  26.414  33.334  0.00  0.00    -0.643 OA
ATOM     11  O   UNL d   1     -52.118  26.339  33.308  0.00  0.00    -0.643 OA
ENDBRANCH   1   9
TORSDOF 1
ENDMDL
MODEL 2
REMARK VINA RESULT:       4.7      1.292      2.187
REMARK  1 active torsions:
REMARK  status: ('A' for Active; 'I' for Inactive)
REMARK    1  A    between atoms: C_6  and  C_1 
ROOT
ATOM      1  C   UNL d   1     -51.983  24.432  33.373  0.00  0.00     0.168 A 
ATOM      2  N   UNL d   1     -51.257  24.002  33.365  0.00  0.00    -0.142 NA
ATOM      3  C   UNL d   1     -51.811  25.232  33.352  0.00  0.00     0.045 A 
ATOM      4  N   UNL d   1     -50.634  24.564  33.338  0.00  0.00    -0.148 NA
ATOM      5  C   UNL d   1     -50.972  25.325  33.330  0.00  0.00     0.105 A 
ATOM      6  C   UNL d   1     -52.140  25.984  33.344  0.00  0.00     0.003 A 
ATOM      7  C   UNL d   1     -50.797  26.139  33.309  0.00  0.00     0.021 A 
ATOM      8  C   UNL d   1     -51.549  26.553  33.318  0.00  0.00     0.002 A 
ENDROOT
BRANCH   1   9
ATOM      9  C   UNL d   1     -52.726  24.106  33.398  0.00  0.00     0.231 C 
ATOM     10  O   UNL d   1     -52.831  23.297  33.519  0.00  0.00    -0.643 OA
ATOM     11  O   UNL d   1     -53.424  24.545  33.306  0.00  0.00    -0.643 OA
ENDBRANCH   1   9
TORSDOF 1
ENDMDL
