MODEL 1
REMARK VINA RESULT:      -8.6      0.000      0.000
REMARK  6 active torsions:
REMARK  status: ('A' for Active; 'I' for Inactive)
REMARK    1  A    between atoms: C_3  and  N_4 
REMARK       I    between atoms: N_4  and  C_6 
REMARK    2  A    between atoms: C_9  and  C_5 
REMARK    3  A    between atoms: C_6  and  C_16 
REMARK    4  A    between atoms: S_12  and  C_7 
REMARK    5  A    between atoms: O_20  and  C_8 
REMARK    6  A    between atoms: C_16  and  S_12 
ROOT
ATOM      1  S   UNL d   1      50.308  34.335  52.722  0.00  0.00    -0.061 SA
ENDROOT
BRANCH   1   2
ATOM      2  C   UNL d   1      51.053  34.101  52.994  0.00  0.00     0.133 A 
ATOM      3  N   UNL d   1      51.141  33.405  53.429  0.00  0.00    -0.141 NA
ATOM      4  N   UNL d   1      51.886  33.171  53.700  0.00  0.00    -0.146 NA
ATOM      5  C   UNL d   1      52.554  33.641  53.534  0.00  0.00     0.121 A 
ATOM      6  C   UNL d   1      52.467  34.338  53.099  0.00  0.00     0.025 A 
ATOM      7  C   UNL d   1      51.726  34.572  52.828  0.00  0.00     0.029 A 
BRANCH   5   8
ATOM      8  C   UNL d   1      53.300  33.401  53.809  0.00  0.00     0.101 A 
ATOM      9  N   UNL d   1      53.789  32.940  53.331  0.00  0.00    -0.242 NA
ATOM     10  C   UNL d   1      54.514  32.711  53.608  0.00  0.00     0.099 A 
ATOM     11  C   UNL d   1      54.770  32.935  54.369  0.00  0.00     0.021 A 
ATOM     12  C   UNL d   1      54.281  33.394  54.843  0.00  0.00     0.003 A 
ATOM     13  C   UNL d   1      53.540  33.633  54.569  0.00  0.00     0.021 A 
ENDBRANCH   5   8
ENDBRANCH   1   2
BRANCH   1  14
ATOM     14  C   UNL d   1      49.937  34.992  53.041  0.00  0.00     0.099 C 
BRANCH  14  15
ATOM     15  C   UNL d   1      49.152  35.145  52.853  0.00  0.00     0.286 C 
ATOM     16  N   UNL d   1      48.751  35.762  53.211  0.00  0.00    -0.206 NA
ATOM     17  O   UNL d   1      48.757  34.678  52.299  0.00  0.00    -0.265 OA
BRANCH  16  18
ATOM     18  C   UNL d   1      47.955  35.917  53.021  0.00  0.00     0.107 A 
ATOM     19  C   UNL d   1      47.425  36.141  53.610  0.00  0.00     0.112 A 
ATOM     20  C   UNL d   1      46.646  36.293  53.423  0.00  0.00     0.026 A 
ATOM     21  C   UNL d   1      46.380  36.225  52.639  0.00  0.00     0.002 A 
ATOM     22  C   UNL d   1      46.910  36.000  52.041  0.00  0.00     0.002 A 
ATOM     23  C   UNL d   1      47.697  35.848  52.238  0.00  0.00     0.021 A 
ATOM     24  C   UNL d   1      46.650  35.933  51.270  0.00  0.00     0.000 C 
BRANCH  19  25
ATOM     25  O   UNL d   1      47.598  36.226  54.363  0.00  0.00    -0.327 OA
ATOM     26  C   UNL d   1      47.097  36.583  54.898  0.00  0.00     0.181 C 
ENDBRANCH  19  25
ENDBRANCH  16  18
ENDBRANCH  14  15
ENDBRANCH   1  14
TORSDOF 6
ENDMDL
MODEL 2
REMARK VINA RESULT:      -8.6      1.598      6.270
REMARK  6 active torsions:
REMARK  status: ('A' for Active; 'I' for Inactive)
REMARK    1  A    between atoms: C_3  and  N_4 
REMARK       I    between atoms: N_4  and  C_6 
REMARK    2  A    between atoms: C_9  and  C_5 
REMARK    3  A    between atoms: C_6  and  C_16 
REMARK    4  A    between atoms: S_12  and  C_7 
REMARK    5  A    between atoms: O_20  and  C_8 
REMARK    6  A    between atoms: C_16  and  S_12 
ROOT
ATOM      1  S   UNL d   1      50.693  34.275  52.363  0.00  0.00    -0.061 SA
ENDROOT
BRANCH   1   2
ATOM      2  C   UNL d   1      49.933  34.582  52.256  0.00  0.00     0.133 A 
ATOM      3  N   UNL d   1      49.547  34.968  52.875  0.00  0.00    -0.141 NA
ATOM      4  N   UNL d   1      48.786  35.276  52.768  0.00  0.00    -0.146 NA
ATOM      5  C   UNL d   1      48.406  35.195  52.030  0.00  0.00     0.121 A 
ATOM      6  C   UNL d   1      48.793  34.809  51.411  0.00  0.00     0.025 A 
ATOM      7  C   UNL d   1      49.549  34.502  51.515  0.00  0.00     0.029 A 
BRANCH   5   8
ATOM      8  C   UNL d   1      47.643  35.506  51.929  0.00  0.00     0.101 A 
ATOM      9  N   UNL d   1      47.126  35.165  51.384  0.00  0.00    -0.242 NA
ATOM     10  C   UNL d   1      46.384  35.475  51.293  0.00  0.00     0.099 A 
ATOM     11  C   UNL d   1      46.138  36.133  51.742  0.00  0.00     0.021 A 
ATOM     12  C   UNL d   1      46.655  36.470  52.284  0.00  0.00     0.003 A 
ATOM     13  C   UNL d   1      47.413  36.161  52.384  0.00  0.00     0.021 A 
ENDBRANCH   5   8
ENDBRANCH   1   2
BRANCH   1  14
ATOM     14  C   UNL d   1      50.915  33.956  53.083  0.00  0.00     0.099 C 
BRANCH  14  15
ATOM     15  C   UNL d   1      51.701  33.755  53.213  0.00  0.00     0.286 C 
ATOM     16  N   UNL d   1      51.897  33.039  53.558  0.00  0.00    -0.206 NA
ATOM     17  O   UNL d   1      52.305  34.274  52.995  0.00  0.00    -0.265 OA
BRANCH  16  18
ATOM     18  C   UNL d   1      52.694  32.836  53.689  0.00  0.00     0.107 A 
ATOM     19  C   UNL d   1      52.999  32.138  53.377  0.00  0.00     0.112 A 
ATOM     20  C   UNL d   1      53.779  31.938  53.505  0.00  0.00     0.026 A 
ATOM     21  C   UNL d   1      54.273  32.436  53.952  0.00  0.00     0.002 A 
ATOM     22  C   UNL d   1      53.970  33.140  54.269  0.00  0.00     0.002 A 
ATOM     23  C   UNL d   1      53.180  33.336  54.135  0.00  0.00     0.021 A 
ATOM     24  C   UNL d   1      54.453  33.630  54.709  0.00  0.00     0.000 C 
BRANCH  19  25
ATOM     25  O   UNL d   1      52.602  31.623  52.950  0.00  0.00    -0.327 OA
ATOM     26  C   UNL d   1      52.811  30.838  52.890  0.00  0.00     0.181 C 
ENDBRANCH  19  25
ENDBRANCH  16  18
ENDBRANCH  14  15
ENDBRANCH   1  14
TORSDOF 6
ENDMDL
MODEL 3
REMARK VINA RESULT:      -8.3      1.628      6.156
REMARK  6 active torsions:
REMARK  status: ('A' for Active; 'I' for Inactive)
REMARK    1  A    between atoms: C_3  and  N_4 
REMARK       I    between atoms: N_4  and  C_6 
REMARK    2  A    between atoms: C_9  and  C_5 
REMARK    3  A    between atoms: C_6  and  C_16 
REMARK    4  A    between atoms: S_12  and  C_7 
REMARK    5  A    between atoms: O_20  and  C_8 
REMARK    6  A    between atoms: C_16  and  S_12 
ROOT
ATOM      1  S   UNL d   1      50.642  34.163  52.185  0.00  0.00    -0.061 SA
ENDROOT
BRANCH   1   2
ATOM      2  C   UNL d   1      49.893  34.512  52.133  0.00  0.00     0.133 A 
ATOM      3  N   UNL d   1      49.554  34.876  52.791  0.00  0.00    -0.141 NA
ATOM      4  N   UNL d   1      48.806  35.225  52.738  0.00  0.00    -0.146 NA
ATOM      5  C   UNL d   1      48.391  35.210  52.015  0.00  0.00     0.121 A 
ATOM      6  C   UNL d   1      48.731  34.846  51.356  0.00  0.00     0.025 A 
ATOM      7  C   UNL d   1      49.475  34.498  51.406  0.00  0.00     0.029 A 
BRANCH   5   8
ATOM      8  C   UNL d   1      47.640  35.562  51.969  0.00  0.00     0.101 A 
ATOM      9  N   UNL d   1      47.057  35.230  51.490  0.00  0.00    -0.242 NA
ATOM     10  C   UNL d   1      46.328  35.581  51.451  0.00  0.00     0.099 A 
ATOM     11  C   UNL d   1      46.163  36.271  51.889  0.00  0.00     0.021 A 
ATOM     12  C   UNL d   1      46.746  36.599  52.365  0.00  0.00     0.003 A 
ATOM     13  C   UNL d   1      47.492  36.249  52.411  0.00  0.00     0.021 A 
ENDBRANCH   5   8
ENDBRANCH   1   2
BRANCH   1  14
ATOM     14  C   UNL d   1      50.997  34.050  52.913  0.00  0.00     0.099 C 
BRANCH  14  15
ATOM     15  C   UNL d   1      51.680  33.596  52.965  0.00  0.00     0.286 C 
ATOM     16  N   UNL d   1      52.012  33.424  53.692  0.00  0.00    -0.206 NA
ATOM     17  O   UNL d   1      52.041  33.308  52.280  0.00  0.00    -0.265 OA
BRANCH  16  18
ATOM     18  C   UNL d   1      52.705  32.965  53.744  0.00  0.00     0.107 A 
ATOM     19  C   UNL d   1      53.365  33.256  54.140  0.00  0.00     0.112 A 
ATOM     20  C   UNL d   1      54.044  32.806  54.191  0.00  0.00     0.026 A 
ATOM     21  C   UNL d   1      54.075  32.051  53.846  0.00  0.00     0.002 A 
ATOM     22  C   UNL d   1      53.412  31.753  53.445  0.00  0.00     0.002 A 
ATOM     23  C   UNL d   1      52.729  32.214  53.398  0.00  0.00     0.021 A 
ATOM     24  C   UNL d   1      53.441  31.011  53.105  0.00  0.00     0.000 C 
BRANCH  19  25
ATOM     25  O   UNL d   1      53.413  33.950  54.488  0.00  0.00    -0.327 OA
ATOM     26  C   UNL d   1      54.022  34.157  54.988  0.00  0.00     0.181 C 
ENDBRANCH  19  25
ENDBRANCH  16  18
ENDBRANCH  14  15
ENDBRANCH   1  14
TORSDOF 6
ENDMDL
