MODEL 1
REMARK VINA RESULT:      -6.6      0.000      0.000
REMARK  4 active torsions:
REMARK  status: ('A' for Active; 'I' for Inactive)
REMARK    1  A    between atoms: C_6  and  N_1 
REMARK    2  A    between atoms: C_3  and  C_4 
REMARK    3  A    between atoms: C_5  and  C_3 
REMARK       I    between atoms: C_4  and  N_10 
REMARK    4  A    between atoms: N_10  and  C_13 
ROOT
ATOM      1  C   UNL d   1     -41.473-123.025 -51.770  0.00  0.00     0.281 C 
ATOM      2  N   UNL d   1     -41.192-122.566 -52.397  0.00  0.00    -0.208 NA
ATOM      3  O   UNL d   1     -41.926-123.696 -51.927  0.00  0.00    -0.265 OA
ENDROOT
BRANCH   1   4
ATOM      4  C   UNL d   1     -41.301-122.811 -50.993  0.00  0.00     0.086 C 
BRANCH   4   5
ATOM      5  C   UNL d   1     -41.902-122.803 -50.420  0.00  0.00     0.144 A 
ATOM      6  C   UNL d   1     -41.813-123.244 -49.728  0.00  0.00     0.297 A 
ATOM      7  N   UNL d   1     -42.404-123.243 -49.149  0.00  0.00    -0.204 NA
ATOM      8  O   UNL d   1     -41.124-123.692 -49.611  0.00  0.00    -0.264 OA
ATOM      9  C   UNL d   1     -43.079-122.794 -49.279  0.00  0.00     0.123 A 
ATOM     10  C   UNL d   1     -43.168-122.353 -49.971  0.00  0.00     0.120 A 
ATOM     11  N   UNL d   1     -42.581-122.361 -50.533  0.00  0.00    -0.237 NA
ENDBRANCH   4   5
ENDBRANCH   1   4
BRANCH   2  12
ATOM     12  C   UNL d   1     -41.363-122.780 -53.174  0.00  0.00     0.086 A 
ATOM     13  C   UNL d   1     -41.778-122.256 -53.659  0.00  0.00     0.043 A 
ATOM     14  C   UNL d   1     -41.949-122.471 -54.435  0.00  0.00     0.128 A 
ATOM     15  C   UNL d   1     -41.707-123.205 -54.725  0.00  0.00     0.024 A 
ATOM     16  C   UNL d   1     -41.294-123.724 -54.237  0.00  0.00     0.003 A 
ATOM     17  C   UNL d   1     -41.123-123.510 -53.462  0.00  0.00     0.019 A 
BRANCH  14  18
ATOM     18  N   UNL d   1     -42.362-121.951 -54.922  0.00  0.00    -0.114 N 
ATOM     19  O   UNL d   1     -42.101-121.795 -55.689  0.00  0.00    -0.532 OA
ATOM     20  O   UNL d   1     -43.052-121.574 -54.643  0.00  0.00    -0.532 OA
ENDBRANCH  14  18
ENDBRANCH   2  12
TORSDOF 4
ENDMDL
MODEL 2
REMARK VINA RESULT:      -5.4      1.087      4.428
REMARK  4 active torsions:
REMARK  status: ('A' for Active; 'I' for Inactive)
REMARK    1  A    between atoms: C_6  and  N_1 
REMARK    2  A    between atoms: C_3  and  C_4 
REMARK    3  A    between atoms: C_5  and  C_3 
REMARK       I    between atoms: C_4  and  N_10 
REMARK    4  A    between atoms: N_10  and  C_13 
ROOT
ATOM      1  C   UNL d   1     -41.516-122.529 -52.007  0.00  0.00     0.281 C 
ATOM      2  N   UNL d   1     -41.847-122.190 -51.330  0.00  0.00    -0.208 NA
ATOM      3  O   UNL d   1     -41.179-123.280 -51.965  0.00  0.00    -0.265 OA
ENDROOT
BRANCH   1   4
ATOM      4  C   UNL d   1     -41.525-122.117 -52.721  0.00  0.00     0.086 C 
BRANCH   4   5
ATOM      5  C   UNL d   1     -41.557-122.529 -53.441  0.00  0.00     0.144 A 
ATOM      6  C   UNL d   1     -42.013-122.234 -54.062  0.00  0.00     0.297 A 
ATOM      7  N   UNL d   1     -42.052-122.636 -54.784  0.00  0.00    -0.204 NA
ATOM      8  O   UNL d   1     -42.437-121.527 -53.961  0.00  0.00    -0.264 OA
ATOM      9  C   UNL d   1     -41.628-123.333 -54.868  0.00  0.00     0.123 A 
ATOM     10  C   UNL d   1     -41.172-123.629 -54.247  0.00  0.00     0.120 A 
ATOM     11  N   UNL d   1     -41.140-123.226 -53.542  0.00  0.00    -0.237 NA
ENDBRANCH   4   5
ENDBRANCH   1   4
BRANCH   2  12
ATOM     12  C   UNL d   1     -41.838-122.602 -50.617  0.00  0.00     0.086 A 
ATOM     13  C   UNL d   1     -42.542-122.907 -50.314  0.00  0.00     0.043 A 
ATOM     14  C   UNL d   1     -42.532-123.319 -49.600  0.00  0.00     0.128 A 
ATOM     15  C   UNL d   1     -41.823-123.424 -49.193  0.00  0.00     0.024 A 
ATOM     16  C   UNL d   1     -41.123-123.117 -49.499  0.00  0.00     0.003 A 
ATOM     17  C   UNL d   1     -41.132-122.706 -50.211  0.00  0.00     0.019 A 
BRANCH  14  18
ATOM     18  N   UNL d   1     -43.233-123.626 -49.295  0.00  0.00    -0.114 N 
ATOM     19  O   UNL d   1     -43.321-123.747 -48.484  0.00  0.00    -0.532 OA
ATOM     20  O   UNL d   1     -43.864-123.817 -49.805  0.00  0.00    -0.532 OA
ENDBRANCH  14  18
ENDBRANCH   2  12
TORSDOF 4
ENDMDL
MODEL 3
REMARK VINA RESULT:      -5.4      1.019      1.195
REMARK  4 active torsions:
REMARK  status: ('A' for Active; 'I' for Inactive)
REMARK    1  A    between atoms: C_6  and  N_1 
REMARK    2  A    between atoms: C_3  and  C_4 
REMARK    3  A    between atoms: C_5  and  C_3 
REMARK       I    between atoms: C_4  and  N_10 
REMARK    4  A    between atoms: N_10  and  C_13 
ROOT
ATOM      1  C   UNL d   1     -41.907-122.130 -51.964  0.00  0.00     0.281 C 
ATOM      2  N   UNL d   1     -42.346-122.491 -52.564  0.00  0.00    -0.208 NA
ATOM      3  O   UNL d   1     -41.123-121.917 -52.104  0.00  0.00    -0.265 OA
ENDROOT
BRANCH   1   4
ATOM      4  C   UNL d   1     -42.253-121.983 -51.231  0.00  0.00     0.086 C 
BRANCH   4   5
ATOM      5  C   UNL d   1     -42.062-122.457 -50.577  0.00  0.00     0.144 A 
ATOM      6  C   UNL d   1     -42.637-122.621 -50.008  0.00  0.00     0.297 A 
ATOM      7  N   UNL d   1     -42.459-123.092 -49.352  0.00  0.00    -0.204 NA
ATOM      8  O   UNL d   1     -43.402-122.310 -50.095  0.00  0.00    -0.264 OA
ATOM      9  C   UNL d   1     -41.698-123.392 -49.280  0.00  0.00     0.123 A 
ATOM     10  C   UNL d   1     -41.123-123.228 -49.848  0.00  0.00     0.120 A 
ATOM     11  N   UNL d   1     -41.308-122.764 -50.489  0.00  0.00    -0.237 NA
ENDBRANCH   4   5
ENDBRANCH   1   4
BRANCH   2  12
ATOM     12  C   UNL d   1     -42.000-122.637 -53.297  0.00  0.00     0.086 A 
ATOM     13  C   UNL d   1     -42.187-122.155 -53.939  0.00  0.00     0.043 A 
ATOM     14  C   UNL d   1     -41.841-122.302 -54.672  0.00  0.00     0.128 A 
ATOM     15  C   UNL d   1     -41.310-122.928 -54.761  0.00  0.00     0.024 A 
ATOM     16  C   UNL d   1     -41.127-123.407 -54.117  0.00  0.00     0.003 A 
ATOM     17  C   UNL d   1     -41.472-123.260 -53.385  0.00  0.00     0.019 A 
BRANCH  14  18
ATOM     18  N   UNL d   1     -42.025-121.823 -55.316  0.00  0.00    -0.114 N 
ATOM     19  O   UNL d   1     -41.430-121.530 -55.806  0.00  0.00    -0.532 OA
ATOM     20  O   UNL d   1     -42.820-121.628 -55.479  0.00  0.00    -0.532 OA
ENDBRANCH  14  18
ENDBRANCH   2  12
TORSDOF 4
ENDMDL
MODEL 4
REMARK VINA RESULT:      -5.3      1.184      4.705
REMARK  4 active torsions:
REMARK  status: ('A' for Active; 'I' for Inactive)
REMARK    1  A    between atoms: C_6  and  N_1 
REMARK    2  A    between atoms: C_3  and  C_4 
REMARK    3  A    between atoms: C_5  and  C_3 
REMARK       I    between atoms: C_4  and  N_10 
REMARK    4  A    between atoms: N_10  and  C_13 
ROOT
ATOM      1  C   UNL d   1     -41.551-122.876 -51.240  0.00  0.00     0.281 C 
ATOM      2  N   UNL d   1     -41.865-122.422 -50.626  0.00  0.00    -0.208 NA
ATOM      3  O   UNL d   1     -41.614-123.698 -51.213  0.00  0.00    -0.265 OA
ENDROOT
BRANCH   1   4
ATOM      4  C   UNL d   1     -41.177-122.508 -51.875  0.00  0.00     0.086 C 
BRANCH   4   5
ATOM      5  C   UNL d   1     -41.322-122.765 -52.651  0.00  0.00     0.144 A 
ATOM      6  C   UNL d   1     -41.459-122.210 -53.246  0.00  0.00     0.297 A 
ATOM      7  N   UNL d   1     -41.605-122.453 -54.023  0.00  0.00    -0.204 NA
ATOM      8  O   UNL d   1     -41.451-121.400 -53.064  0.00  0.00    -0.264 OA
ATOM      9  C   UNL d   1     -41.611-123.258 -54.188  0.00  0.00     0.123 A 
ATOM     10  C   UNL d   1     -41.473-123.812 -53.593  0.00  0.00     0.120 A 
ATOM     11  N   UNL d   1     -41.331-123.563 -52.833  0.00  0.00    -0.237 NA
ENDBRANCH   4   5
ENDBRANCH   1   4
BRANCH   2  12
ATOM     12  C   UNL d   1     -42.239-122.789 -49.991  0.00  0.00     0.086 A 
ATOM     13  C   UNL d   1     -41.882-122.782 -49.247  0.00  0.00     0.043 A 
ATOM     14  C   UNL d   1     -42.257-123.150 -48.612  0.00  0.00     0.128 A 
ATOM     15  C   UNL d   1     -42.985-123.523 -48.722  0.00  0.00     0.024 A 
ATOM     16  C   UNL d   1     -43.338-123.527 -49.466  0.00  0.00     0.003 A 
ATOM     17  C   UNL d   1     -42.963-123.160 -50.100  0.00  0.00     0.019 A 
BRANCH  14  18
ATOM     18  N   UNL d   1     -41.903-123.144 -47.869  0.00  0.00    -0.114 N 
ATOM     19  O   UNL d   1     -42.234-122.711 -47.249  0.00  0.00    -0.532 OA
ATOM     20  O   UNL d   1     -41.204-123.579 -47.734  0.00  0.00    -0.532 OA
ENDBRANCH  14  18
ENDBRANCH   2  12
TORSDOF 4
ENDMDL
MODEL 5
REMARK VINA RESULT:      -4.8      1.133      4.440
REMARK  4 active torsions:
REMARK  status: ('A' for Active; 'I' for Inactive)
REMARK    1  A    between atoms: C_6  and  N_1 
REMARK    2  A    between atoms: C_3  and  C_4 
REMARK    3  A    between atoms: C_5  and  C_3 
REMARK       I    between atoms: C_4  and  N_10 
REMARK    4  A    between atoms: N_10  and  C_13 
ROOT
ATOM      1  C   UNL d   1     -41.518-122.639 -53.139  0.00  0.00     0.281 C 
ATOM      2  N   UNL d   1     -41.123-122.929 -52.474  0.00  0.00    -0.208 NA
ATOM      3  O   UNL d   1     -42.103-122.065 -53.047  0.00  0.00    -0.265 OA
ENDROOT
BRANCH   1   4
ATOM      4  C   UNL d   1     -41.327-122.923 -53.888  0.00  0.00     0.086 C 
BRANCH   4   5
ATOM      5  C   UNL d   1     -41.702-122.611 -54.561  0.00  0.00     0.144 A 
ATOM      6  C   UNL d   1     -42.286-123.050 -54.944  0.00  0.00     0.297 A 
ATOM      7  N   UNL d   1     -42.666-122.749 -55.615  0.00  0.00    -0.204 NA
ATOM      8  O   UNL d   1     -42.495-123.799 -54.654  0.00  0.00    -0.264 OA
ATOM      9  C   UNL d   1     -42.449-122.007 -55.889  0.00  0.00     0.123 A 
ATOM     10  C   UNL d   1     -41.864-121.568 -55.506  0.00  0.00     0.120 A 
ATOM     11  N   UNL d   1     -41.497-121.872 -54.848  0.00  0.00    -0.237 NA
ENDBRANCH   4   5
ENDBRANCH   1   4
BRANCH   2  12
ATOM     12  C   UNL d   1     -41.313-122.646 -51.725  0.00  0.00     0.086 A 
ATOM     13  C   UNL d   1     -41.695-123.141 -51.186  0.00  0.00     0.043 A 
ATOM     14  C   UNL d   1     -41.885-122.857 -50.437  0.00  0.00     0.128 A 
ATOM     15  C   UNL d   1     -41.694-122.082 -50.228  0.00  0.00     0.024 A 
ATOM     16  C   UNL d   1     -41.313-121.591 -50.768  0.00  0.00     0.003 A 
ATOM     17  C   UNL d   1     -41.123-121.875 -51.516  0.00  0.00     0.019 A 
BRANCH  14  18
ATOM     18  N   UNL d   1     -42.267-123.348 -49.897  0.00  0.00    -0.114 N 
ATOM     19  O   UNL d   1     -42.989-123.699 -50.086  0.00  0.00    -0.532 OA
ATOM     20  O   UNL d   1     -41.926-123.496 -49.150  0.00  0.00    -0.532 OA
ENDBRANCH  14  18
ENDBRANCH   2  12
TORSDOF 4
ENDMDL
