MODEL 1
REMARK VINA RESULT:      26.1      0.000      0.000
REMARK  8 active torsions:
REMARK  status: ('A' for Active; 'I' for Inactive)
REMARK    1  A    between atoms: C_14  and  C_1 
REMARK    2  A    between atoms: C_6  and  C_2 
REMARK    3  A    between atoms: C_19  and  C_4 
REMARK       I    between atoms: N_13  and  C_6 
REMARK    4  A    between atoms: C_7  and  S_18 
REMARK    5  A    between atoms: C_26  and  N_13 
REMARK    6  A    between atoms: C_22  and  C_14 
REMARK    7  A    between atoms: S_18  and  C_22 
REMARK    8  A    between atoms: O_31  and  C_27 
ROOT
ATOM      1  C   UNL d   1     -41.667-122.339 -53.642  0.00  0.00     0.076 A 
ATOM      2  C   UNL d   1     -41.510-122.124 -52.257  0.00  0.00     0.092 A 
ATOM      3  C   UNL d   1     -41.631-121.827 -53.005  0.00  0.00     0.018 A 
ATOM      4  C   UNL d   1     -41.424-122.932 -52.141  0.00  0.00     0.120 A 
ATOM      5  N   UNL d   1     -41.460-123.444 -52.772  0.00  0.00    -0.238 NA
ATOM      6  C   UNL d   1     -41.582-123.148 -53.525  0.00  0.00     0.087 A 
ATOM      7  C   UNL d   1     -41.473-121.611 -51.620  0.00  0.00     0.103 C 
ATOM      8  N   UNL d   1     -41.437-121.108 -50.992  0.00  0.00    -0.191 NA
ATOM      9  C   UNL d   1     -41.618-123.628 -54.142  0.00  0.00     0.021 C 
ENDROOT
BRANCH   4  10
ATOM     10  S   UNL d   1     -41.303-123.228 -51.387  0.00  0.00    -0.063 SA
BRANCH  10  11
ATOM     11  C   UNL d   1     -41.907-123.606 -50.992  0.00  0.00     0.079 C 
BRANCH  11  12
ATOM     12  C   UNL d   1     -41.889-123.675 -50.182  0.00  0.00     0.207 C 
ATOM     13  O   UNL d   1     -41.124-123.722 -49.773  0.00  0.00    -0.286 OA
BRANCH  12  14
ATOM     14  C   UNL d   1     -42.432-123.713 -49.624  0.00  0.00     0.103 A 
ATOM     15  C   UNL d   1     -43.240-123.753 -49.620  0.00  0.00     0.303 A 
ATOM     16  O   UNL d   1     -43.634-123.787 -48.911  0.00  0.00    -0.273 OA
ATOM     17  O   UNL d   1     -43.709-123.761 -50.343  0.00  0.00    -0.259 OA
ATOM     18  C   UNL d   1     -43.218-123.781 -48.206  0.00  0.00     0.103 A 
ATOM     19  C   UNL d   1     -42.412-123.741 -48.205  0.00  0.00     0.023 A 
ATOM     20  C   UNL d   1     -43.637-123.817 -47.478  0.00  0.00     0.025 A 
ATOM     21  C   UNL d   1     -42.011-123.707 -48.923  0.00  0.00     0.011 A 
ATOM     22  C   UNL d   1     -41.980-123.735 -47.486  0.00  0.00     0.002 A 
ATOM     23  C   UNL d   1     -42.382-123.769 -46.764  0.00  0.00     0.000 A 
ATOM     24  C   UNL d   1     -43.220-123.811 -46.762  0.00  0.00     0.002 A 
ENDBRANCH  12  14
ENDBRANCH  11  12
ENDBRANCH  10  11
ENDBRANCH   4  10
BRANCH   3  25
ATOM     25  C   UNL d   1     -41.716-121.022 -53.121  0.00  0.00     0.001 A 
ATOM     26  C   UNL d   1     -41.123-120.591 -53.501  0.00  0.00     0.002 A 
ATOM     27  C   UNL d   1     -41.209-119.775 -53.618  0.00  0.00     0.024 A 
ATOM     28  C   UNL d   1     -41.888-119.392 -53.355  0.00  0.00     0.094 A 
ATOM     29  C   UNL d   1     -42.484-119.817 -52.976  0.00  0.00     0.024 A 
ATOM     30  C   UNL d   1     -42.397-120.633 -52.858  0.00  0.00     0.002 A 
BRANCH  28  31
ATOM     31  O   UNL d   1     -41.949-118.594 -53.482  0.00  0.00    -0.328 OA
ATOM     32  C   UNL d   1     -41.267-118.206 -53.957  0.00  0.00     0.181 C 
ENDBRANCH  28  31
ENDBRANCH   3  25
BRANCH   1  33
ATOM     33  C   UNL d   1     -41.820-122.037 -54.633  0.00  0.00     0.281 C 
ATOM     34  N   UNL d   1     -41.413-121.795 -55.253  0.00  0.00    -0.208 NA
ATOM     35  O   UNL d   1     -42.696-122.018 -54.979  0.00  0.00    -0.265 OA
BRANCH  34  36
ATOM     36  C   UNL d   1     -41.820-121.618 -55.937  0.00  0.00     0.085 A 
ATOM     37  C   UNL d   1     -41.532-121.026 -56.435  0.00  0.00     0.019 A 
ATOM     38  C   UNL d   1     -41.938-120.836 -57.136  0.00  0.00     0.002 A 
ATOM     39  C   UNL d   1     -42.638-121.248 -57.332  0.00  0.00     0.000 A 
ATOM     40  C   UNL d   1     -42.929-121.848 -56.827  0.00  0.00     0.002 A 
ATOM     41  C   UNL d   1     -42.512-122.027 -56.129  0.00  0.00     0.019 A 
ENDBRANCH  34  36
ENDBRANCH   1  33
TORSDOF 8
ENDMDL
