MODEL 1
REMARK VINA RESULT:      21.4      0.000      0.000
REMARK  3 active torsions:
REMARK  status: ('A' for Active; 'I' for Inactive)
REMARK    1  A    between atoms: C_6  and  C_1 
REMARK    2  A    between atoms: C_8  and  C_4 
REMARK    3  A    between atoms: O_17  and  C_14 
ROOT
ATOM      1  C   UNL d   1     -55.382-102.305 -36.640  0.00  0.00     0.122 A 
ATOM      2  C   UNL d   1     -56.044-102.640 -37.018  0.00  0.00     0.285 A 
ATOM      3  N   UNL d   1     -56.050-102.733 -37.837  0.00  0.00    -0.208 NA
ATOM      4  C   UNL d   1     -55.398-102.494 -38.280  0.00  0.00     0.085 A 
ATOM      5  C   UNL d   1     -54.730-102.067 -37.084  0.00  0.00     0.013 A 
ATOM      6  C   UNL d   1     -54.742-102.163 -37.905  0.00  0.00     0.020 A 
ATOM      7  O   UNL d   1     -56.700-102.879 -36.567  0.00  0.00    -0.265 OA
ENDROOT
BRANCH   4   8
ATOM      8  C   UNL d   1     -55.402-102.587 -39.102  0.00  0.00     0.018 A 
ATOM      9  C   UNL d   1     -56.107-102.787 -39.487  0.00  0.00     0.004 A 
ATOM     10  C   UNL d   1     -56.109-102.878 -40.304  0.00  0.00     0.024 A 
ATOM     11  C   UNL d   1     -55.413-102.771 -40.734  0.00  0.00     0.094 A 
ATOM     12  C   UNL d   1     -54.712-102.571 -40.341  0.00  0.00     0.024 A 
ATOM     13  C   UNL d   1     -54.711-102.480 -39.523  0.00  0.00     0.004 A 
BRANCH  11  14
ATOM     14  O   UNL d   1     -55.418-102.865 -41.559  0.00  0.00    -0.328 OA
ATOM     15  C   UNL d   1     -54.825-102.538 -42.019  0.00  0.00     0.181 C 
ENDBRANCH  11  14
ENDBRANCH   4   8
BRANCH   1  16
ATOM     16  C   UNL d   1     -55.376-102.212 -35.822  0.00  0.00     0.216 C 
ATOM     17  O   UNL d   1     -55.730-102.780 -35.338  0.00  0.00    -0.644 OA
ATOM     18  O   UNL d   1     -55.016-101.550 -35.478  0.00  0.00    -0.644 OA
ENDBRANCH   1  16
TORSDOF 3
ENDMDL
MODEL 2
REMARK VINA RESULT:      24.0      1.111      4.295
REMARK  3 active torsions:
REMARK  status: ('A' for Active; 'I' for Inactive)
REMARK    1  A    between atoms: C_6  and  C_1 
REMARK    2  A    between atoms: C_8  and  C_4 
REMARK    3  A    between atoms: O_17  and  C_14 
ROOT
ATOM      1  C   UNL d   1     -54.897-102.157 -40.692  0.00  0.00     0.122 A 
ATOM      2  C   UNL d   1     -55.006-101.448 -40.268  0.00  0.00     0.285 A 
ATOM      3  N   UNL d   1     -54.976-101.451 -39.445  0.00  0.00    -0.208 NA
ATOM      4  C   UNL d   1     -54.837-102.156 -39.043  0.00  0.00     0.085 A 
ATOM      5  C   UNL d   1     -54.758-102.862 -40.290  0.00  0.00     0.013 A 
ATOM      6  C   UNL d   1     -54.728-102.857 -39.463  0.00  0.00     0.020 A 
ATOM      7  O   UNL d   1     -55.147-100.739 -40.678  0.00  0.00    -0.265 OA
ENDROOT
BRANCH   4   8
ATOM      8  C   UNL d   1     -54.805-102.160 -38.216  0.00  0.00     0.018 A 
ATOM      9  C   UNL d   1     -54.759-101.443 -37.806  0.00  0.00     0.004 A 
ATOM     10  C   UNL d   1     -54.728-101.449 -36.984  0.00  0.00     0.024 A 
ATOM     11  C   UNL d   1     -54.743-102.165 -36.575  0.00  0.00     0.094 A 
ATOM     12  C   UNL d   1     -54.789-102.878 -36.993  0.00  0.00     0.024 A 
ATOM     13  C   UNL d   1     -54.820-102.871 -37.815  0.00  0.00     0.004 A 
BRANCH  11  14
ATOM     14  O   UNL d   1     -54.711-102.168 -35.745  0.00  0.00    -0.328 OA
ATOM     15  C   UNL d   1     -54.890-101.491 -35.319  0.00  0.00     0.181 C 
ENDBRANCH  11  14
ENDBRANCH   4   8
BRANCH   1  16
ATOM     16  C   UNL d   1     -54.928-102.155 -41.515  0.00  0.00     0.216 C 
ATOM     17  O   UNL d   1     -54.718-101.477 -41.935  0.00  0.00    -0.644 OA
ATOM     18  O   UNL d   1     -55.169-102.832 -41.927  0.00  0.00    -0.644 OA
ENDBRANCH   1  16
TORSDOF 3
ENDMDL
