MODEL 1
REMARK VINA RESULT:      -5.2      0.000      0.000
REMARK  1 active torsions:
REMARK  status: ('A' for Active; 'I' for Inactive)
REMARK    1  A    between atoms: C_6  and  C_1 
ROOT
ATOM      1  C   UNL d   1     -41.858-122.555 -54.182  0.00  0.00     0.168 A 
ATOM      2  C   UNL d   1     -41.619-122.545 -53.394  0.00  0.00     0.045 A 
ATOM      3  N   UNL d   1     -41.872-123.338 -54.441  0.00  0.00    -0.142 NA
ATOM      4  N   UNL d   1     -41.639-123.817 -53.808  0.00  0.00    -0.148 NA
ATOM      5  C   UNL d   1     -41.482-123.318 -53.154  0.00  0.00     0.105 A 
ATOM      6  C   UNL d   1     -41.506-121.929 -52.855  0.00  0.00     0.003 A 
ATOM      7  C   UNL d   1     -41.234-123.492 -52.386  0.00  0.00     0.021 A 
ATOM      8  C   UNL d   1     -41.259-122.090 -52.087  0.00  0.00     0.000 A 
ATOM      9  C   UNL d   1     -41.122-122.873 -51.852  0.00  0.00     0.002 A 
ATOM     10  C   UNL d   1     -41.146-121.474 -51.548  0.00  0.00     0.000 C 
ENDROOT
BRANCH   1  11
ATOM     11  C   UNL d   1     -42.051-121.895 -54.636  0.00  0.00     0.231 C 
ATOM     12  O   UNL d   1     -42.812-121.571 -54.599  0.00  0.00    -0.643 OA
ATOM     13  O   UNL d   1     -41.484-121.552 -55.130  0.00  0.00    -0.643 OA
ENDBRANCH   1  11
TORSDOF 1
ENDMDL
MODEL 2
REMARK VINA RESULT:      -5.1      1.418      2.428
REMARK  1 active torsions:
REMARK  status: ('A' for Active; 'I' for Inactive)
REMARK    1  A    between atoms: C_6  and  C_1 
ROOT
ATOM      1  C   UNL d   1     -41.507-122.618 -52.609  0.00  0.00     0.168 A 
ATOM      2  C   UNL d   1     -41.618-122.630 -53.425  0.00  0.00     0.045 A 
ATOM      3  N   UNL d   1     -41.201-123.348 -52.376  0.00  0.00    -0.142 NA
ATOM      4  N   UNL d   1     -41.123-123.817 -53.054  0.00  0.00    -0.148 NA
ATOM      5  C   UNL d   1     -41.385-123.364 -53.709  0.00  0.00     0.105 A 
ATOM      6  C   UNL d   1     -41.905-122.065 -53.956  0.00  0.00     0.003 A 
ATOM      7  C   UNL d   1     -41.430-123.549 -54.512  0.00  0.00     0.021 A 
ATOM      8  C   UNL d   1     -41.955-122.238 -54.759  0.00  0.00     0.000 A 
ATOM      9  C   UNL d   1     -41.717-122.982 -55.037  0.00  0.00     0.002 A 
ATOM     10  C   UNL d   1     -42.241-121.673 -55.289  0.00  0.00     0.000 C 
ENDROOT
BRANCH   1  11
ATOM     11  C   UNL d   1     -41.672-121.984 -52.110  0.00  0.00     0.231 C 
ATOM     12  O   UNL d   1     -41.123-121.371 -52.017  0.00  0.00    -0.643 OA
ATOM     13  O   UNL d   1     -42.388-121.958 -51.698  0.00  0.00    -0.643 OA
ENDBRANCH   1  11
TORSDOF 1
ENDMDL
MODEL 3
REMARK VINA RESULT:      -4.1      3.205      3.808
REMARK  1 active torsions:
REMARK  status: ('A' for Active; 'I' for Inactive)
REMARK    1  A    between atoms: C_6  and  C_1 
ROOT
ATOM      1  C   UNL d   1     -42.220-122.421 -50.657  0.00  0.00     0.168 A 
ATOM      2  C   UNL d   1     -42.196-122.773 -49.912  0.00  0.00     0.045 A 
ATOM      3  N   UNL d   1     -42.984-122.141 -50.789  0.00  0.00    -0.142 NA
ATOM      4  N   UNL d   1     -43.438-122.321 -50.120  0.00  0.00    -0.148 NA
ATOM      5  C   UNL d   1     -42.941-122.716 -49.574  0.00  0.00     0.105 A 
ATOM      6  C   UNL d   1     -41.588-123.142 -49.491  0.00  0.00     0.003 A 
ATOM      7  C   UNL d   1     -43.096-123.020 -48.822  0.00  0.00     0.021 A 
ATOM      8  C   UNL d   1     -41.730-123.448 -48.741  0.00  0.00     0.000 A 
ATOM      9  C   UNL d   1     -42.486-123.387 -48.405  0.00  0.00     0.002 A 
ATOM     10  C   UNL d   1     -41.123-123.817 -48.320  0.00  0.00     0.000 C 
ENDROOT
BRANCH   1  11
ATOM     11  C   UNL d   1     -41.587-122.359 -51.181  0.00  0.00     0.231 C 
ATOM     12  O   UNL d   1     -41.123-121.674 -51.197  0.00  0.00    -0.643 OA
ATOM     13  O   UNL d   1     -41.414-122.983 -51.695  0.00  0.00    -0.643 OA
ENDBRANCH   1  11
TORSDOF 1
ENDMDL
MODEL 4
REMARK VINA RESULT:      -3.5      2.704      3.450
REMARK  1 active torsions:
REMARK  status: ('A' for Active; 'I' for Inactive)
REMARK    1  A    between atoms: C_6  and  C_1 
ROOT
ATOM      1  C   UNL d   1     -41.875-122.621 -50.528  0.00  0.00     0.168 A 
ATOM      2  C   UNL d   1     -41.640-122.669 -51.316  0.00  0.00     0.045 A 
ATOM      3  N   UNL d   1     -41.822-121.835 -50.287  0.00  0.00    -0.142 NA
ATOM      4  N   UNL d   1     -41.552-121.390 -50.931  0.00  0.00    -0.148 NA
ATOM      5  C   UNL d   1     -41.439-121.916 -51.574  0.00  0.00     0.105 A 
ATOM      6  C   UNL d   1     -41.581-123.305 -51.841  0.00  0.00     0.003 A 
ATOM      7  C   UNL d   1     -41.180-121.781 -52.346  0.00  0.00     0.021 A 
ATOM      8  C   UNL d   1     -41.324-123.182 -52.613  0.00  0.00     0.000 A 
ATOM      9  C   UNL d   1     -41.123-122.418 -52.866  0.00  0.00     0.002 A 
ATOM     10  C   UNL d   1     -41.265-123.817 -53.138  0.00  0.00     0.000 C 
ENDROOT
BRANCH   1  11
ATOM     11  C   UNL d   1     -42.120-123.253 -50.059  0.00  0.00     0.231 C 
ATOM     12  O   UNL d   1     -42.915-123.486 -50.056  0.00  0.00    -0.643 OA
ATOM     13  O   UNL d   1     -41.573-123.657 -49.589  0.00  0.00    -0.643 OA
ENDBRANCH   1  11
TORSDOF 1
ENDMDL
MODEL 5
REMARK VINA RESULT:      -3.0      1.359      1.815
REMARK  1 active torsions:
REMARK  status: ('A' for Active; 'I' for Inactive)
REMARK    1  A    between atoms: C_6  and  C_1 
ROOT
ATOM      1  C   UNL d   1     -42.119-121.668 -54.871  0.00  0.00     0.168 A 
ATOM      2  C   UNL d   1     -41.887-122.055 -54.181  0.00  0.00     0.045 A 
ATOM      3  N   UNL d   1     -42.359-120.905 -54.673  0.00  0.00    -0.142 NA
ATOM      4  N   UNL d   1     -42.276-120.817 -53.854  0.00  0.00    -0.148 NA
ATOM      5  C   UNL d   1     -41.980-121.539 -53.550  0.00  0.00     0.105 A 
ATOM      6  C   UNL d   1     -41.600-122.818 -54.042  0.00  0.00     0.003 A 
ATOM      7  C   UNL d   1     -41.792-121.766 -52.778  0.00  0.00     0.021 A 
ATOM      8  C   UNL d   1     -41.410-123.055 -53.277  0.00  0.00     0.000 A 
ATOM      9  C   UNL d   1     -41.506-122.528 -52.644  0.00  0.00     0.002 A 
ATOM     10  C   UNL d   1     -41.123-123.817 -53.137  0.00  0.00     0.000 C 
ENDROOT
BRANCH   1  11
ATOM     11  C   UNL d   1     -42.112-121.990 -55.629  0.00  0.00     0.231 C 
ATOM     12  O   UNL d   1     -42.811-122.278 -55.967  0.00  0.00    -0.643 OA
ATOM     13  O   UNL d   1     -41.406-122.026 -56.057  0.00  0.00    -0.643 OA
ENDBRANCH   1  11
TORSDOF 1
ENDMDL
MODEL 6
REMARK VINA RESULT:      -2.6      1.727      2.803
REMARK  1 active torsions:
REMARK  status: ('A' for Active; 'I' for Inactive)
REMARK    1  A    between atoms: C_6  and  C_1 
ROOT
ATOM      1  C   UNL d   1     -42.016-121.961 -53.142  0.00  0.00     0.168 A 
ATOM      2  C   UNL d   1     -41.936-122.264 -53.904  0.00  0.00     0.045 A 
ATOM      3  N   UNL d   1     -42.503-121.296 -53.176  0.00  0.00    -0.142 NA
ATOM      4  N   UNL d   1     -42.726-121.185 -53.966  0.00  0.00    -0.148 NA
ATOM      5  C   UNL d   1     -42.369-121.793 -54.418  0.00  0.00     0.105 A 
ATOM      6  C   UNL d   1     -41.521-122.913 -54.203  0.00  0.00     0.003 A 
ATOM      7  C   UNL d   1     -42.399-121.955 -55.227  0.00  0.00     0.021 A 
ATOM      8  C   UNL d   1     -41.544-123.084 -55.008  0.00  0.00     0.000 A 
ATOM      9  C   UNL d   1     -41.983-122.604 -55.521  0.00  0.00     0.002 A 
ATOM     10  C   UNL d   1     -41.129-123.734 -55.307  0.00  0.00     0.000 C 
ENDROOT
BRANCH   1  11
ATOM     11  C   UNL d   1     -41.670-122.270 -52.462  0.00  0.00     0.231 C 
ATOM     12  O   UNL d   1     -41.867-123.031 -52.201  0.00  0.00    -0.643 OA
ATOM     13  O   UNL d   1     -41.123-121.821 -52.035  0.00  0.00    -0.643 OA
ENDBRANCH   1  11
TORSDOF 1
ENDMDL
