MODEL 1
REMARK VINA RESULT:     -10.2      0.000      0.000
REMARK  5 active torsions:
REMARK  status: ('A' for Active; 'I' for Inactive)
REMARK    1  A    between atoms: N_7  and  C_1 
REMARK    2  A    between atoms: C_14  and  N_4 
REMARK    3  A    between atoms: S_5  and  N_8 
REMARK    4  A    between atoms: C_13  and  S_5 
REMARK       I    between atoms: C_9  and  N_7 
REMARK    5  A    between atoms: C_15  and  C_9 
ROOT
ATOM      1  N   UNL d   1      51.174  33.615  53.367  0.00  0.00    -0.202 NA
ATOM      2  C   UNL d   1      51.060  34.130  52.722  0.00  0.00     0.279 C 
ATOM      3  O   UNL d   1      51.698  34.331  52.228  0.00  0.00    -0.265 OA
ENDROOT
BRANCH   2   4
ATOM      4  C   UNL d   1      50.314  34.444  52.568  0.00  0.00     0.061 A 
ATOM      5  C   UNL d   1      49.890  34.845  53.152  0.00  0.00     0.025 A 
ATOM      6  C   UNL d   1      49.144  35.156  52.989  0.00  0.00     0.092 A 
ATOM      7  N   UNL d   1      48.816  35.069  52.241  0.00  0.00    -0.229 N 
ATOM      8  C   UNL d   1      49.234  34.667  51.642  0.00  0.00     0.092 A 
ATOM      9  C   UNL d   1      49.976  34.357  51.804  0.00  0.00     0.025 A 
BRANCH   7  10
ATOM     10  S   UNL d   1      48.058  35.386  52.080  0.00  0.00     0.271 S 
ATOM     11  O   UNL d   1      48.138  35.173  51.284  0.00  0.00    -0.200 OA
ATOM     12  O   UNL d   1      47.993  35.595  52.883  0.00  0.00    -0.200 OA
BRANCH  10  13
ATOM     13  C   UNL d   1      47.312  35.701  51.929  0.00  0.00     0.104 A 
ATOM     14  C   UNL d   1      46.818  35.346  51.371  0.00  0.00     0.013 A 
ATOM     15  C   UNL d   1      46.071  35.660  51.219  0.00  0.00     0.001 A 
ATOM     16  C   UNL d   1      45.815  36.334  51.628  0.00  0.00     0.000 A 
ATOM     17  C   UNL d   1      46.310  36.691  52.189  0.00  0.00     0.001 A 
ATOM     18  C   UNL d   1      47.063  36.371  52.338  0.00  0.00     0.013 A 
ENDBRANCH  10  13
ENDBRANCH   7  10
ENDBRANCH   2   4
BRANCH   1  19
ATOM     19  C   UNL d   1      51.922  33.303  53.517  0.00  0.00     0.160 A 
ATOM     20  C   UNL d   1      52.516  33.666  53.956  0.00  0.00     0.298 A 
ATOM     21  N   UNL d   1      53.166  33.163  53.965  0.00  0.00    -0.209 N 
ATOM     22  O   UNL d   1      52.465  34.401  54.319  0.00  0.00    -0.263 OA
ATOM     23  N   UNL d   1      52.974  32.493  53.533  0.00  0.00    -0.238 N 
ATOM     24  C   UNL d   1      52.205  32.577  53.255  0.00  0.00     0.104 A 
ATOM     25  C   UNL d   1      53.467  31.848  53.401  0.00  0.00     0.120 C 
ATOM     26  C   UNL d   1      51.791  32.032  52.796  0.00  0.00     0.022 C 
BRANCH  21  27
ATOM     27  C   UNL d   1      53.883  33.312  54.343  0.00  0.00     0.085 A 
ATOM     28  C   UNL d   1      53.936  33.200  55.155  0.00  0.00     0.019 A 
ATOM     29  C   UNL d   1      54.651  33.346  55.540  0.00  0.00     0.002 A 
ATOM     30  C   UNL d   1      55.308  33.605  55.106  0.00  0.00     0.000 A 
ATOM     31  C   UNL d   1      55.247  33.716  54.288  0.00  0.00     0.002 A 
ATOM     32  C   UNL d   1      54.534  33.569  53.908  0.00  0.00     0.019 A 
ENDBRANCH  21  27
ENDBRANCH   1  19
TORSDOF 5
ENDMDL
MODEL 2
REMARK VINA RESULT:      -8.3      1.391      6.517
REMARK  5 active torsions:
REMARK  status: ('A' for Active; 'I' for Inactive)
REMARK    1  A    between atoms: N_7  and  C_1 
REMARK    2  A    between atoms: C_14  and  N_4 
REMARK    3  A    between atoms: S_5  and  N_8 
REMARK    4  A    between atoms: C_13  and  S_5 
REMARK       I    between atoms: C_9  and  N_7 
REMARK    5  A    between atoms: C_15  and  C_9 
ROOT
ATOM      1  N   UNL d   1      49.601  35.024  52.500  0.00  0.00    -0.202 NA
ATOM      2  C   UNL d   1      49.872  34.247  52.634  0.00  0.00     0.279 C 
ATOM      3  O   UNL d   1      49.380  33.597  52.474  0.00  0.00    -0.265 OA
ENDROOT
BRANCH   2   4
ATOM      4  C   UNL d   1      50.631  34.117  52.928  0.00  0.00     0.061 A 
ATOM      5  C   UNL d   1      51.228  34.681  52.835  0.00  0.00     0.025 A 
ATOM      6  C   UNL d   1      51.984  34.542  53.131  0.00  0.00     0.092 A 
ATOM      7  N   UNL d   1      52.151  33.840  53.523  0.00  0.00    -0.229 N 
ATOM      8  C   UNL d   1      51.558  33.262  53.623  0.00  0.00     0.092 A 
ATOM      9  C   UNL d   1      50.805  33.400  53.328  0.00  0.00     0.025 A 
BRANCH   7  10
ATOM     10  S   UNL d   1      52.921  33.703  53.822  0.00  0.00     0.271 S 
ATOM     11  O   UNL d   1      52.883  32.917  53.563  0.00  0.00    -0.200 OA
ATOM     12  O   UNL d   1      52.944  34.495  54.077  0.00  0.00    -0.200 OA
BRANCH  10  13
ATOM     13  C   UNL d   1      53.679  33.576  54.120  0.00  0.00     0.104 A 
ATOM     14  C   UNL d   1      53.892  33.881  54.857  0.00  0.00     0.013 A 
ATOM     15  C   UNL d   1      54.649  33.755  55.155  0.00  0.00     0.001 A 
ATOM     16  C   UNL d   1      55.199  33.319  54.713  0.00  0.00     0.000 A 
ATOM     17  C   UNL d   1      54.988  33.012  53.973  0.00  0.00     0.001 A 
ATOM     18  C   UNL d   1      54.221  33.142  53.676  0.00  0.00     0.013 A 
ENDBRANCH  10  13
ENDBRANCH   7  10
ENDBRANCH   2   4
BRANCH   1  19
ATOM     19  C   UNL d   1      48.841  35.149  52.207  0.00  0.00     0.160 A 
ATOM     20  C   UNL d   1      48.194  35.414  52.642  0.00  0.00     0.298 A 
ATOM     21  N   UNL d   1      47.550  35.460  52.133  0.00  0.00    -0.209 N 
ATOM     22  O   UNL d   1      48.196  35.598  53.442  0.00  0.00    -0.263 OA
ATOM     23  N   UNL d   1      47.799  35.224  51.388  0.00  0.00    -0.238 N 
ATOM     24  C   UNL d   1      48.597  35.032  51.431  0.00  0.00     0.104 A 
ATOM     25  C   UNL d   1      47.329  35.188  50.713  0.00  0.00     0.120 C 
ATOM     26  C   UNL d   1      49.068  34.768  50.808  0.00  0.00     0.022 C 
BRANCH  21  27
ATOM     27  C   UNL d   1      46.790  35.701  52.342  0.00  0.00     0.085 A 
ATOM     28  C   UNL d   1      46.293  35.168  52.722  0.00  0.00     0.019 A 
ATOM     29  C   UNL d   1      45.531  35.403  52.933  0.00  0.00     0.002 A 
ATOM     30  C   UNL d   1      45.273  36.172  52.760  0.00  0.00     0.000 A 
ATOM     31  C   UNL d   1      45.780  36.703  52.377  0.00  0.00     0.002 A 
ATOM     32  C   UNL d   1      46.538  36.466  52.168  0.00  0.00     0.019 A 
ENDBRANCH  21  27
ENDBRANCH   1  19
TORSDOF 5
ENDMDL
