MODEL 1
REMARK VINA RESULT:      76.2      0.000      0.000
REMARK  6 active torsions:
REMARK  status: ('A' for Active; 'I' for Inactive)
REMARK    1  A    between atoms: C_9  and  N_1 
REMARK    2  A    between atoms: S_11  and  C_6 
REMARK    3  A    between atoms: C_24  and  S_11 
REMARK    4  A    between atoms: C_13  and  C_24 
REMARK       I    between atoms: N_18  and  C_13 
REMARK    5  A    between atoms: C_26  and  N_18 
REMARK    6  A    between atoms: C_25  and  C_26 
ROOT
ATOM      1  N   UNL d   1     -55.226-100.478 -43.212  0.00  0.00    -0.212 N 
ATOM      2  C   UNL d   1     -55.348-101.276 -43.061  0.00  0.00     0.169 A 
ATOM      3  N   UNL d   1     -54.840-100.147 -42.582  0.00  0.00    -0.162 NA
ATOM      4  C   UNL d   1     -55.030-101.441 -42.318  0.00  0.00     0.081 A 
ATOM      5  C   UNL d   1     -54.714-100.742 -42.019  0.00  0.00     0.126 A 
ATOM      6  C   UNL d   1     -55.069-102.202 -42.012  0.00  0.00     0.117 A 
ATOM      7  N   UNL d   1     -55.706-101.874 -43.498  0.00  0.00    -0.205 NA
ATOM      8  N   UNL d   1     -55.428-102.804 -42.449  0.00  0.00    -0.217 NA
ATOM      9  C   UNL d   1     -55.746-102.639 -43.192  0.00  0.00     0.201 A 
ENDROOT
BRANCH   6  10
ATOM     10  S   UNL d   1     -54.750-102.367 -41.269  0.00  0.00    -0.062 SA
BRANCH  10  11
ATOM     11  C   UNL d   1     -55.080-102.034 -40.601  0.00  0.00     0.099 C 
BRANCH  11  12
ATOM     12  C   UNL d   1     -55.738-102.384 -40.248  0.00  0.00     0.286 C 
ATOM     13  N   UNL d   1     -55.906-102.238 -39.452  0.00  0.00    -0.206 NA
ATOM     14  O   UNL d   1     -56.229-102.880 -40.689  0.00  0.00    -0.265 OA
BRANCH  13  15
ATOM     15  C   UNL d   1     -55.415-101.742 -39.011  0.00  0.00     0.102 C 
BRANCH  15  16
ATOM     16  C   UNL d   1     -55.259-101.915 -38.219  0.00  0.00     0.021 A 
ATOM     17  C   UNL d   1     -55.134-101.303 -37.680  0.00  0.00     0.028 A 
ATOM     18  C   UNL d   1     -54.978-101.476 -36.889  0.00  0.00     0.119 A 
ATOM     19  O   UNL d   1     -54.833-100.984 -36.238  0.00  0.00    -0.300 OA
ATOM     20  C   UNL d   1     -54.947-102.261 -36.635  0.00  0.00     0.119 A 
ATOM     21  C   UNL d   1     -54.715-101.468 -35.591  0.00  0.00     0.304 A 
ATOM     22  O   UNL d   1     -54.783-102.248 -35.825  0.00  0.00    -0.300 OA
ATOM     23  C   UNL d   1     -55.072-102.873 -37.174  0.00  0.00     0.026 A 
ATOM     24  C   UNL d   1     -55.228-102.701 -37.966  0.00  0.00     0.004 A 
ENDBRANCH  15  16
ENDBRANCH  13  15
ENDBRANCH  11  12
ENDBRANCH  10  11
ENDBRANCH   6  10
BRANCH   1  25
ATOM     25  C   UNL d   1     -55.489-100.146 -43.927  0.00  0.00     0.085 A 
ATOM     26  C   UNL d   1     -55.873 -99.419 -43.924  0.00  0.00     0.020 A 
ATOM     27  C   UNL d   1     -56.133 -99.089 -44.625  0.00  0.00     0.013 A 
ATOM     28  C   UNL d   1     -56.009 -99.491 -45.345  0.00  0.00     0.058 A 
ATOM     29  C   UNL d   1     -55.621-100.221 -45.334  0.00  0.00     0.013 A 
ATOM     30 CL   UNL d   1     -56.272 -99.161 -46.069  0.00  0.00    -0.082 Cl
ATOM     31  C   UNL d   1     -55.365-100.543 -44.630  0.00  0.00     0.020 A 
ENDBRANCH   1  25
TORSDOF 6
ENDMDL
