MODEL 1
REMARK VINA RESULT:      -8.1      0.000      0.000
REMARK  8 active torsions:
REMARK  status: ('A' for Active; 'I' for Inactive)
REMARK    1  A    between atoms: N_4  and  C_1 
REMARK    2  A    between atoms: C_2  and  O_12 
REMARK    3  A    between atoms: C_8  and  C_2 
REMARK       I    between atoms: C_10  and  N_4 
REMARK    4  A    between atoms: O_12  and  C_5 
REMARK    5  A    between atoms: S_20  and  C_6 
REMARK    6  A    between atoms: C_14  and  C_10 
REMARK    7  A    between atoms: C_16  and  C_26 
REMARK    8  A    between atoms: C_26  and  S_20 
ROOT
ATOM      1  C   UNL d   1      51.623  33.655  53.049  0.00  0.00     0.167 A 
ATOM      2  C   UNL d   1      50.908  33.260  53.138  0.00  0.00     0.222 A 
ATOM      3  C   UNL d   1      50.281  33.471  52.637  0.00  0.00     0.069 A 
ATOM      4  C   UNL d   1      51.717  34.243  52.479  0.00  0.00     0.151 A 
ATOM      5  C   UNL d   1      50.375  34.059  52.068  0.00  0.00     0.110 A 
ATOM      6  O   UNL d   1      51.097  34.443  51.993  0.00  0.00    -0.302 OA
ATOM      7  O   UNL d   1      50.815  32.677  53.701  0.00  0.00    -0.284 OA
ENDROOT
BRANCH   5   8
ATOM      8  C   UNL d   1      49.748  34.261  51.576  0.00  0.00     0.062 C 
BRANCH   8   9
ATOM      9  S   UNL d   1      49.206  34.833  51.820  0.00  0.00    -0.057 SA
BRANCH   9  10
ATOM     10  C   UNL d   1      48.323  35.169  51.802  0.00  0.00     0.166 A 
ATOM     11  S   UNL d   1      47.767  35.630  52.197  0.00  0.00    -0.006 SA
ATOM     12  C   UNL d   1      47.070  35.633  51.754  0.00  0.00     0.269 A 
ATOM     13  N   UNL d   1      47.199  35.169  51.081  0.00  0.00    -0.107 NA
ATOM     14  N   UNL d   1      47.972  34.883  51.110  0.00  0.00    -0.132 NA
BRANCH  12  15
ATOM     15  N   UNL d   1      46.298  35.919  51.725  0.00  0.00    -0.337 NA
ATOM     16  C   UNL d   1      45.525  36.205  51.696  0.00  0.00     0.330 C 
ATOM     17  O   UNL d   1      45.669  36.640  52.382  0.00  0.00    -0.251 OA
BRANCH  16  18
ATOM     18  C   UNL d   1      44.878  36.100  51.192  0.00  0.00     0.070 A 
ATOM     19  C   UNL d   1      44.323  36.418  50.672  0.00  0.00     0.006 A 
ATOM     20  C   UNL d   1      44.317  35.596  50.841  0.00  0.00     0.006 A 
ENDBRANCH  16  18
ENDBRANCH  12  15
ENDBRANCH   9  10
ENDBRANCH   8   9
ENDBRANCH   5   8
BRANCH   1  21
ATOM     21  O   UNL d   1      52.258  33.454  53.543  0.00  0.00    -0.268 OA
BRANCH  21  22
ATOM     22  C   UNL d   1      52.923  33.946  53.582  0.00  0.00     0.305 C 
ATOM     23  O   UNL d   1      52.945  34.649  53.151  0.00  0.00    -0.259 OA
BRANCH  22  24
ATOM     24  C   UNL d   1      53.574  33.730  54.059  0.00  0.00     0.118 A 
ATOM     25  C   UNL d   1      54.124  33.165  53.797  0.00  0.00     0.147 A 
ATOM     26  F   UNL d   1      54.023  32.811  53.046  0.00  0.00    -0.204 F 
ATOM     27  C   UNL d   1      54.762  32.948  54.254  0.00  0.00     0.030 A 
ATOM     28  C   UNL d   1      54.862  33.297  54.994  0.00  0.00     0.005 A 
ATOM     29  C   UNL d   1      54.325  33.865  55.281  0.00  0.00     0.030 A 
ATOM     30  C   UNL d   1      53.674  34.079  54.800  0.00  0.00     0.147 A 
ATOM     31  F   UNL d   1      53.123  34.646  55.066  0.00  0.00    -0.204 F 
ENDBRANCH  22  24
ENDBRANCH  21  22
ENDBRANCH   1  21
TORSDOF 8
ENDMDL
MODEL 2
REMARK VINA RESULT:      -8.0      1.947      2.443
REMARK  8 active torsions:
REMARK  status: ('A' for Active; 'I' for Inactive)
REMARK    1  A    between atoms: N_4  and  C_1 
REMARK    2  A    between atoms: C_2  and  O_12 
REMARK    3  A    between atoms: C_8  and  C_2 
REMARK       I    between atoms: C_10  and  N_4 
REMARK    4  A    between atoms: O_12  and  C_5 
REMARK    5  A    between atoms: S_20  and  C_6 
REMARK    6  A    between atoms: C_14  and  C_10 
REMARK    7  A    between atoms: C_16  and  C_26 
REMARK    8  A    between atoms: C_26  and  S_20 
ROOT
ATOM      1  C   UNL d   1      52.471  32.765  53.302  0.00  0.00     0.167 A 
ATOM      2  C   UNL d   1      52.430  33.397  53.826  0.00  0.00     0.222 A 
ATOM      3  C   UNL d   1      51.936  34.035  53.631  0.00  0.00     0.069 A 
ATOM      4  C   UNL d   1      52.034  32.763  52.603  0.00  0.00     0.151 A 
ATOM      5  C   UNL d   1      51.499  34.032  52.932  0.00  0.00     0.110 A 
ATOM      6  O   UNL d   1      51.552  33.392  52.420  0.00  0.00    -0.302 OA
ATOM      7  O   UNL d   1      52.862  33.399  54.518  0.00  0.00    -0.284 OA
ENDROOT
BRANCH   5   8
ATOM      8  C   UNL d   1      51.012  34.668  52.748  0.00  0.00     0.062 C 
BRANCH   8   9
ATOM      9  S   UNL d   1      50.214  34.537  52.586  0.00  0.00    -0.057 SA
BRANCH   9  10
ATOM     10  C   UNL d   1      49.348  34.891  52.459  0.00  0.00     0.166 A 
ATOM     11  S   UNL d   1      48.733  35.314  52.808  0.00  0.00    -0.006 SA
ATOM     12  C   UNL d   1      48.121  35.384  52.257  0.00  0.00     0.269 A 
ATOM     13  N   UNL d   1      48.362  35.000  51.564  0.00  0.00    -0.107 NA
ATOM     14  N   UNL d   1      49.119  34.696  51.689  0.00  0.00    -0.132 NA
BRANCH  12  15
ATOM     15  N   UNL d   1      47.365  35.688  52.133  0.00  0.00    -0.337 NA
ATOM     16  C   UNL d   1      46.609  35.992  52.008  0.00  0.00     0.330 C 
ATOM     17  O   UNL d   1      46.945  36.709  51.778  0.00  0.00    -0.251 OA
BRANCH  16  18
ATOM     18  C   UNL d   1      45.839  35.700  52.083  0.00  0.00     0.070 A 
ATOM     19  C   UNL d   1      45.162  35.384  51.735  0.00  0.00     0.006 A 
ATOM     20  C   UNL d   1      45.187  35.513  52.564  0.00  0.00     0.006 A 
ENDBRANCH  16  18
ENDBRANCH  12  15
ENDBRANCH   9  10
ENDBRANCH   8   9
ENDBRANCH   5   8
BRANCH   1  21
ATOM     21  O   UNL d   1      52.961  32.121  53.485  0.00  0.00    -0.268 OA
BRANCH  21  22
ATOM     22  C   UNL d   1      52.939  31.440  53.014  0.00  0.00     0.305 C 
ATOM     23  O   UNL d   1      52.737  31.492  52.217  0.00  0.00    -0.259 OA
BRANCH  22  24
ATOM     24  C   UNL d   1      53.123  30.697  53.350  0.00  0.00     0.118 A 
ATOM     25  C   UNL d   1      52.529  30.128  53.474  0.00  0.00     0.147 A 
ATOM     26  F   UNL d   1      51.741  30.305  53.259  0.00  0.00    -0.204 F 
ATOM     27  C   UNL d   1      52.698  29.401  53.800  0.00  0.00     0.030 A 
ATOM     28  C   UNL d   1      53.475  29.227  54.012  0.00  0.00     0.005 A 
ATOM     29  C   UNL d   1      54.088  29.780  53.899  0.00  0.00     0.030 A 
ATOM     30  C   UNL d   1      53.901  30.523  53.562  0.00  0.00     0.147 A 
ATOM     31  F   UNL d   1      54.498  31.092  53.439  0.00  0.00    -0.204 F 
ENDBRANCH  22  24
ENDBRANCH  21  22
ENDBRANCH   1  21
TORSDOF 8
ENDMDL
MODEL 3
REMARK VINA RESULT:      -8.0      2.881      7.219
REMARK  8 active torsions:
REMARK  status: ('A' for Active; 'I' for Inactive)
REMARK    1  A    between atoms: N_4  and  C_1 
REMARK    2  A    between atoms: C_2  and  O_12 
REMARK    3  A    between atoms: C_8  and  C_2 
REMARK       I    between atoms: C_10  and  N_4 
REMARK    4  A    between atoms: O_12  and  C_5 
REMARK    5  A    between atoms: S_20  and  C_6 
REMARK    6  A    between atoms: C_14  and  C_10 
REMARK    7  A    between atoms: C_16  and  C_26 
REMARK    8  A    between atoms: C_26  and  S_20 
ROOT
ATOM      1  C   UNL d   1      47.831  35.221  51.876  0.00  0.00     0.167 A 
ATOM      2  C   UNL d   1      48.036  34.749  51.237  0.00  0.00     0.222 A 
ATOM      3  C   UNL d   1      48.827  34.504  51.170  0.00  0.00     0.069 A 
ATOM      4  C   UNL d   1      48.391  35.447  52.437  0.00  0.00     0.151 A 
ATOM      5  C   UNL d   1      49.387  34.729  51.731  0.00  0.00     0.110 A 
ATOM      6  O   UNL d   1      49.163  35.202  52.364  0.00  0.00    -0.302 OA
ATOM      7  O   UNL d   1      47.482  34.525  50.682  0.00  0.00    -0.284 OA
ENDROOT
BRANCH   5   8
ATOM      8  C   UNL d   1      50.167  34.482  51.656  0.00  0.00     0.062 C 
BRANCH   8   9
ATOM      9  S   UNL d   1      50.597  34.283  52.331  0.00  0.00    -0.057 SA
BRANCH   9  10
ATOM     10  C   UNL d   1      51.417  34.010  52.714  0.00  0.00     0.166 A 
ATOM     11  S   UNL d   1      52.226  34.159  52.755  0.00  0.00    -0.006 SA
ATOM     12  C   UNL d   1      52.565  33.608  53.268  0.00  0.00     0.269 A 
ATOM     13  N   UNL d   1      51.959  33.117  53.546  0.00  0.00    -0.107 NA
ATOM     14  N   UNL d   1      51.250  33.365  53.204  0.00  0.00    -0.132 NA
BRANCH  12  15
ATOM     15  N   UNL d   1      53.273  33.360  53.610  0.00  0.00    -0.337 NA
ATOM     16  C   UNL d   1      53.982  33.111  53.952  0.00  0.00     0.330 C 
ATOM     17  O   UNL d   1      54.160  32.699  53.260  0.00  0.00    -0.251 OA
BRANCH  16  18
ATOM     18  C   UNL d   1      54.354  33.228  54.681  0.00  0.00     0.070 A 
ATOM     19  C   UNL d   1      54.447  33.019  55.473  0.00  0.00     0.006 A 
ATOM     20  C   UNL d   1      54.907  33.640  55.146  0.00  0.00     0.006 A 
ENDBRANCH  16  18
ENDBRANCH  12  15
ENDBRANCH   9  10
ENDBRANCH   8   9
ENDBRANCH   5   8
BRANCH   1  21
ATOM     21  O   UNL d   1      47.044  35.473  51.955  0.00  0.00    -0.268 OA
BRANCH  21  22
ATOM     22  C   UNL d   1      46.862  36.105  52.458  0.00  0.00     0.305 C 
ATOM     23  O   UNL d   1      47.445  36.646  52.674  0.00  0.00    -0.259 OA
BRANCH  22  24
ATOM     24  C   UNL d   1      46.083  36.193  52.749  0.00  0.00     0.118 A 
ATOM     25  C   UNL d   1      45.894  35.981  53.529  0.00  0.00     0.147 A 
ATOM     26  F   UNL d   1      46.491  35.675  54.028  0.00  0.00    -0.204 F 
ATOM     27  C   UNL d   1      45.138  36.064  53.822  0.00  0.00     0.030 A 
ATOM     28  C   UNL d   1      44.549  36.365  53.331  0.00  0.00     0.005 A 
ATOM     29  C   UNL d   1      44.712  36.586  52.544  0.00  0.00     0.030 A 
ATOM     30  C   UNL d   1      45.493  36.495  52.257  0.00  0.00     0.147 A 
ATOM     31  F   UNL d   1      45.680  36.709  51.473  0.00  0.00    -0.204 F 
ENDBRANCH  22  24
ENDBRANCH  21  22
ENDBRANCH   1  21
TORSDOF 8
ENDMDL
MODEL 4
REMARK VINA RESULT:      -7.9      0.709      1.081
REMARK  8 active torsions:
REMARK  status: ('A' for Active; 'I' for Inactive)
REMARK    1  A    between atoms: N_4  and  C_1 
REMARK    2  A    between atoms: C_2  and  O_12 
REMARK    3  A    between atoms: C_8  and  C_2 
REMARK       I    between atoms: C_10  and  N_4 
REMARK    4  A    between atoms: O_12  and  C_5 
REMARK    5  A    between atoms: S_20  and  C_6 
REMARK    6  A    between atoms: C_14  and  C_10 
REMARK    7  A    between atoms: C_16  and  C_26 
REMARK    8  A    between atoms: C_26  and  S_20 
ROOT
ATOM      1  C   UNL d   1      51.857  34.082  52.955  0.00  0.00     0.167 A 
ATOM      2  C   UNL d   1      51.794  34.427  52.212  0.00  0.00     0.222 A 
ATOM      3  C   UNL d   1      51.055  34.408  51.835  0.00  0.00     0.069 A 
ATOM      4  C   UNL d   1      51.208  33.728  53.318  0.00  0.00     0.151 A 
ATOM      5  C   UNL d   1      50.405  34.054  52.197  0.00  0.00     0.110 A 
ATOM      6  O   UNL d   1      50.488  33.714  52.941  0.00  0.00    -0.302 OA
ATOM      7  O   UNL d   1      52.438  34.777  51.854  0.00  0.00    -0.284 OA
ENDROOT
BRANCH   5   8
ATOM      8  C   UNL d   1      49.678  34.041  51.816  0.00  0.00     0.062 C 
BRANCH   8   9
ATOM      9  S   UNL d   1      49.207  34.718  51.812  0.00  0.00    -0.057 SA
BRANCH   9  10
ATOM     10  C   UNL d   1      48.344  35.101  51.834  0.00  0.00     0.166 A 
ATOM     11  S   UNL d   1      47.831  35.589  52.255  0.00  0.00    -0.006 SA
ATOM     12  C   UNL d   1      47.117  35.633  51.844  0.00  0.00     0.269 A 
ATOM     13  N   UNL d   1      47.191  35.167  51.163  0.00  0.00    -0.107 NA
ATOM     14  N   UNL d   1      47.948  34.839  51.156  0.00  0.00    -0.132 NA
BRANCH  12  15
ATOM     15  N   UNL d   1      46.361  35.960  51.850  0.00  0.00    -0.337 NA
ATOM     16  C   UNL d   1      45.604  36.288  51.856  0.00  0.00     0.330 C 
ATOM     17  O   UNL d   1      45.775  36.674  51.147  0.00  0.00    -0.251 OA
BRANCH  16  18
ATOM     18  C   UNL d   1      44.950  36.246  52.360  0.00  0.00     0.070 A 
ATOM     19  C   UNL d   1      44.455  36.605  52.914  0.00  0.00     0.006 A 
ATOM     20  C   UNL d   1      44.315  35.812  52.676  0.00  0.00     0.006 A 
ENDBRANCH  16  18
ENDBRANCH  12  15
ENDBRANCH   9  10
ENDBRANCH   8   9
ENDBRANCH   5   8
BRANCH   1  21
ATOM     21  O   UNL d   1      52.591  34.094  53.343  0.00  0.00    -0.268 OA
BRANCH  21  22
ATOM     22  C   UNL d   1      52.779  33.499  53.888  0.00  0.00     0.305 C 
ATOM     23  O   UNL d   1      52.220  32.926  54.088  0.00  0.00    -0.259 OA
BRANCH  22  24
ATOM     24  C   UNL d   1      53.538  33.479  54.237  0.00  0.00     0.118 A 
ATOM     25  C   UNL d   1      54.139  33.001  53.920  0.00  0.00     0.147 A 
ATOM     26  F   UNL d   1      53.980  32.536  53.244  0.00  0.00    -0.204 F 
ATOM     27  C   UNL d   1      54.882  32.975  54.253  0.00  0.00     0.030 A 
ATOM     28  C   UNL d   1      55.039  33.433  54.920  0.00  0.00     0.005 A 
ATOM     29  C   UNL d   1      54.454  33.920  55.257  0.00  0.00     0.030 A 
ATOM     30  C   UNL d   1      53.695  33.938  54.905  0.00  0.00     0.147 A 
ATOM     31  F   UNL d   1      53.093  34.418  55.226  0.00  0.00    -0.204 F 
ENDBRANCH  22  24
ENDBRANCH  21  22
ENDBRANCH   1  21
TORSDOF 8
ENDMDL
MODEL 5
REMARK VINA RESULT:      -7.4      3.423      7.034
REMARK  8 active torsions:
REMARK  status: ('A' for Active; 'I' for Inactive)
REMARK    1  A    between atoms: N_4  and  C_1 
REMARK    2  A    between atoms: C_2  and  O_12 
REMARK    3  A    between atoms: C_8  and  C_2 
REMARK       I    between atoms: C_10  and  N_4 
REMARK    4  A    between atoms: O_12  and  C_5 
REMARK    5  A    between atoms: S_20  and  C_6 
REMARK    6  A    between atoms: C_14  and  C_10 
REMARK    7  A    between atoms: C_16  and  C_26 
REMARK    8  A    between atoms: C_26  and  S_20 
ROOT
ATOM      1  C   UNL d   1      49.229  34.910  52.579  0.00  0.00     0.167 A 
ATOM      2  C   UNL d   1      49.482  34.524  51.899  0.00  0.00     0.222 A 
ATOM      3  C   UNL d   1      50.273  34.274  51.865  0.00  0.00     0.069 A 
ATOM      4  C   UNL d   1      49.742  35.045  53.209  0.00  0.00     0.151 A 
ATOM      5  C   UNL d   1      50.786  34.409  52.495  0.00  0.00     0.110 A 
ATOM      6  O   UNL d   1      50.514  34.796  53.167  0.00  0.00    -0.302 OA
ATOM      7  O   UNL d   1      48.974  34.390  51.275  0.00  0.00    -0.284 OA
ENDROOT
BRANCH   5   8
ATOM      8  C   UNL d   1      51.567  34.157  52.452  0.00  0.00     0.062 C 
BRANCH   8   9
ATOM      9  S   UNL d   1      51.841  33.587  52.981  0.00  0.00    -0.057 SA
BRANCH   9  10
ATOM     10  C   UNL d   1      52.242  32.743  53.122  0.00  0.00     0.166 A 
ATOM     11  S   UNL d   1      52.255  31.953  52.888  0.00  0.00    -0.006 SA
ATOM     12  C   UNL d   1      52.824  31.558  53.338  0.00  0.00     0.269 A 
ATOM     13  N   UNL d   1      53.163  32.110  53.854  0.00  0.00    -0.107 NA
ATOM     14  N   UNL d   1      52.805  32.841  53.720  0.00  0.00    -0.132 NA
BRANCH  12  15
ATOM     15  N   UNL d   1      53.182  30.828  53.472  0.00  0.00    -0.337 NA
ATOM     16  C   UNL d   1      53.540  30.097  53.605  0.00  0.00     0.330 C 
ATOM     17  O   UNL d   1      54.019  30.222  52.945  0.00  0.00    -0.251 OA
BRANCH  16  18
ATOM     18  C   UNL d   1      53.455  29.495  54.165  0.00  0.00     0.070 A 
ATOM     19  C   UNL d   1      53.583  28.713  54.393  0.00  0.00     0.006 A 
ATOM     20  C   UNL d   1      53.179  29.240  54.907  0.00  0.00     0.006 A 
ENDBRANCH  16  18
ENDBRANCH  12  15
ENDBRANCH   9  10
ENDBRANCH   8   9
ENDBRANCH   5   8
BRANCH   1  21
ATOM     21  O   UNL d   1      48.440  35.166  52.626  0.00  0.00    -0.268 OA
BRANCH  21  22
ATOM     22  C   UNL d   1      48.254  35.851  53.052  0.00  0.00     0.305 C 
ATOM     23  O   UNL d   1      48.852  36.297  53.403  0.00  0.00    -0.259 OA
BRANCH  22  24
ATOM     24  C   UNL d   1      47.457  36.091  53.126  0.00  0.00     0.118 A 
ATOM     25  C   UNL d   1      47.036  35.956  53.829  0.00  0.00     0.147 A 
ATOM     26  F   UNL d   1      47.417  35.575  54.469  0.00  0.00    -0.204 F 
ATOM     27  C   UNL d   1      46.259  36.187  53.911  0.00  0.00     0.030 A 
ATOM     28  C   UNL d   1      45.884  36.562  53.281  0.00  0.00     0.005 A 
ATOM     29  C   UNL d   1      46.284  36.709  52.565  0.00  0.00     0.030 A 
ATOM     30  C   UNL d   1      47.082  36.467  52.494  0.00  0.00     0.147 A 
ATOM     31  F   UNL d   1      47.502  36.604  51.787  0.00  0.00    -0.204 F 
ENDBRANCH  22  24
ENDBRANCH  21  22
ENDBRANCH   1  21
TORSDOF 8
ENDMDL
MODEL 6
REMARK VINA RESULT:      -5.5     10.447     11.592
REMARK  8 active torsions:
REMARK  status: ('A' for Active; 'I' for Inactive)
REMARK    1  A    between atoms: N_4  and  C_1 
REMARK    2  A    between atoms: C_2  and  O_12 
REMARK    3  A    between atoms: C_8  and  C_2 
REMARK       I    between atoms: C_10  and  N_4 
REMARK    4  A    between atoms: O_12  and  C_5 
REMARK    5  A    between atoms: S_20  and  C_6 
REMARK    6  A    between atoms: C_14  and  C_10 
REMARK    7  A    between atoms: C_16  and  C_26 
REMARK    8  A    between atoms: C_26  and  S_20 
ROOT
ATOM      1  C   UNL d   1      44.668  27.421  58.108  0.00  0.00     0.167 A 
ATOM      2  C   UNL d   1      44.499  26.764  58.571  0.00  0.00     0.222 A 
ATOM      3  C   UNL d   1      44.523  26.016  58.210  0.00  0.00     0.069 A 
ATOM      4  C   UNL d   1      44.855  27.344  57.309  0.00  0.00     0.151 A 
ATOM      5  C   UNL d   1      44.711  25.939  57.412  0.00  0.00     0.110 A 
ATOM      6  O   UNL d   1      44.876  26.608  56.964  0.00  0.00    -0.302 OA
ATOM      7  O   UNL d   1      44.314  26.841  59.361  0.00  0.00    -0.284 OA
ENDROOT
BRANCH   5   8
ATOM      8  C   UNL d   1      44.732  25.195  57.064  0.00  0.00     0.062 C 
BRANCH   8   9
ATOM      9  S   UNL d   1      44.697  25.128  56.243  0.00  0.00    -0.057 SA
BRANCH   9  10
ATOM     10  C   UNL d   1      44.746  24.579  55.475  0.00  0.00     0.166 A 
ATOM     11  S   UNL d   1      44.575  24.525  54.671  0.00  0.00    -0.006 SA
ATOM     12  C   UNL d   1      44.826  23.786  54.401  0.00  0.00     0.269 A 
ATOM     13  N   UNL d   1      45.155  23.382  55.046  0.00  0.00    -0.107 NA
ATOM     14  N   UNL d   1      45.105  23.871  55.708  0.00  0.00    -0.132 NA
BRANCH  12  15
ATOM     15  N   UNL d   1      44.876  23.297  53.740  0.00  0.00    -0.337 NA
ATOM     16  C   UNL d   1      44.925  22.807  53.078  0.00  0.00     0.330 C 
ATOM     17  O   UNL d   1      44.458  22.249  53.466  0.00  0.00    -0.251 OA
BRANCH  16  18
ATOM     18  C   UNL d   1      45.290  22.856  52.337  0.00  0.00     0.070 A 
ATOM     19  C   UNL d   1      45.964  22.772  51.870  0.00  0.00     0.006 A 
ATOM     20  C   UNL d   1      45.242  23.026  51.525  0.00  0.00     0.006 A 
ENDBRANCH  16  18
ENDBRANCH  12  15
ENDBRANCH   9  10
ENDBRANCH   8   9
ENDBRANCH   5   8
BRANCH   1  21
ATOM     21  O   UNL d   1      44.647  28.175  58.456  0.00  0.00    -0.268 OA
BRANCH  21  22
ATOM     22  C   UNL d   1      45.136  28.776  58.165  0.00  0.00     0.305 C 
ATOM     23  O   UNL d   1      45.803  28.590  57.717  0.00  0.00    -0.259 OA
BRANCH  22  24
ATOM     24  C   UNL d   1      44.954  29.576  58.327  0.00  0.00     0.118 A 
ATOM     25  C   UNL d   1      44.586  30.052  57.754  0.00  0.00     0.147 A 
ATOM     26  F   UNL d   1      44.399  29.726  57.008  0.00  0.00    -0.204 F 
ATOM     27  C   UNL d   1      44.404  30.832  57.902  0.00  0.00     0.030 A 
ATOM     28  C   UNL d   1      44.589  31.154  58.638  0.00  0.00     0.005 A 
ATOM     29  C   UNL d   1      44.957  30.698  59.230  0.00  0.00     0.030 A 
ATOM     30  C   UNL d   1      45.139  29.898  59.064  0.00  0.00     0.147 A 
ATOM     31  F   UNL d   1      45.507  29.422  59.641  0.00  0.00    -0.204 F 
ENDBRANCH  22  24
ENDBRANCH  21  22
ENDBRANCH   1  21
TORSDOF 8
ENDMDL
