MODEL 1
REMARK VINA RESULT:      -4.5      0.000      0.000
REMARK  4 active torsions:
REMARK  status: ('A' for Active; 'I' for Inactive)
REMARK    1  A    between atoms: N_10  and  C_3 
REMARK    2  A    between atoms: C_11  and  C_4 
REMARK    3  A    between atoms: C_17  and  N_10 
REMARK       I    between atoms: C_12  and  N_13 
REMARK    4  A    between atoms: N_13  and  C_18 
ROOT
ATOM      1  C   UNL d   1     -39.088  14.609  17.008  0.00  0.00     0.168 A 
ATOM      2  N   UNL d   1     -39.202  14.683  17.838  0.00  0.00    -0.184 N 
ATOM      3  C   UNL d   1     -39.825  15.102  18.103  0.00  0.00     0.218 A 
ATOM      4  C   UNL d   1     -38.466  14.191  16.725  0.00  0.00     0.057 A 
ATOM      5  N   UNL d   1     -38.050  13.908  18.052  0.00  0.00    -0.160 NA
ATOM      6  N   UNL d   1     -39.606  14.958  16.501  0.00  0.00    -0.227 NA
ATOM      7  C   UNL d   1     -40.354  15.459  17.598  0.00  0.00     0.071 A 
ATOM      8  C   UNL d   1     -37.940  13.836  17.248  0.00  0.00     0.124 A 
ATOM      9  C   UNL d   1     -40.242  15.385  16.781  0.00  0.00     0.087 A 
ATOM     10  C   UNL d   1     -40.788  15.754  16.245  0.00  0.00     0.021 C 
ENDROOT
BRANCH   3  11
ATOM     11  N   UNL d   1     -39.944  15.179  18.940  0.00  0.00    -0.383 NA
BRANCH  11  12
ATOM     12  C   UNL d   1     -39.967  15.202  19.778  0.00  0.00     0.134 A 
ATOM     13  C   UNL d   1     -40.284  14.568  20.215  0.00  0.00     0.034 A 
ATOM     14  C   UNL d   1     -40.303  14.601  21.072  0.00  0.00     0.022 A 
ATOM     15  C   UNL d   1     -40.002  15.275  21.475  0.00  0.00     0.085 A 
ATOM     16  C   UNL d   1     -39.679  15.922  21.036  0.00  0.00     0.022 A 
ATOM     17  C   UNL d   1     -39.658  15.892  20.182  0.00  0.00     0.034 A 
BRANCH  15  18
ATOM     18  N   UNL d   1     -40.021  15.307  22.320  0.00  0.00    -0.208 NA
ATOM     19  C   UNL d   1     -39.327  15.132  22.768  0.00  0.00     0.279 C 
ATOM     20  O   UNL d   1     -39.343  15.163  23.603  0.00  0.00    -0.265 OA
ATOM     21  C   UNL d   1     -38.610  14.925  22.370  0.00  0.00     0.068 C 
ENDBRANCH  15  18
ENDBRANCH  11  12
ENDBRANCH   3  11
BRANCH   4  22
ATOM     22  C   UNL d   1     -38.356  14.119  15.921  0.00  0.00     0.005 A 
ATOM     23  C   UNL d   1     -38.093  14.749  15.495  0.00  0.00     0.001 A 
ATOM     24  C   UNL d   1     -37.983  14.677  14.691  0.00  0.00     0.011 A 
ATOM     25  C   UNL d   1     -38.137  13.976  14.326  0.00  0.00     0.058 A 
ATOM     26  C   UNL d   1     -38.402  13.347  14.766  0.00  0.00     0.011 A 
ATOM     27 CL   UNL d   1     -38.022  13.901  13.485  0.00  0.00    -0.082 Cl
ATOM     28  C   UNL d   1     -38.511  13.418  15.556  0.00  0.00     0.001 A 
ENDBRANCH   4  22
TORSDOF 4
ENDMDL
MODEL 2
REMARK VINA RESULT:      -4.0      7.383      9.715
REMARK  4 active torsions:
REMARK  status: ('A' for Active; 'I' for Inactive)
REMARK    1  A    between atoms: N_10  and  C_3 
REMARK    2  A    between atoms: C_11  and  C_4 
REMARK    3  A    between atoms: C_17  and  N_10 
REMARK       I    between atoms: C_12  and  N_13 
REMARK    4  A    between atoms: N_13  and  C_18 
ROOT
ATOM      1  C   UNL d   1     -47.506  13.709  22.676  0.00  0.00     0.168 A 
ATOM      2  N   UNL d   1     -46.686  13.635  22.502  0.00  0.00    -0.184 N 
ATOM      3  C   UNL d   1     -46.345  12.919  22.564  0.00  0.00     0.218 A 
ATOM      4  C   UNL d   1     -47.864  14.423  22.618  0.00  0.00     0.057 A 
ATOM      5  N   UNL d   1     -46.635  15.011  22.220  0.00  0.00    -0.160 NA
ATOM      6  N   UNL d   1     -47.927  13.061  22.899  0.00  0.00    -0.227 NA
ATOM      7  C   UNL d   1     -46.763  12.258  22.789  0.00  0.00     0.071 A 
ATOM      8  C   UNL d   1     -47.430  15.082  22.389  0.00  0.00     0.124 A 
ATOM      9  C   UNL d   1     -47.570  12.331  22.961  0.00  0.00     0.087 A 
ATOM     10  C   UNL d   1     -48.014  11.647  23.197  0.00  0.00     0.021 C 
ENDROOT
BRANCH   3  11
ATOM     11  N   UNL d   1     -45.517  12.839  22.389  0.00  0.00    -0.383 NA
BRANCH  11  12
ATOM     12  C   UNL d   1     -44.729  12.776  22.113  0.00  0.00     0.134 A 
ATOM     13  C   UNL d   1     -44.195  12.240  22.461  0.00  0.00     0.034 A 
ATOM     14  C   UNL d   1     -43.390  12.183  22.170  0.00  0.00     0.022 A 
ATOM     15  C   UNL d   1     -43.136  12.668  21.532  0.00  0.00     0.085 A 
ATOM     16  C   UNL d   1     -43.674  13.214  21.175  0.00  0.00     0.022 A 
ATOM     17  C   UNL d   1     -44.477  13.274  21.462  0.00  0.00     0.034 A 
BRANCH  15  18
ATOM     18  N   UNL d   1     -42.342  12.611  21.246  0.00  0.00    -0.208 NA
ATOM     19  C   UNL d   1     -41.882  13.309  21.127  0.00  0.00     0.279 C 
ATOM     20  O   UNL d   1     -41.097  13.255  20.844  0.00  0.00    -0.265 OA
ATOM     21  C   UNL d   1     -42.217  14.068  21.294  0.00  0.00     0.068 C 
ENDBRANCH  15  18
ENDBRANCH  11  12
ENDBRANCH   3  11
BRANCH   4  22
ATOM     22  C   UNL d   1     -48.658  14.495  22.786  0.00  0.00     0.005 A 
ATOM     23  C   UNL d   1     -48.894  14.694  23.530  0.00  0.00     0.001 A 
ATOM     24  C   UNL d   1     -49.688  14.765  23.698  0.00  0.00     0.011 A 
ATOM     25  C   UNL d   1     -50.233  14.637  23.120  0.00  0.00     0.058 A 
ATOM     26  C   UNL d   1     -49.985  14.437  22.374  0.00  0.00     0.011 A 
ATOM     27 CL   UNL d   1     -51.064  14.711  23.296  0.00  0.00    -0.082 Cl
ATOM     28  C   UNL d   1     -49.204  14.366  22.208  0.00  0.00     0.001 A 
ENDBRANCH   4  22
TORSDOF 4
ENDMDL
MODEL 3
REMARK VINA RESULT:      -3.9      8.527     10.723
REMARK  4 active torsions:
REMARK  status: ('A' for Active; 'I' for Inactive)
REMARK    1  A    between atoms: N_10  and  C_3 
REMARK    2  A    between atoms: C_11  and  C_4 
REMARK    3  A    between atoms: C_17  and  N_10 
REMARK       I    between atoms: C_12  and  N_13 
REMARK    4  A    between atoms: N_13  and  C_18 
ROOT
ATOM      1  C   UNL d   1     -48.338  13.206  23.099  0.00  0.00     0.168 A 
ATOM      2  N   UNL d   1     -47.630  12.764  23.202  0.00  0.00    -0.184 N 
ATOM      3  C   UNL d   1     -47.685  11.995  23.403  0.00  0.00     0.218 A 
ATOM      4  C   UNL d   1     -48.300  13.980  22.897  0.00  0.00     0.057 A 
ATOM      5  N   UNL d   1     -46.883  13.912  22.892  0.00  0.00    -0.160 NA
ATOM      6  N   UNL d   1     -49.052  12.849  23.203  0.00  0.00    -0.227 NA
ATOM      7  C   UNL d   1     -48.402  11.626  23.511  0.00  0.00     0.071 A 
ATOM      8  C   UNL d   1     -47.569  14.341  22.791  0.00  0.00     0.124 A 
ATOM      9  C   UNL d   1     -49.099  12.061  23.409  0.00  0.00     0.087 A 
ATOM     10  C   UNL d   1     -49.852  11.684  23.519  0.00  0.00     0.021 C 
ENDROOT
BRANCH   3  11
ATOM     11  N   UNL d   1     -46.973  11.545  23.509  0.00  0.00    -0.383 NA
BRANCH  11  12
ATOM     12  C   UNL d   1     -46.241  11.135  23.514  0.00  0.00     0.134 A 
ATOM     13  C   UNL d   1     -46.207  10.323  23.695  0.00  0.00     0.034 A 
ATOM     14  C   UNL d   1     -45.453   9.913  23.697  0.00  0.00     0.022 A 
ATOM     15  C   UNL d   1     -44.746  10.330  23.516  0.00  0.00     0.085 A 
ATOM     16  C   UNL d   1     -44.775  11.155  23.331  0.00  0.00     0.022 A 
ATOM     17  C   UNL d   1     -45.524  11.566  23.328  0.00  0.00     0.034 A 
BRANCH  15  18
ATOM     18  N   UNL d   1     -44.004   9.925  23.518  0.00  0.00    -0.208 NA
ATOM     19  C   UNL d   1     -43.302  10.320  23.263  0.00  0.00     0.279 C 
ATOM     20  O   UNL d   1     -42.567   9.922  23.264  0.00  0.00    -0.265 OA
ATOM     21  C   UNL d   1     -43.343  11.125  23.004  0.00  0.00     0.068 C 
ENDBRANCH  15  18
ENDBRANCH  11  12
ENDBRANCH   3  11
BRANCH   4  22
ATOM     22  C   UNL d   1     -48.986  14.409  22.797  0.00  0.00     0.005 A 
ATOM     23  C   UNL d   1     -49.292  14.826  23.413  0.00  0.00     0.001 A 
ATOM     24  C   UNL d   1     -49.977  15.254  23.313  0.00  0.00     0.011 A 
ATOM     25  C   UNL d   1     -50.346  15.258  22.598  0.00  0.00     0.058 A 
ATOM     26  C   UNL d   1     -50.030  14.834  21.983  0.00  0.00     0.011 A 
ATOM     27 CL   UNL d   1     -51.064  15.707  22.493  0.00  0.00    -0.082 Cl
ATOM     28  C   UNL d   1     -49.356  14.413  22.081  0.00  0.00     0.001 A 
ENDBRANCH   4  22
TORSDOF 4
ENDMDL
MODEL 4
REMARK VINA RESULT:      -3.4      7.381      9.587
REMARK  4 active torsions:
REMARK  status: ('A' for Active; 'I' for Inactive)
REMARK    1  A    between atoms: N_10  and  C_3 
REMARK    2  A    between atoms: C_11  and  C_4 
REMARK    3  A    between atoms: C_17  and  N_10 
REMARK       I    between atoms: C_12  and  N_13 
REMARK    4  A    between atoms: N_13  and  C_18 
ROOT
ATOM      1  C   UNL d   1     -47.381  12.680  22.581  0.00  0.00     0.168 A 
ATOM      2  N   UNL d   1     -46.559  12.578  22.435  0.00  0.00    -0.184 N 
ATOM      3  C   UNL d   1     -46.101  13.225  22.354  0.00  0.00     0.218 A 
ATOM      4  C   UNL d   1     -47.854  12.039  22.665  0.00  0.00     0.057 A 
ATOM      5  N   UNL d   1     -46.739  11.185  22.467  0.00  0.00    -0.160 NA
ATOM      6  N   UNL d   1     -47.689  13.421  22.636  0.00  0.00    -0.227 NA
ATOM      7  C   UNL d   1     -46.404  13.979  22.408  0.00  0.00     0.071 A 
ATOM      8  C   UNL d   1     -47.535  11.284  22.608  0.00  0.00     0.124 A 
ATOM      9  C   UNL d   1     -47.213  14.079  22.551  0.00  0.00     0.087 A 
ATOM     10  C   UNL d   1     -47.538  14.861  22.609  0.00  0.00     0.021 C 
ENDROOT
BRANCH   3  11
ATOM     11  N   UNL d   1     -45.271  13.127  22.207  0.00  0.00    -0.383 NA
BRANCH  11  12
ATOM     12  C   UNL d   1     -44.478  13.021  21.957  0.00  0.00     0.134 A 
ATOM     13  C   UNL d   1     -43.986  12.456  22.321  0.00  0.00     0.034 A 
ATOM     14  C   UNL d   1     -43.176  12.356  22.056  0.00  0.00     0.022 A 
ATOM     15  C   UNL d   1     -42.875  12.827  21.428  0.00  0.00     0.085 A 
ATOM     16  C   UNL d   1     -43.370  13.402  21.055  0.00  0.00     0.022 A 
ATOM     17  C   UNL d   1     -44.178  13.505  21.315  0.00  0.00     0.034 A 
BRANCH  15  18
ATOM     18  N   UNL d   1     -42.077  12.727  21.169  0.00  0.00    -0.208 NA
ATOM     19  C   UNL d   1     -41.544  13.382  21.170  0.00  0.00     0.279 C 
ATOM     20  O   UNL d   1     -40.754  13.286  20.914  0.00  0.00    -0.265 OA
ATOM     21  C   UNL d   1     -41.810  14.141  21.432  0.00  0.00     0.068 C 
ENDBRANCH  15  18
ENDBRANCH  11  12
ENDBRANCH   3  11
BRANCH   4  22
ATOM     22  C   UNL d   1     -48.651  12.138  22.806  0.00  0.00     0.005 A 
ATOM     23  C   UNL d   1     -49.171  12.130  22.192  0.00  0.00     0.001 A 
ATOM     24  C   UNL d   1     -49.967  12.228  22.333  0.00  0.00     0.011 A 
ATOM     25  C   UNL d   1     -50.231  12.333  23.086  0.00  0.00     0.058 A 
ATOM     26  C   UNL d   1     -49.698  12.340  23.698  0.00  0.00     0.011 A 
ATOM     27 CL   UNL d   1     -51.064  12.436  23.234  0.00  0.00    -0.082 Cl
ATOM     28  C   UNL d   1     -48.915  12.243  23.559  0.00  0.00     0.001 A 
ENDBRANCH   4  22
TORSDOF 4
ENDMDL
MODEL 5
REMARK VINA RESULT:      -2.8      7.140      9.474
REMARK  4 active torsions:
REMARK  status: ('A' for Active; 'I' for Inactive)
REMARK    1  A    between atoms: N_10  and  C_3 
REMARK    2  A    between atoms: C_11  and  C_4 
REMARK    3  A    between atoms: C_17  and  N_10 
REMARK       I    between atoms: C_12  and  N_13 
REMARK    4  A    between atoms: N_13  and  C_18 
ROOT
ATOM      1  C   UNL d   1     -46.980  12.438  22.614  0.00  0.00     0.168 A 
ATOM      2  N   UNL d   1     -46.231  12.697  22.331  0.00  0.00    -0.184 N 
ATOM      3  C   UNL d   1     -45.586  12.266  22.509  0.00  0.00     0.218 A 
ATOM      4  C   UNL d   1     -47.639  12.861  22.444  0.00  0.00     0.057 A 
ATOM      5  N   UNL d   1     -46.856  13.796  21.719  0.00  0.00    -0.160 NA
ATOM      6  N   UNL d   1     -47.032  11.767  23.055  0.00  0.00    -0.227 NA
ATOM      7  C   UNL d   1     -45.628  11.586  22.954  0.00  0.00     0.071 A 
ATOM      8  C   UNL d   1     -47.582  13.546  21.993  0.00  0.00     0.124 A 
ATOM      9  C   UNL d   1     -46.365  11.332  23.232  0.00  0.00     0.087 A 
ATOM     10  C   UNL d   1     -46.419  10.624  23.698  0.00  0.00     0.021 C 
ENDROOT
BRANCH   3  11
ATOM     11  N   UNL d   1     -44.827  12.523  22.226  0.00  0.00    -0.383 NA
BRANCH  11  12
ATOM     12  C   UNL d   1     -44.064  12.673  21.914  0.00  0.00     0.134 A 
ATOM     13  C   UNL d   1     -43.952  13.236  21.310  0.00  0.00     0.034 A 
ATOM     14  C   UNL d   1     -43.166  13.382  20.998  0.00  0.00     0.022 A 
ATOM     15  C   UNL d   1     -42.506  12.957  21.300  0.00  0.00     0.085 A 
ATOM     16  C   UNL d   1     -42.614  12.385  21.912  0.00  0.00     0.022 A 
ATOM     17  C   UNL d   1     -43.395  12.236  22.226  0.00  0.00     0.034 A 
BRANCH  15  18
ATOM     18  N   UNL d   1     -41.732  13.102  20.991  0.00  0.00    -0.208 NA
ATOM     19  C   UNL d   1     -41.436  13.892  20.937  0.00  0.00     0.279 C 
ATOM     20  O   UNL d   1     -40.672  14.038  20.632  0.00  0.00    -0.265 OA
ATOM     21  C   UNL d   1     -41.917  14.539  21.192  0.00  0.00     0.068 C 
ENDBRANCH  15  18
ENDBRANCH  11  12
ENDBRANCH   3  11
BRANCH   4  22
ATOM     22  C   UNL d   1     -48.365  12.610  22.718  0.00  0.00     0.005 A 
ATOM     23  C   UNL d   1     -48.654  12.902  23.410  0.00  0.00     0.001 A 
ATOM     24  C   UNL d   1     -49.379  12.652  23.683  0.00  0.00     0.011 A 
ATOM     25  C   UNL d   1     -49.804  12.114  23.261  0.00  0.00     0.058 A 
ATOM     26  C   UNL d   1     -49.503  11.827  22.564  0.00  0.00     0.011 A 
ATOM     27 CL   UNL d   1     -50.563  11.853  23.547  0.00  0.00    -0.082 Cl
ATOM     28  C   UNL d   1     -48.789  12.073  22.295  0.00  0.00     0.001 A 
ENDBRANCH   4  22
TORSDOF 4
ENDMDL
MODEL 6
REMARK VINA RESULT:      -2.1      2.895      3.964
REMARK  4 active torsions:
REMARK  status: ('A' for Active; 'I' for Inactive)
REMARK    1  A    between atoms: N_10  and  C_3 
REMARK    2  A    between atoms: C_11  and  C_4 
REMARK    3  A    between atoms: C_17  and  N_10 
REMARK       I    between atoms: C_12  and  N_13 
REMARK    4  A    between atoms: N_13  and  C_18 
ROOT
ATOM      1  C   UNL d   1     -40.427  14.553  19.151  0.00  0.00     0.168 A 
ATOM      2  N   UNL d   1     -41.050  14.180  19.575  0.00  0.00    -0.184 N 
ATOM      3  C   UNL d   1     -41.090  14.279  20.364  0.00  0.00     0.218 A 
ATOM      4  C   UNL d   1     -40.374  14.463  18.357  0.00  0.00     0.057 A 
ATOM      5  N   UNL d   1     -41.533  13.645  18.369  0.00  0.00    -0.160 NA
ATOM      6  N   UNL d   1     -39.886  14.999  19.545  0.00  0.00    -0.227 NA
ATOM      7  C   UNL d   1     -40.547  14.728  20.771  0.00  0.00     0.071 A 
ATOM      8  C   UNL d   1     -40.929  14.006  17.958  0.00  0.00     0.124 A 
ATOM      9  C   UNL d   1     -39.933  15.095  20.354  0.00  0.00     0.087 A 
ATOM     10  C   UNL d   1     -39.363  15.566  20.771  0.00  0.00     0.021 C 
ENDROOT
BRANCH   3  11
ATOM     11  N   UNL d   1     -41.717  13.904  20.796  0.00  0.00    -0.383 NA
BRANCH  11  12
ATOM     12  C   UNL d   1     -42.382  13.514  21.126  0.00  0.00     0.134 A 
ATOM     13  C   UNL d   1     -43.137  13.864  21.105  0.00  0.00     0.034 A 
ATOM     14  C   UNL d   1     -43.811  13.456  21.446  0.00  0.00     0.022 A 
ATOM     15  C   UNL d   1     -43.712  12.701  21.801  0.00  0.00     0.085 A 
ATOM     16  C   UNL d   1     -42.947  12.340  21.825  0.00  0.00     0.022 A 
ATOM     17  C   UNL d   1     -42.273  12.744  21.487  0.00  0.00     0.034 A 
BRANCH  15  18
ATOM     18  N   UNL d   1     -44.376  12.299  22.136  0.00  0.00    -0.208 NA
ATOM     19  C   UNL d   1     -45.072  12.730  22.344  0.00  0.00     0.279 C 
ATOM     20  O   UNL d   1     -45.731  12.336  22.676  0.00  0.00    -0.265 OA
ATOM     21  C   UNL d   1     -45.104  13.566  22.217  0.00  0.00     0.068 C 
ENDBRANCH  15  18
ENDBRANCH  11  12
ENDBRANCH   3  11
BRANCH   4  22
ATOM     22  C   UNL d   1     -39.769  14.824  17.946  0.00  0.00     0.005 A 
ATOM     23  C   UNL d   1     -39.069  14.442  17.844  0.00  0.00     0.001 A 
ATOM     24  C   UNL d   1     -38.465  14.803  17.434  0.00  0.00     0.011 A 
ATOM     25  C   UNL d   1     -38.572  15.541  17.132  0.00  0.00     0.058 A 
ATOM     26  C   UNL d   1     -39.282  15.918  17.240  0.00  0.00     0.011 A 
ATOM     27 CL   UNL d   1     -37.940  15.919  16.702  0.00  0.00    -0.082 Cl
ATOM     28  C   UNL d   1     -39.876  15.563  17.644  0.00  0.00     0.001 A 
ENDBRANCH   4  22
TORSDOF 4
ENDMDL
MODEL 7
REMARK VINA RESULT:      -1.5      5.337      7.849
REMARK  4 active torsions:
REMARK  status: ('A' for Active; 'I' for Inactive)
REMARK    1  A    between atoms: N_10  and  C_3 
REMARK    2  A    between atoms: C_11  and  C_4 
REMARK    3  A    between atoms: C_17  and  N_10 
REMARK       I    between atoms: C_12  and  N_13 
REMARK    4  A    between atoms: N_13  and  C_18 
ROOT
ATOM      1  C   UNL d   1     -44.807  12.915  22.210  0.00  0.00     0.168 A 
ATOM      2  N   UNL d   1     -44.151  13.322  21.876  0.00  0.00    -0.184 N 
ATOM      3  C   UNL d   1     -43.449  12.949  21.835  0.00  0.00     0.218 A 
ATOM      4  C   UNL d   1     -45.520  13.277  22.258  0.00  0.00     0.057 A 
ATOM      5  N   UNL d   1     -44.974  14.440  21.658  0.00  0.00    -0.160 NA
ATOM      6  N   UNL d   1     -44.715  12.163  22.480  0.00  0.00    -0.227 NA
ATOM      7  C   UNL d   1     -43.347  12.188  22.105  0.00  0.00     0.071 A 
ATOM      8  C   UNL d   1     -45.609  14.046  21.981  0.00  0.00     0.124 A 
ATOM      9  C   UNL d   1     -43.992  11.787  22.434  0.00  0.00     0.087 A 
ATOM     10  C   UNL d   1     -43.895  10.993  22.719  0.00  0.00     0.021 C 
ENDROOT
BRANCH   3  11
ATOM     11  N   UNL d   1     -42.784  13.356  21.498  0.00  0.00    -0.383 NA
BRANCH  11  12
ATOM     12  C   UNL d   1     -42.080  13.660  21.160  0.00  0.00     0.134 A 
ATOM     13  C   UNL d   1     -42.024  13.798  20.340  0.00  0.00     0.034 A 
ATOM     14  C   UNL d   1     -41.298  14.109  20.005  0.00  0.00     0.022 A 
ATOM     15  C   UNL d   1     -40.641  14.276  20.502  0.00  0.00     0.085 A 
ATOM     16  C   UNL d   1     -40.693  14.138  21.334  0.00  0.00     0.022 A 
ATOM     17  C   UNL d   1     -41.414  13.828  21.673  0.00  0.00     0.034 A 
BRANCH  15  18
ATOM     18  N   UNL d   1     -39.926  14.583  20.169  0.00  0.00    -0.208 NA
ATOM     19  C   UNL d   1     -39.873  15.398  19.954  0.00  0.00     0.279 C 
ATOM     20  O   UNL d   1     -39.168  15.704  19.625  0.00  0.00    -0.265 OA
ATOM     21  C   UNL d   1     -40.537  15.909  20.070  0.00  0.00     0.068 C 
ENDBRANCH  15  18
ENDBRANCH  11  12
ENDBRANCH   3  11
BRANCH   4  22
ATOM     22  C   UNL d   1     -46.155  12.882  22.582  0.00  0.00     0.005 A 
ATOM     23  C   UNL d   1     -46.670  12.489  22.104  0.00  0.00     0.001 A 
ATOM     24  C   UNL d   1     -47.304  12.095  22.427  0.00  0.00     0.011 A 
ATOM     25  C   UNL d   1     -47.415  12.100  23.224  0.00  0.00     0.058 A 
ATOM     26  C   UNL d   1     -46.891  12.499  23.698  0.00  0.00     0.011 A 
ATOM     27 CL   UNL d   1     -48.080  11.687  23.563  0.00  0.00    -0.082 Cl
ATOM     28  C   UNL d   1     -46.266  12.887  23.380  0.00  0.00     0.001 A 
ENDBRANCH   4  22
TORSDOF 4
ENDMDL
