MODEL 1
REMARK VINA RESULT:      47.7      0.000      0.000
REMARK  8 active torsions:
REMARK  status: ('A' for Active; 'I' for Inactive)
REMARK    1  A    between atoms: S_10  and  C_2 
REMARK    2  A    between atoms: C_7  and  C_4 
REMARK    3  A    between atoms: C_17  and  S_10 
REMARK    4  A    between atoms: C_14  and  C_17 
REMARK    5  A    between atoms: O_18  and  C_14 
REMARK    6  A    between atoms: O_19  and  C_15 
REMARK    7  A    between atoms: C_22  and  O_18 
REMARK    8  A    between atoms: C_24  and  C_22 
ROOT
ATOM      1  C   UNL d   1     -56.758 -98.833 -44.056  0.00  0.00     0.093 A 
ATOM      2  C   UNL d   1     -56.156 -98.832 -44.632  0.00  0.00     0.124 A 
ATOM      3  N   UNL d   1     -56.354 -98.814 -45.432  0.00  0.00    -0.200 NA
ATOM      4  C   UNL d   1     -57.549 -98.816 -44.289  0.00  0.00     0.028 A 
ATOM      5  C   UNL d   1     -57.744 -98.798 -45.087  0.00  0.00     0.127 A 
ATOM      6  C   UNL d   1     -57.143 -98.797 -45.663  0.00  0.00     0.289 A 
ATOM      7  C   UNL d   1     -56.566 -98.851 -43.261  0.00  0.00     0.103 C 
ATOM      8  C   UNL d   1     -58.536 -98.781 -45.320  0.00  0.00     0.106 C 
ATOM      9  N   UNL d   1     -56.371 -98.869 -42.474  0.00  0.00    -0.191 NA
ATOM     10  N   UNL d   1     -59.313 -98.764 -45.549  0.00  0.00    -0.191 NA
ATOM     11  O   UNL d   1     -57.409 -98.776 -46.519  0.00  0.00    -0.264 OA
ENDROOT
BRANCH   2  12
ATOM     12  S   UNL d   1     -55.344 -98.851 -44.329  0.00  0.00    -0.061 SA
BRANCH  12  13
ATOM     13  C   UNL d   1     -55.060 -99.128 -43.554  0.00  0.00     0.105 C 
BRANCH  13  14
ATOM     14  C   UNL d   1     -54.977 -99.980 -43.411  0.00  0.00     0.307 C 
ATOM     15  O   UNL d   1     -55.069-100.204 -42.941  0.00  0.00    -0.258 OA
BRANCH  14  16
ATOM     16  O   UNL d   1     -54.724-100.447 -44.120  0.00  0.00    -0.271 OA
BRANCH  16  17
ATOM     17  C   UNL d   1     -55.266-101.135 -44.345  0.00  0.00     0.126 C 
BRANCH  17  18
ATOM     18  C   UNL d   1     -54.719-101.860 -44.574  0.00  0.00     0.027 C 
ATOM     19  C   UNL d   1     -55.123-102.303 -45.248  0.00  0.00     0.002 C 
ENDBRANCH  17  18
ENDBRANCH  16  17
ENDBRANCH  14  16
ENDBRANCH  13  14
ENDBRANCH  12  13
ENDBRANCH   2  12
BRANCH   4  20
ATOM     20  C   UNL d   1     -58.143 -98.817 -43.721  0.00  0.00     0.024 A 
ATOM     21  C   UNL d   1     -58.930 -98.872 -43.950  0.00  0.00     0.094 A 
ATOM     22  C   UNL d   1     -59.526 -98.873 -43.380  0.00  0.00     0.024 A 
ATOM     23  C   UNL d   1     -59.335 -98.819 -42.580  0.00  0.00     0.002 A 
ATOM     24  C   UNL d   1     -58.543 -98.764 -42.352  0.00  0.00     0.000 A 
ATOM     25  C   UNL d   1     -57.947 -98.763 -42.922  0.00  0.00     0.002 A 
BRANCH  21  26
ATOM     26  O   UNL d   1     -59.174 -98.921 -44.603  0.00  0.00    -0.328 OA
ATOM     27  C   UNL d   1     -59.957 -99.222 -44.754  0.00  0.00     0.181 C 
ENDBRANCH  21  26
ENDBRANCH   4  20
TORSDOF 8
ENDMDL
