MODEL 1
REMARK VINA RESULT:      21.3      0.000      0.000
REMARK  7 active torsions:
REMARK  status: ('A' for Active; 'I' for Inactive)
REMARK    1  A    between atoms: N_2  and  C_1 
REMARK    2  A    between atoms: C_5  and  C_1 
REMARK    3  A    between atoms: O_4  and  N_2 
REMARK    4  A    between atoms: C_3  and  O_4 
REMARK    5  A    between atoms: C_6  and  C_3 
REMARK    6  A    between atoms: C_17  and  C_14 
REMARK    7  A    between atoms: C_18  and  C_17 
ROOT
ATOM      1  C   UNL d   1      15.080  12.244  -1.346  0.00  0.00     0.319 C 
ATOM      2  O   UNL d   1      15.757  11.779  -1.232  0.00  0.00    -0.257 OA
ENDROOT
BRANCH   1   3
ATOM      3  O   UNL d   1      14.440  11.945  -1.769  0.00  0.00    -0.168 OA
BRANCH   3   4
ATOM      4  N   UNL d   1      14.040  12.425  -2.308  0.00  0.00    -0.100 NA
BRANCH   4   5
ATOM      5  C   UNL d   1      13.394  12.127  -2.724  0.00  0.00     0.228 C 
ATOM      6  N   UNL d   1      12.769  11.780  -2.317  0.00  0.00    -0.123 N 
BRANCH   5   7
ATOM      7  C   UNL d   1      13.373  12.178  -3.547  0.00  0.00     0.121 A 
ATOM      8  N   UNL d   1      13.944  12.631  -3.947  0.00  0.00    -0.241 NA
ATOM      9  C   UNL d   1      13.923  12.683  -4.778  0.00  0.00     0.099 A 
ATOM     10  C   UNL d   1      13.332  12.281  -5.201  0.00  0.00     0.021 A 
ATOM     11  C   UNL d   1      12.769  11.834  -4.802  0.00  0.00     0.003 A 
ATOM     12  C   UNL d   1      12.790  11.783  -3.979  0.00  0.00     0.022 A 
ENDBRANCH   5   7
ENDBRANCH   4   5
ENDBRANCH   3   4
ENDBRANCH   1   3
BRANCH   1  13
ATOM     13  C   UNL d   1      15.049  13.013  -1.033  0.00  0.00     0.065 A 
ATOM     14  C   UNL d   1      15.430  13.626  -1.431  0.00  0.00     0.005 A 
ATOM     15  C   UNL d   1      15.402  14.389  -1.123  0.00  0.00     0.000 A 
ATOM     16  C   UNL d   1      14.992  14.539  -0.417  0.00  0.00     0.000 A 
ATOM     17  C   UNL d   1      14.613  13.920  -0.024  0.00  0.00     0.000 A 
ATOM     18  C   UNL d   1      14.644  13.151  -0.338  0.00  0.00     0.005 A 
BRANCH  16  19
ATOM     19  C   UNL d   1      14.967  15.307  -0.113  0.00  0.00     0.000 C 
BRANCH  19  20
ATOM     20  C   UNL d   1      15.169  15.947  -0.593  0.00  0.00     0.000 C 
ATOM     21  C   UNL d   1      15.256  16.701  -0.273  0.00  0.00     0.000 C 
ENDBRANCH  19  20
ENDBRANCH  16  19
ENDBRANCH   1  13
TORSDOF 7
ENDMDL
MODEL 2
REMARK VINA RESULT:      24.0      1.808      3.954
REMARK  7 active torsions:
REMARK  status: ('A' for Active; 'I' for Inactive)
REMARK    1  A    between atoms: N_2  and  C_1 
REMARK    2  A    between atoms: C_5  and  C_1 
REMARK    3  A    between atoms: O_4  and  N_2 
REMARK    4  A    between atoms: C_3  and  O_4 
REMARK    5  A    between atoms: C_6  and  C_3 
REMARK    6  A    between atoms: C_17  and  C_14 
REMARK    7  A    between atoms: C_18  and  C_17 
ROOT
ATOM      1  C   UNL d   1      13.380  12.450  -3.823  0.00  0.00     0.319 C 
ATOM      2  O   UNL d   1      13.508  11.779  -4.293  0.00  0.00    -0.257 OA
ENDROOT
BRANCH   1   3
ATOM      3  O   UNL d   1      13.260  12.370  -3.013  0.00  0.00    -0.168 OA
BRANCH   3   4
ATOM      4  N   UNL d   1      13.872  12.104  -2.528  0.00  0.00    -0.100 NA
BRANCH   4   5
ATOM      5  C   UNL d   1      13.766  12.068  -1.712  0.00  0.00     0.228 C 
ATOM      6  N   UNL d   1      13.061  11.779  -1.402  0.00  0.00    -0.123 N 
BRANCH   5   7
ATOM      7  C   UNL d   1      14.366  12.321  -1.206  0.00  0.00     0.121 A 
ATOM      8  N   UNL d   1      14.989  11.806  -1.013  0.00  0.00    -0.241 NA
ATOM      9  C   UNL d   1      15.595  12.062  -0.503  0.00  0.00     0.099 A 
ATOM     10  C   UNL d   1      15.573  12.831  -0.190  0.00  0.00     0.021 A 
ATOM     11  C   UNL d   1      14.955  13.338  -0.383  0.00  0.00     0.003 A 
ATOM     12  C   UNL d   1      14.355  13.085  -0.889  0.00  0.00     0.022 A 
ENDBRANCH   5   7
ENDBRANCH   4   5
ENDBRANCH   3   4
ENDBRANCH   1   3
BRANCH   1  13
ATOM     13  C   UNL d   1      13.373  13.204  -4.173  0.00  0.00     0.065 A 
ATOM     14  C   UNL d   1      13.888  13.363  -4.797  0.00  0.00     0.005 A 
ATOM     15  C   UNL d   1      13.883  14.109  -5.146  0.00  0.00     0.000 A 
ATOM     16  C   UNL d   1      13.364  14.695  -4.870  0.00  0.00     0.000 A 
ATOM     17  C   UNL d   1      12.853  14.528  -4.245  0.00  0.00     0.000 A 
ATOM     18  C   UNL d   1      12.860  13.775  -3.895  0.00  0.00     0.005 A 
BRANCH  16  19
ATOM     19  C   UNL d   1      13.365  15.442  -5.224  0.00  0.00     0.000 C 
BRANCH  19  20
ATOM     20  C   UNL d   1      14.069  15.763  -5.510  0.00  0.00     0.000 C 
ATOM     21  C   UNL d   1      14.108  16.551  -5.744  0.00  0.00     0.000 C 
ENDBRANCH  19  20
ENDBRANCH  16  19
ENDBRANCH   1  13
TORSDOF 7
ENDMDL
