MODEL 1
REMARK VINA RESULT:      -8.5      0.000      0.000
REMARK  0 active torsions:
REMARK  status: ('A' for Active; 'I' for Inactive)
REMARK       I    between atoms: C_3  and  N_1 
REMARK       I    between atoms: N_6  and  C_3 
ROOT
ATOM      1  N   UNL d   1     -48.684  12.696  23.322  0.00  0.00    -0.160 N 
ATOM      2  N   UNL d   1     -48.349  11.971  23.467  0.00  0.00    -0.056 NA
ATOM      3  C   UNL d   1     -48.239  13.393  23.130  0.00  0.00     0.357 C 
ATOM      4  N   UNL d   1     -48.962  11.444  23.632  0.00  0.00    -0.128 NA
ATOM      5  C   UNL d   1     -49.493  12.632  23.394  0.00  0.00     0.108 A 
ATOM      6  N   UNL d   1     -47.420  13.367  23.078  0.00  0.00    -0.252 N 
ATOM      7  C   UNL d   1     -49.666  11.854  23.586  0.00  0.00     0.122 A 
ATOM      8  O   UNL d   1     -48.661  14.101  22.995  0.00  0.00    -0.244 OA
ATOM      9  O   UNL d   1     -45.778  13.316  22.976  0.00  0.00    -0.300 OA
ATOM     10  C   UNL d   1     -50.092  13.176  23.309  0.00  0.00     0.021 A 
ATOM     11  C   UNL d   1     -47.019  12.645  23.218  0.00  0.00     0.111 A 
ATOM     12  C   UNL d   1     -47.000  14.037  22.894  0.00  0.00     0.111 A 
ATOM     13  C   UNL d   1     -50.453  11.612  23.697  0.00  0.00     0.022 A 
ATOM     14  C   UNL d   1     -46.192  12.619  23.166  0.00  0.00     0.142 A 
ATOM     15  C   UNL d   1     -46.177  14.012  22.842  0.00  0.00     0.142 A 
ATOM     16  C   UNL d   1     -50.878  12.946  23.418  0.00  0.00     0.002 A 
ATOM     17  C   UNL d   1     -51.064  12.172  23.610  0.00  0.00     0.002 A 
ENDROOT
TORSDOF 0
ENDMDL
MODEL 2
REMARK VINA RESULT:      -8.4      1.698      3.181
REMARK  0 active torsions:
REMARK  status: ('A' for Active; 'I' for Inactive)
REMARK       I    between atoms: C_3  and  N_1 
REMARK       I    between atoms: N_6  and  C_3 
ROOT
ATOM      1  N   UNL d   1     -48.073  13.401  23.140  0.00  0.00    -0.160 N 
ATOM      2  N   UNL d   1     -47.545  13.982  22.931  0.00  0.00    -0.056 NA
ATOM      3  C   UNL d   1     -48.915  13.513  23.162  0.00  0.00     0.357 C 
ATOM      4  N   UNL d   1     -46.789  13.656  22.979  0.00  0.00    -0.128 NA
ATOM      5  C   UNL d   1     -47.661  12.721  23.317  0.00  0.00     0.108 A 
ATOM      6  N   UNL d   1     -49.247  14.238  22.966  0.00  0.00    -0.252 N 
ATOM      7  C   UNL d   1     -46.863  12.879  23.217  0.00  0.00     0.122 A 
ATOM      8  O   UNL d   1     -49.388  12.864  23.389  0.00  0.00    -0.244 OA
ATOM      9  O   UNL d   1     -49.915  15.690  22.574  0.00  0.00    -0.300 OA
ATOM     10  C   UNL d   1     -47.906  11.983  23.555  0.00  0.00     0.021 A 
ATOM     11  C   UNL d   1     -48.750  14.875  22.742  0.00  0.00     0.111 A 
ATOM     12  C   UNL d   1     -50.053  14.339  22.989  0.00  0.00     0.111 A 
ATOM     13  C   UNL d   1     -46.296  12.289  23.357  0.00  0.00     0.022 A 
ATOM     14  C   UNL d   1     -49.087  15.606  22.545  0.00  0.00     0.142 A 
ATOM     15  C   UNL d   1     -50.387  15.067  22.793  0.00  0.00     0.142 A 
ATOM     16  C   UNL d   1     -47.350  11.389  23.697  0.00  0.00     0.002 A 
ATOM     17  C   UNL d   1     -46.550  11.533  23.601  0.00  0.00     0.002 A 
ENDROOT
TORSDOF 0
ENDMDL
MODEL 3
REMARK VINA RESULT:      -8.2      1.135      1.728
REMARK  0 active torsions:
REMARK  status: ('A' for Active; 'I' for Inactive)
REMARK       I    between atoms: C_3  and  N_1 
REMARK       I    between atoms: N_6  and  C_3 
ROOT
ATOM      1  N   UNL d   1     -48.694  12.750  23.103  0.00  0.00    -0.160 N 
ATOM      2  N   UNL d   1     -48.347  13.459  22.913  0.00  0.00    -0.056 NA
ATOM      3  C   UNL d   1     -48.260  12.062  23.347  0.00  0.00     0.357 C 
ATOM      4  N   UNL d   1     -48.950  13.982  22.706  0.00  0.00    -0.128 NA
ATOM      5  C   UNL d   1     -49.501  12.820  23.019  0.00  0.00     0.108 A 
ATOM      6  N   UNL d   1     -47.441  12.080  23.404  0.00  0.00    -0.252 N 
ATOM      7  C   UNL d   1     -49.661  13.586  22.773  0.00  0.00     0.122 A 
ATOM      8  O   UNL d   1     -48.694  11.371  23.525  0.00  0.00    -0.244 OA
ATOM      9  O   UNL d   1     -45.799  12.115  23.519  0.00  0.00    -0.300 OA
ATOM     10  C   UNL d   1     -50.108  12.292  23.134  0.00  0.00     0.021 A 
ATOM     11  C   UNL d   1     -47.028  12.786  23.220  0.00  0.00     0.111 A 
ATOM     12  C   UNL d   1     -47.032  11.418  23.638  0.00  0.00     0.111 A 
ATOM     13  C   UNL d   1     -50.443  13.830  22.638  0.00  0.00     0.022 A 
ATOM     14  C   UNL d   1     -46.201  12.803  23.278  0.00  0.00     0.142 A 
ATOM     15  C   UNL d   1     -46.209  11.436  23.696  0.00  0.00     0.142 A 
ATOM     16  C   UNL d   1     -50.890  12.525  23.003  0.00  0.00     0.002 A 
ATOM     17  C   UNL d   1     -51.063  13.286  22.757  0.00  0.00     0.002 A 
ENDROOT
TORSDOF 0
ENDMDL
MODEL 4
REMARK VINA RESULT:      -8.2      1.123      3.678
REMARK  0 active torsions:
REMARK  status: ('A' for Active; 'I' for Inactive)
REMARK       I    between atoms: C_3  and  N_1 
REMARK       I    between atoms: N_6  and  C_3 
ROOT
ATOM      1  N   UNL d   1     -48.203  13.160  23.098  0.00  0.00    -0.160 N 
ATOM      2  N   UNL d   1     -48.557  13.890  23.053  0.00  0.00    -0.056 NA
ATOM      3  C   UNL d   1     -48.624  12.440  23.260  0.00  0.00     0.357 C 
ATOM      4  N   UNL d   1     -47.966  14.441  22.889  0.00  0.00    -0.128 NA
ATOM      5  C   UNL d   1     -47.404  13.246  22.966  0.00  0.00     0.108 A 
ATOM      6  N   UNL d   1     -49.436  12.446  23.382  0.00  0.00    -0.252 N 
ATOM      7  C   UNL d   1     -47.256  14.041  22.835  0.00  0.00     0.122 A 
ATOM      8  O   UNL d   1     -48.184  11.731  23.289  0.00  0.00    -0.244 OA
ATOM      9  O   UNL d   1     -51.063  12.457  23.628  0.00  0.00    -0.300 OA
ATOM     10  C   UNL d   1     -46.795  12.707  22.946  0.00  0.00     0.021 A 
ATOM     11  C   UNL d   1     -49.854  13.171  23.348  0.00  0.00     0.111 A 
ATOM     12  C   UNL d   1     -49.832  11.754  23.536  0.00  0.00     0.111 A 
ATOM     13  C   UNL d   1     -46.484  14.307  22.682  0.00  0.00     0.022 A 
ATOM     14  C   UNL d   1     -50.674  13.177  23.471  0.00  0.00     0.142 A 
ATOM     15  C   UNL d   1     -50.648  11.760  23.659  0.00  0.00     0.142 A 
ATOM     16  C   UNL d   1     -46.023  12.960  22.794  0.00  0.00     0.002 A 
ATOM     17  C   UNL d   1     -45.862  13.752  22.663  0.00  0.00     0.002 A 
ENDROOT
TORSDOF 0
ENDMDL
MODEL 5
REMARK VINA RESULT:      -7.8      1.255      3.168
REMARK  0 active torsions:
REMARK  status: ('A' for Active; 'I' for Inactive)
REMARK       I    between atoms: C_3  and  N_1 
REMARK       I    between atoms: N_6  and  C_3 
ROOT
ATOM      1  N   UNL d   1     -48.448  12.465  22.873  0.00  0.00    -0.160 N 
ATOM      2  N   UNL d   1     -48.930  11.822  22.984  0.00  0.00    -0.056 NA
ATOM      3  C   UNL d   1     -48.712  13.204  22.548  0.00  0.00     0.357 C 
ATOM      4  N   UNL d   1     -48.469  11.220  23.308  0.00  0.00    -0.128 NA
ATOM      5  C   UNL d   1     -47.695  12.277  23.121  0.00  0.00     0.108 A 
ATOM      6  N   UNL d   1     -49.495  13.308  22.323  0.00  0.00    -0.252 N 
ATOM      7  C   UNL d   1     -47.707  11.503  23.392  0.00  0.00     0.122 A 
ATOM      8  O   UNL d   1     -48.151  13.817  22.466  0.00  0.00    -0.244 OA
ATOM      9  O   UNL d   1     -51.064  13.516  21.871  0.00  0.00    -0.300 OA
ATOM     10  C   UNL d   1     -47.004  12.705  23.136  0.00  0.00     0.021 A 
ATOM     11  C   UNL d   1     -50.040  12.677  22.415  0.00  0.00     0.111 A 
ATOM     12  C   UNL d   1     -49.742  14.016  22.012  0.00  0.00     0.111 A 
ATOM     13  C   UNL d   1     -47.016  11.148  23.684  0.00  0.00     0.022 A 
ATOM     14  C   UNL d   1     -50.830  12.782  22.187  0.00  0.00     0.142 A 
ATOM     15  C   UNL d   1     -50.528  14.121  21.786  0.00  0.00     0.142 A 
ATOM     16  C   UNL d   1     -46.310  12.361  23.425  0.00  0.00     0.002 A 
ATOM     17  C   UNL d   1     -46.309  11.589  23.698  0.00  0.00     0.002 A 
ENDROOT
TORSDOF 0
ENDMDL
MODEL 6
REMARK VINA RESULT:      -7.7      1.149      1.490
REMARK  0 active torsions:
REMARK  status: ('A' for Active; 'I' for Inactive)
REMARK       I    between atoms: C_3  and  N_1 
REMARK       I    between atoms: N_6  and  C_3 
ROOT
ATOM      1  N   UNL d   1     -48.691  13.812  22.933  0.00  0.00    -0.160 N 
ATOM      2  N   UNL d   1     -48.812  13.033  23.125  0.00  0.00    -0.056 NA
ATOM      3  C   UNL d   1     -47.924  14.172  22.877  0.00  0.00     0.357 C 
ATOM      4  N   UNL d   1     -49.626  12.900  23.120  0.00  0.00    -0.128 NA
ATOM      5  C   UNL d   1     -49.413  14.168  22.808  0.00  0.00     0.108 A 
ATOM      6  N   UNL d   1     -47.244  13.735  23.021  0.00  0.00    -0.252 N 
ATOM      7  C   UNL d   1     -49.995  13.602  22.924  0.00  0.00     0.122 A 
ATOM      8  O   UNL d   1     -47.887  14.981  22.673  0.00  0.00    -0.244 OA
ATOM      9  O   UNL d   1     -45.879  12.860  23.308  0.00  0.00    -0.300 OA
ATOM     10  C   UNL d   1     -49.617  14.928  22.605  0.00  0.00     0.021 A 
ATOM     11  C   UNL d   1     -47.307  12.925  23.224  0.00  0.00     0.111 A 
ATOM     12  C   UNL d   1     -46.513  14.086  22.966  0.00  0.00     0.111 A 
ATOM     13  C   UNL d   1     -50.797  13.798  22.837  0.00  0.00     0.022 A 
ATOM     14  C   UNL d   1     -46.620  12.484  23.369  0.00  0.00     0.142 A 
ATOM     15  C   UNL d   1     -45.829  13.647  23.110  0.00  0.00     0.142 A 
ATOM     16  C   UNL d   1     -50.412  15.134  22.515  0.00  0.00     0.002 A 
ATOM     17  C   UNL d   1     -51.003  14.578  22.628  0.00  0.00     0.002 A 
ENDROOT
TORSDOF 0
ENDMDL
MODEL 7
REMARK VINA RESULT:      -6.2      1.579      3.295
REMARK  0 active torsions:
REMARK  status: ('A' for Active; 'I' for Inactive)
REMARK       I    between atoms: C_3  and  N_1 
REMARK       I    between atoms: N_6  and  C_3 
ROOT
ATOM      1  N   UNL d   1     -46.759  12.470  23.198  0.00  0.00    -0.160 N 
ATOM      2  N   UNL d   1     -47.460  12.141  23.443  0.00  0.00    -0.056 NA
ATOM      3  C   UNL d   1     -46.683  13.267  22.918  0.00  0.00     0.357 C 
ATOM      4  N   UNL d   1     -47.303  11.365  23.671  0.00  0.00    -0.128 NA
ATOM      5  C   UNL d   1     -46.169  11.914  23.269  0.00  0.00     0.108 A 
ATOM      6  N   UNL d   1     -47.337  13.763  22.879  0.00  0.00    -0.252 N 
ATOM      7  C   UNL d   1     -46.506  11.226  23.564  0.00  0.00     0.122 A 
ATOM      8  O   UNL d   1     -45.925  13.528  22.685  0.00  0.00    -0.244 OA
ATOM      9  O   UNL d   1     -48.646  14.758  22.801  0.00  0.00    -0.300 OA
ATOM     10  C   UNL d   1     -45.372  11.941  23.106  0.00  0.00     0.021 A 
ATOM     11  C   UNL d   1     -48.088  13.478  23.119  0.00  0.00     0.111 A 
ATOM     12  C   UNL d   1     -47.257  14.525  22.610  0.00  0.00     0.111 A 
ATOM     13  C   UNL d   1     -46.040  10.552  23.698  0.00  0.00     0.022 A 
ATOM     14  C   UNL d   1     -48.747  13.979  23.080  0.00  0.00     0.142 A 
ATOM     15  C   UNL d   1     -47.914  15.024  22.571  0.00  0.00     0.142 A 
ATOM     16  C   UNL d   1     -44.900  11.276  23.237  0.00  0.00     0.002 A 
ATOM     17  C   UNL d   1     -45.224  10.584  23.530  0.00  0.00     0.002 A 
ENDROOT
TORSDOF 0
ENDMDL
MODEL 8
REMARK VINA RESULT:      -5.8      8.636     10.327
REMARK  0 active torsions:
REMARK  status: ('A' for Active; 'I' for Inactive)
REMARK       I    between atoms: C_3  and  N_1 
REMARK       I    between atoms: N_6  and  C_3 
ROOT
ATOM      1  N   UNL d   1     -39.831  14.527  18.413  0.00  0.00    -0.160 N 
ATOM      2  N   UNL d   1     -39.805  13.819  18.811  0.00  0.00    -0.056 NA
ATOM      3  C   UNL d   1     -40.178  15.234  18.731  0.00  0.00     0.357 C 
ATOM      4  N   UNL d   1     -39.427  13.274  18.320  0.00  0.00    -0.128 NA
ATOM      5  C   UNL d   1     -39.478  14.434  17.686  0.00  0.00     0.108 A 
ATOM      6  N   UNL d   1     -40.515  15.237  19.479  0.00  0.00    -0.252 N 
ATOM      7  C   UNL d   1     -39.226  13.656  17.627  0.00  0.00     0.122 A 
ATOM      8  O   UNL d   1     -40.164  15.921  18.257  0.00  0.00    -0.244 OA
ATOM      9  O   UNL d   1     -41.191  15.245  20.980  0.00  0.00    -0.300 OA
ATOM     10  C   UNL d   1     -39.352  14.952  17.072  0.00  0.00     0.021 A 
ATOM     11  C   UNL d   1     -40.517  14.535  19.936  0.00  0.00     0.111 A 
ATOM     12  C   UNL d   1     -40.845  15.917  19.777  0.00  0.00     0.111 A 
ATOM     13  C   UNL d   1     -38.841  13.388  16.942  0.00  0.00     0.022 A 
ATOM     14  C   UNL d   1     -40.858  14.538  20.692  0.00  0.00     0.142 A 
ATOM     15  C   UNL d   1     -41.184  15.921  20.529  0.00  0.00     0.142 A 
ATOM     16  C   UNL d   1     -38.969  14.696  16.386  0.00  0.00     0.002 A 
ATOM     17  C   UNL d   1     -38.714  13.922  16.314  0.00  0.00     0.002 A 
ENDROOT
TORSDOF 0
ENDMDL
MODEL 9
REMARK VINA RESULT:      -5.7      9.034     10.260
REMARK  0 active torsions:
REMARK  status: ('A' for Active; 'I' for Inactive)
REMARK       I    between atoms: C_3  and  N_1 
REMARK       I    between atoms: N_6  and  C_3 
ROOT
ATOM      1  N   UNL d   1     -39.931  14.810  18.813  0.00  0.00    -0.160 N 
ATOM      2  N   UNL d   1     -40.182  15.406  18.321  0.00  0.00    -0.056 NA
ATOM      3  C   UNL d   1     -39.441  14.165  18.562  0.00  0.00     0.357 C 
ATOM      4  N   UNL d   1     -40.643  15.921  18.771  0.00  0.00    -0.128 NA
ATOM      5  C   UNL d   1     -40.227  14.944  19.560  0.00  0.00     0.108 A 
ATOM      6  N   UNL d   1     -39.186  14.108  17.783  0.00  0.00    -0.252 N 
ATOM      7  C   UNL d   1     -40.669  15.633  19.535  0.00  0.00     0.122 A 
ATOM      8  O   UNL d   1     -39.228  13.593  19.132  0.00  0.00    -0.244 OA
ATOM      9  O   UNL d   1     -38.676  13.995  16.222  0.00  0.00    -0.300 OA
ATOM     10  C   UNL d   1     -40.153  14.530  20.257  0.00  0.00     0.021 A 
ATOM     11  C   UNL d   1     -39.414  14.696  17.230  0.00  0.00     0.111 A 
ATOM     12  C   UNL d   1     -38.717  13.488  17.549  0.00  0.00     0.111 A 
ATOM     13  C   UNL d   1     -41.046  15.918  20.219  0.00  0.00     0.022 A 
ATOM     14  C   UNL d   1     -39.157  14.639  16.444  0.00  0.00     0.142 A 
ATOM     15  C   UNL d   1     -38.461  13.432  16.767  0.00  0.00     0.142 A 
ATOM     16  C   UNL d   1     -40.523  14.804  20.942  0.00  0.00     0.002 A 
ATOM     17  C   UNL d   1     -40.968  15.492  20.931  0.00  0.00     0.002 A 
ENDROOT
TORSDOF 0
ENDMDL
