MODEL 1
REMARK VINA RESULT:      76.0      0.000      0.000
REMARK  8 active torsions:
REMARK  status: ('A' for Active; 'I' for Inactive)
REMARK    1  A    between atoms: C_4  and  C_1 
REMARK    2  A    between atoms: C_10  and  C_2 
REMARK    3  A    between atoms: C_15  and  C_9 
REMARK    4  A    between atoms: O_21  and  C_10 
REMARK    5  A    between atoms: O_22  and  C_15 
REMARK    6  A    between atoms: C_24  and  C_17 
REMARK    7  A    between atoms: C_25  and  O_21 
REMARK    8  A    between atoms: C_26  and  O_22 
ROOT
ATOM      1  C   UNL d   1     -48.034  30.098  34.913  0.00  0.00     0.090 A 
ATOM      2  C   UNL d   1     -47.334  30.291  35.303  0.00  0.00     0.168 A 
ATOM      3  C   UNL d   1     -48.406  30.659  34.435  0.00  0.00     0.201 A 
ATOM      4  C   UNL d   1     -48.079  31.405  34.349  0.00  0.00     0.062 A 
ATOM      5  O   UNL d   1     -47.007  31.043  35.214  0.00  0.00    -0.301 OA
ATOM      6  C   UNL d   1     -47.379  31.598  34.739  0.00  0.00     0.106 A 
ATOM      7  C   UNL d   1     -48.450  31.939  33.883  0.00  0.00     0.008 A 
ATOM      8  C   UNL d   1     -47.051  32.323  34.662  0.00  0.00     0.067 A 
ATOM      9  C   UNL d   1     -47.424  32.883  34.184  0.00  0.00     0.198 A 
ATOM     10  C   UNL d   1     -48.124  32.691  33.794  0.00  0.00     0.039 A 
ATOM     11  O   UNL d   1     -49.106  30.466  34.045  0.00  0.00    -0.286 OA
ATOM     12  O   UNL d   1     -47.078  33.667  34.096  0.00  0.00    -0.286 OA
ENDROOT
BRANCH   1  13
ATOM     13  C   UNL d   1     -48.362  29.372  34.990  0.00  0.00     0.105 A 
ATOM     14  O   UNL d   1     -48.601  28.938  34.361  0.00  0.00    -0.302 OA
ATOM     15  C   UNL d   1     -48.915  28.213  34.637  0.00  0.00     0.163 A 
ATOM     16  C   UNL d   1     -48.858  28.220  35.466  0.00  0.00     0.032 A 
ATOM     17  C   UNL d   1     -48.509  28.951  35.686  0.00  0.00     0.027 A 
BRANCH  15  18
ATOM     18  C   UNL d   1     -49.230  27.591  34.157  0.00  0.00     0.323 C 
ATOM     19  O   UNL d   1     -48.953  26.827  34.226  0.00  0.00    -0.257 OA
BRANCH  18  20
ATOM     20  O   UNL d   1     -49.837  27.757  33.603  0.00  0.00    -0.270 OA
BRANCH  20  21
ATOM     21  C   UNL d   1     -50.353  27.168  33.360  0.00  0.00     0.126 C 
ATOM     22  C   UNL d   1     -50.117  26.393  33.308  0.00  0.00     0.029 C 
ENDBRANCH  20  21
ENDBRANCH  18  20
ENDBRANCH  15  18
ENDBRANCH   1  13
BRANCH   2  23
ATOM     23  C   UNL d   1     -46.942  29.741  35.789  0.00  0.00     0.323 C 
ATOM     24  O   UNL d   1     -46.385  29.231  35.446  0.00  0.00    -0.257 OA
BRANCH  23  25
ATOM     25  O   UNL d   1     -47.096  29.694  36.597  0.00  0.00    -0.270 OA
BRANCH  25  26
ATOM     26  C   UNL d   1     -46.468  29.719  37.138  0.00  0.00     0.126 C 
ATOM     27  C   UNL d   1     -46.594  30.011  37.898  0.00  0.00     0.029 C 
ENDBRANCH  25  26
ENDBRANCH  23  25
ENDBRANCH   2  23
BRANCH  10  28
ATOM     28  C   UNL d   1     -48.496  33.277  33.306  0.00  0.00     0.003 C 
ATOM     29  C   UNL d   1     -49.315  33.375  33.306  0.00  0.00     0.000 C 
ENDBRANCH  10  28
TORSDOF 8
ENDMDL
