MODEL 1
REMARK VINA RESULT:      -7.6      0.000      0.000
REMARK  7 active torsions:
REMARK  status: ('A' for Active; 'I' for Inactive)
REMARK    1  A    between atoms: N_9  and  C_1 
REMARK    2  A    between atoms: C_10  and  C_2 
REMARK    3  A    between atoms: C_5  and  S_14 
REMARK       I    between atoms: C_13  and  N_9 
REMARK    4  A    between atoms: O_18  and  C_10 
REMARK    5  A    between atoms: C_17  and  C_13 
REMARK    6  A    between atoms: S_14  and  C_17 
REMARK    7  A    between atoms: C_23  and  O_18 
ROOT
ATOM      1  N   UNL d   1      49.415  34.878  52.894  0.00  0.00    -0.201 NA
ATOM      2  C   UNL d   1      50.053  34.458  52.566  0.00  0.00     0.286 C 
ATOM      3  O   UNL d   1      50.044  34.273  51.752  0.00  0.00    -0.265 OA
ENDROOT
BRANCH   1   4
ATOM      4  C   UNL d   1      48.780  35.110  52.422  0.00  0.00     0.119 A 
ATOM      5  C   UNL d   1      48.199  35.655  52.634  0.00  0.00     0.088 A 
ATOM      6  C   UNL d   1      47.677  35.717  51.999  0.00  0.00     0.013 A 
ATOM      7  C   UNL d   1      47.010  36.203  51.970  0.00  0.00     0.001 C 
ATOM      8  C   UNL d   1      47.934  35.214  51.398  0.00  0.00     0.031 A 
ATOM      9  S   UNL d   1      48.621  34.837  51.665  0.00  0.00    -0.068 SA
ATOM     10  C   UNL d   1      47.575  35.107  50.672  0.00  0.00     0.007 C 
BRANCH   5  11
ATOM     11  C   UNL d   1      48.146  36.066  53.351  0.00  0.00     0.302 C 
ATOM     12  O   UNL d   1      48.630  36.709  53.488  0.00  0.00    -0.259 OA
BRANCH  11  13
ATOM     13  O   UNL d   1      47.602  35.817  53.918  0.00  0.00    -0.271 OA
BRANCH  13  14
ATOM     14  C   UNL d   1      47.451  36.276  54.584  0.00  0.00     0.126 C 
ATOM     15  C   UNL d   1      46.916  36.015  55.162  0.00  0.00     0.029 C 
ENDBRANCH  13  14
ENDBRANCH  11  13
ENDBRANCH   5  11
ENDBRANCH   1   4
BRANCH   2  16
ATOM     16  C   UNL d   1      50.688  34.227  53.039  0.00  0.00     0.100 C 
BRANCH  16  17
ATOM     17  S   UNL d   1      51.440  34.129  52.706  0.00  0.00    -0.056 SA
BRANCH  17  18
ATOM     18  C   UNL d   1      52.074  33.856  53.174  0.00  0.00     0.141 A 
ATOM     19  N   UNL d   1      52.341  33.072  53.209  0.00  0.00    -0.232 NA
ATOM     20  C   UNL d   1      52.982  33.048  53.745  0.00  0.00     0.088 A 
ATOM     21  C   UNL d   1      53.463  32.432  54.002  0.00  0.00     0.020 A 
ATOM     22  C   UNL d   1      53.101  33.820  54.034  0.00  0.00     0.049 A 
ATOM     23  C   UNL d   1      54.064  32.581  54.546  0.00  0.00     0.002 A 
ATOM     24  C   UNL d   1      54.183  33.354  54.834  0.00  0.00     0.001 A 
ATOM     25  C   UNL d   1      53.701  33.970  54.577  0.00  0.00     0.008 A 
ATOM     26  S   UNL d   1      52.533  34.316  53.674  0.00  0.00    -0.060 SA
ENDBRANCH  17  18
ENDBRANCH  16  17
ENDBRANCH   2  16
TORSDOF 7
ENDMDL
MODEL 2
REMARK VINA RESULT:      -7.5      1.542      5.913
REMARK  7 active torsions:
REMARK  status: ('A' for Active; 'I' for Inactive)
REMARK    1  A    between atoms: N_9  and  C_1 
REMARK    2  A    between atoms: C_10  and  C_2 
REMARK    3  A    between atoms: C_5  and  S_14 
REMARK       I    between atoms: C_13  and  N_9 
REMARK    4  A    between atoms: O_18  and  C_10 
REMARK    5  A    between atoms: C_17  and  C_13 
REMARK    6  A    between atoms: S_14  and  C_17 
REMARK    7  A    between atoms: C_23  and  O_18 
ROOT
ATOM      1  N   UNL d   1      51.758  33.246  53.429  0.00  0.00    -0.201 NA
ATOM      2  C   UNL d   1      51.382  33.979  53.322  0.00  0.00     0.286 C 
ATOM      3  O   UNL d   1      51.804  34.682  53.483  0.00  0.00    -0.265 OA
ENDROOT
BRANCH   1   4
ATOM      4  C   UNL d   1      52.539  33.211  53.691  0.00  0.00     0.119 A 
ATOM      5  C   UNL d   1      53.077  32.611  53.516  0.00  0.00     0.088 A 
ATOM      6  C   UNL d   1      53.787  32.801  53.892  0.00  0.00     0.013 A 
ATOM      7  C   UNL d   1      54.479  32.352  53.866  0.00  0.00     0.001 C 
ATOM      8  C   UNL d   1      53.688  33.514  54.295  0.00  0.00     0.031 A 
ATOM      9  S   UNL d   1      52.910  33.767  54.168  0.00  0.00    -0.068 SA
ATOM     10  C   UNL d   1      54.255  33.900  54.739  0.00  0.00     0.007 C 
BRANCH   5  11
ATOM     11  C   UNL d   1      52.935  31.941  53.052  0.00  0.00     0.302 C 
ATOM     12  O   UNL d   1      52.981  31.994  52.238  0.00  0.00    -0.259 OA
BRANCH  11  13
ATOM     13  O   UNL d   1      52.748  31.228  53.421  0.00  0.00    -0.271 OA
BRANCH  13  14
ATOM     14  C   UNL d   1      52.659  30.539  52.980  0.00  0.00     0.126 C 
ATOM     15  C   UNL d   1      52.633  29.800  53.356  0.00  0.00     0.029 C 
ENDBRANCH  13  14
ENDBRANCH  11  13
ENDBRANCH   5  11
ENDBRANCH   1   4
BRANCH   2  16
ATOM     16  C   UNL d   1      50.601  34.014  53.060  0.00  0.00     0.100 C 
BRANCH  16  17
ATOM     17  S   UNL d   1      50.403  34.480  52.404  0.00  0.00    -0.056 SA
BRANCH  17  18
ATOM     18  C   UNL d   1      49.633  34.793  52.330  0.00  0.00     0.141 A 
ATOM     19  N   UNL d   1      49.245  35.250  52.901  0.00  0.00    -0.232 NA
ATOM     20  C   UNL d   1      48.490  35.444  52.599  0.00  0.00     0.088 A 
ATOM     21  C   UNL d   1      47.866  35.880  52.910  0.00  0.00     0.020 A 
ATOM     22  C   UNL d   1      48.424  35.102  51.842  0.00  0.00     0.049 A 
ATOM     23  C   UNL d   1      47.175  35.979  52.472  0.00  0.00     0.002 A 
ATOM     24  C   UNL d   1      47.109  35.637  51.715  0.00  0.00     0.001 A 
ATOM     25  C   UNL d   1      47.735  35.200  51.403  0.00  0.00     0.008 A 
ATOM     26  S   UNL d   1      49.138  34.699  51.682  0.00  0.00    -0.060 SA
ENDBRANCH  17  18
ENDBRANCH  16  17
ENDBRANCH   2  16
TORSDOF 7
ENDMDL
MODEL 3
REMARK VINA RESULT:      -7.1      1.699      5.750
REMARK  7 active torsions:
REMARK  status: ('A' for Active; 'I' for Inactive)
REMARK    1  A    between atoms: N_9  and  C_1 
REMARK    2  A    between atoms: C_10  and  C_2 
REMARK    3  A    between atoms: C_5  and  S_14 
REMARK       I    between atoms: C_13  and  N_9 
REMARK    4  A    between atoms: O_18  and  C_10 
REMARK    5  A    between atoms: C_17  and  C_13 
REMARK    6  A    between atoms: S_14  and  C_17 
REMARK    7  A    between atoms: C_23  and  O_18 
ROOT
ATOM      1  N   UNL d   1      52.044  33.200  53.244  0.00  0.00    -0.201 NA
ATOM      2  C   UNL d   1      51.215  33.207  53.204  0.00  0.00     0.286 C 
ATOM      3  O   UNL d   1      50.803  32.482  53.155  0.00  0.00    -0.265 OA
ENDROOT
BRANCH   1   4
ATOM      4  C   UNL d   1      52.458  32.486  53.236  0.00  0.00     0.119 A 
ATOM      5  C   UNL d   1      53.248  32.387  53.450  0.00  0.00     0.088 A 
ATOM      6  C   UNL d   1      53.429  31.588  53.357  0.00  0.00     0.013 A 
ATOM      7  C   UNL d   1      54.162  31.240  53.510  0.00  0.00     0.001 C 
ATOM      8  C   UNL d   1      52.755  31.196  53.087  0.00  0.00     0.031 A 
ATOM      9  S   UNL d   1      52.152  31.758  53.013  0.00  0.00    -0.068 SA
ATOM     10  C   UNL d   1      52.694  30.398  52.924  0.00  0.00     0.007 C 
BRANCH   5  11
ATOM     11  C   UNL d   1      53.766  32.978  53.710  0.00  0.00     0.302 C 
ATOM     12  O   UNL d   1      54.140  33.459  53.166  0.00  0.00    -0.259 OA
BRANCH  11  13
ATOM     13  O   UNL d   1      53.897  33.071  54.519  0.00  0.00    -0.271 OA
BRANCH  13  14
ATOM     14  C   UNL d   1      54.440  33.624  54.795  0.00  0.00     0.126 C 
ATOM     15  C   UNL d   1      54.674  33.621  55.591  0.00  0.00     0.029 C 
ENDBRANCH  13  14
ENDBRANCH  11  13
ENDBRANCH   5  11
ENDBRANCH   1   4
BRANCH   2  16
ATOM     16  C   UNL d   1      50.801  33.921  53.213  0.00  0.00     0.100 C 
BRANCH  16  17
ATOM     17  S   UNL d   1      50.402  34.178  52.535  0.00  0.00    -0.056 SA
BRANCH  17  18
ATOM     18  C   UNL d   1      49.734  34.673  52.605  0.00  0.00     0.141 A 
ATOM     19  N   UNL d   1      49.542  35.128  53.270  0.00  0.00    -0.232 NA
ATOM     20  C   UNL d   1      48.832  35.535  53.101  0.00  0.00     0.088 A 
ATOM     21  C   UNL d   1      48.379  36.062  53.542  0.00  0.00     0.020 A 
ATOM     22  C   UNL d   1      48.596  35.324  52.330  0.00  0.00     0.049 A 
ATOM     23  C   UNL d   1      47.691  36.380  53.220  0.00  0.00     0.002 A 
ATOM     24  C   UNL d   1      47.455  36.169  52.449  0.00  0.00     0.001 A 
ATOM     25  C   UNL d   1      47.908  35.642  52.008  0.00  0.00     0.008 A 
ATOM     26  S   UNL d   1      49.161  34.788  52.029  0.00  0.00    -0.060 SA
ENDBRANCH  17  18
ENDBRANCH  16  17
ENDBRANCH   2  16
TORSDOF 7
ENDMDL
MODEL 4
REMARK VINA RESULT:      -4.8      1.161      2.011
REMARK  7 active torsions:
REMARK  status: ('A' for Active; 'I' for Inactive)
REMARK    1  A    between atoms: N_9  and  C_1 
REMARK    2  A    between atoms: C_10  and  C_2 
REMARK    3  A    between atoms: C_5  and  S_14 
REMARK       I    between atoms: C_13  and  N_9 
REMARK    4  A    between atoms: O_18  and  C_10 
REMARK    5  A    between atoms: C_17  and  C_13 
REMARK    6  A    between atoms: S_14  and  C_17 
REMARK    7  A    between atoms: C_23  and  O_18 
ROOT
ATOM      1  N   UNL d   1      49.167  34.859  52.656  0.00  0.00    -0.201 NA
ATOM      2  C   UNL d   1      49.907  34.790  53.027  0.00  0.00     0.286 C 
ATOM      3  O   UNL d   1      50.087  35.287  53.674  0.00  0.00    -0.265 OA
ENDROOT
BRANCH   1   4
ATOM      4  C   UNL d   1      48.616  35.412  52.922  0.00  0.00     0.119 A 
ATOM      5  C   UNL d   1      48.007  35.736  52.471  0.00  0.00     0.088 A 
ATOM      6  C   UNL d   1      47.594  36.261  52.957  0.00  0.00     0.013 A 
ATOM      7  C   UNL d   1      46.939  36.709  52.732  0.00  0.00     0.001 C 
ATOM      8  C   UNL d   1      47.946  36.259  53.703  0.00  0.00     0.031 A 
ATOM      9  S   UNL d   1      48.582  35.730  53.678  0.00  0.00    -0.068 SA
ATOM     10  C   UNL d   1      47.710  36.700  54.348  0.00  0.00     0.007 C 
BRANCH   5  11
ATOM     11  C   UNL d   1      47.837  35.570  51.678  0.00  0.00     0.302 C 
ATOM     12  O   UNL d   1      48.252  35.950  51.085  0.00  0.00    -0.259 OA
BRANCH  11  13
ATOM     13  O   UNL d   1      47.249  35.021  51.499  0.00  0.00    -0.271 OA
BRANCH  13  14
ATOM     14  C   UNL d   1      46.898  35.011  50.755  0.00  0.00     0.126 C 
ATOM     15  C   UNL d   1      46.089  34.844  50.675  0.00  0.00     0.029 C 
ENDBRANCH  13  14
ENDBRANCH  11  13
ENDBRANCH   5  11
ENDBRANCH   1   4
BRANCH   2  16
ATOM     16  C   UNL d   1      50.458  34.237  52.761  0.00  0.00     0.100 C 
BRANCH  16  17
ATOM     17  S   UNL d   1      51.269  34.391  52.830  0.00  0.00    -0.056 SA
BRANCH  17  18
ATOM     18  C   UNL d   1      51.804  33.767  52.973  0.00  0.00     0.141 A 
ATOM     19  N   UNL d   1      51.695  32.981  52.737  0.00  0.00    -0.232 NA
ATOM     20  C   UNL d   1      52.362  32.547  52.993  0.00  0.00     0.088 A 
ATOM     21  C   UNL d   1      52.565  31.752  52.920  0.00  0.00     0.020 A 
ATOM     22  C   UNL d   1      52.874  33.074  53.384  0.00  0.00     0.049 A 
ATOM     23  C   UNL d   1      53.276  31.480  53.236  0.00  0.00     0.002 A 
ATOM     24  C   UNL d   1      53.788  32.008  53.628  0.00  0.00     0.001 A 
ATOM     25  C   UNL d   1      53.584  32.803  53.700  0.00  0.00     0.008 A 
ATOM     26  S   UNL d   1      52.520  33.831  53.368  0.00  0.00    -0.060 SA
ENDBRANCH  17  18
ENDBRANCH  16  17
ENDBRANCH   2  16
TORSDOF 7
ENDMDL
