MODEL 1
REMARK VINA RESULT:      60.3      0.000      0.000
REMARK  10 active torsions:
REMARK  status: ('A' for Active; 'I' for Inactive)
REMARK    1  A    between atoms: C_5  and  C_1 
REMARK    2  A    between atoms: N_6  and  C_2 
REMARK    3  A    between atoms: C_7  and  C_5 
REMARK    4  A    between atoms: C_8  and  C_5 
REMARK    5  A    between atoms: O_13  and  C_7 
REMARK    6  A    between atoms: C_20  and  N_12 
REMARK    7  A    between atoms: C_19  and  O_13 
REMARK    8  A    between atoms: C_23  and  C_19 
REMARK    9  A    between atoms: C_24  and  C_23 
REMARK   10  A    between atoms: C_25  and  C_23 
ROOT
ATOM      1  C   UNL d   1      14.603  14.338  -2.002  0.00  0.00     0.122 A 
ATOM      2  C   UNL d   1      14.855  14.690  -1.303  0.00  0.00     0.166 A 
ATOM      3  N   UNL d   1      14.996  14.217  -0.647  0.00  0.00    -0.225 NA
ATOM      4  N   UNL d   1      14.495  13.521  -2.045  0.00  0.00    -0.241 NA
ATOM      5  C   UNL d   1      14.892  13.410  -0.681  0.00  0.00     0.101 A 
ATOM      6  C   UNL d   1      14.639  13.059  -1.386  0.00  0.00     0.099 A 
ATOM      7  C   UNL d   1      15.036  12.940  -0.018  0.00  0.00     0.021 A 
ATOM      8  C   UNL d   1      14.533  12.249  -1.424  0.00  0.00     0.021 A 
ATOM      9  C   UNL d   1      14.927  12.124  -0.061  0.00  0.00     0.002 A 
ATOM     10  C   UNL d   1      14.677  11.780  -0.761  0.00  0.00     0.002 A 
ENDROOT
BRANCH   1  11
ATOM     11  C   UNL d   1      14.455  14.802  -2.676  0.00  0.00     0.105 C 
BRANCH  11  12
ATOM     12  C   UNL d   1      13.720  14.778  -3.053  0.00  0.00     0.303 C 
ATOM     13  O   UNL d   1      13.255  15.447  -3.047  0.00  0.00    -0.259 OA
BRANCH  12  14
ATOM     14  O   UNL d   1      13.478  14.092  -3.419  0.00  0.00    -0.271 OA
BRANCH  14  15
ATOM     15  C   UNL d   1      12.955  13.713  -3.921  0.00  0.00     0.126 C 
BRANCH  15  16
ATOM     16  C   UNL d   1      13.214  13.081  -4.363  0.00  0.00     0.025 C 
BRANCH  16  17
ATOM     17  C   UNL d   1      13.354  12.367  -4.007  0.00  0.00     0.002 C 
ATOM     18  C   UNL d   1      12.772  11.780  -4.013  0.00  0.00     0.000 C 
ENDBRANCH  16  17
BRANCH  16  19
ATOM     19  C   UNL d   1      13.331  13.173  -5.172  0.00  0.00     0.002 C 
ATOM     20  C   UNL d   1      13.617  12.555  -5.630  0.00  0.00     0.000 C 
ENDBRANCH  16  19
ENDBRANCH  15  16
ENDBRANCH  14  15
ENDBRANCH  12  14
ENDBRANCH  11  12
BRANCH  11  21
ATOM     21  C   UNL d   1      15.056  15.295  -2.972  0.00  0.00     0.129 C 
ATOM     22  N   UNL d   1      15.034  15.657  -3.852  0.00  0.00    -0.146 N 
ENDBRANCH  11  21
ENDBRANCH   1  11
BRANCH   2  23
ATOM     23  N   UNL d   1      14.961  15.503  -1.267  0.00  0.00    -0.285 N 
ATOM     24  C   UNL d   1      15.614  15.848  -1.618  0.00  0.00     0.101 A 
ATOM     25  C   UNL d   1      15.715  16.666  -1.579  0.00  0.00     0.100 A 
ATOM     26  N   UNL d   1      15.157  17.133  -1.185  0.00  0.00    -0.300 N 
ATOM     27  C   UNL d   1      14.500  16.782  -0.832  0.00  0.00     0.100 A 
ATOM     28  C   UNL d   1      14.403  15.970  -0.873  0.00  0.00     0.101 A 
BRANCH  26  29
ATOM     29  C   UNL d   1      15.262  17.957  -1.147  0.00  0.00     0.080 C 
ATOM     30  C   UNL d   1      14.788  18.446  -1.615  0.00  0.00     0.021 C 
ENDBRANCH  26  29
ENDBRANCH   2  23
TORSDOF 10
ENDMDL
