MODEL 1
REMARK VINA RESULT:     105.5      0.000      0.000
REMARK  5 active torsions:
REMARK  status: ('A' for Active; 'I' for Inactive)
REMARK    1  A    between atoms: C_12  and  N_3 
REMARK    2  A    between atoms: C_11  and  C_5 
REMARK    3  A    between atoms: C_10  and  C_8 
REMARK    4  A    between atoms: O_27  and  C_14 
REMARK    5  A    between atoms: O_28  and  C_21 
ROOT
ATOM      1  C   UNL d   1      61.022  48.280  51.606  0.00  0.00     0.143 A 
ATOM      2  C   UNL d   1      60.738  47.799  50.996  0.00  0.00     0.172 A 
ATOM      3  N   UNL d   1      61.216  47.122  50.947  0.00  0.00    -0.242 N 
ATOM      4  C   UNL d   1      61.798  47.189  51.533  0.00  0.00     0.355 A 
ATOM      5  C   UNL d   1      60.655  48.986  51.778  0.00  0.00     0.163 A 
ATOM      6  N   UNL d   1      60.076  48.035  50.556  0.00  0.00    -0.207 NA
ATOM      7  N   UNL d   1      61.675  47.901  51.934  0.00  0.00    -0.187 NA
ATOM      8  C   UNL d   1      59.709  48.755  50.739  0.00  0.00     0.166 A 
ATOM      9  N   UNL d   1      59.998  49.231  51.350  0.00  0.00    -0.220 NA
ATOM     10  O   UNL d   1      62.394  46.636  51.682  0.00  0.00    -0.244 OA
ENDROOT
BRANCH   8  11
ATOM     11  C   UNL d   1      59.052  48.997  50.308  0.00  0.00     0.060 A 
ATOM     12  C   UNL d   1      59.149  49.463  49.639  0.00  0.00     0.097 A 
ATOM     13  C   UNL d   1      58.486  49.707  49.205  0.00  0.00     0.026 A 
ATOM     14  C   UNL d   1      57.737  49.483  49.445  0.00  0.00     0.026 A 
ATOM     15  C   UNL d   1      57.649  49.017  50.116  0.00  0.00     0.094 A 
ATOM     16  C   UNL d   1      58.295  48.771  50.551  0.00  0.00     0.029 A 
BRANCH  12  17
ATOM     17  O   UNL d   1      59.910  49.686  49.402  0.00  0.00    -0.328 OA
ATOM     18  C   UNL d   1      60.381  49.125  49.014  0.00  0.00     0.181 C 
ENDBRANCH  12  17
BRANCH  15  19
ATOM     19  O   UNL d   1      56.892  48.791  50.358  0.00  0.00    -0.328 OA
ATOM     20  C   UNL d   1      56.320  49.364  50.517  0.00  0.00     0.181 C 
ENDBRANCH  15  19
ENDBRANCH   8  11
BRANCH   5  21
ATOM     21  C   UNL d   1      60.938  49.466  52.387  0.00  0.00     0.316 C 
ATOM     22  O   UNL d   1      61.727  49.706  52.400  0.00  0.00    -0.262 OA
ATOM     23  N   UNL d   1      60.418  49.707  52.990  0.00  0.00    -0.101 N 
ENDBRANCH   5  21
BRANCH   3  24
ATOM     24  C   UNL d   1      61.128  46.504  50.418  0.00  0.00     0.070 A 
ATOM     25  C   UNL d   1      61.592  46.485  49.752  0.00  0.00     0.020 A 
ATOM     26  C   UNL d   1      61.503  45.858  49.215  0.00  0.00     0.031 A 
ATOM     27  C   UNL d   1      60.943  45.265  49.369  0.00  0.00     0.140 A 
ATOM     28  C   UNL d   1      60.478  45.290  50.043  0.00  0.00     0.031 A 
ATOM     29  F   UNL d   1      60.859  44.643  48.829  0.00  0.00    -0.204 F 
ATOM     30  C   UNL d   1      60.571  45.914  50.571  0.00  0.00     0.020 A 
ENDBRANCH   3  24
TORSDOF 5
ENDMDL
