MODEL 1
REMARK VINA RESULT:      -3.9      0.000      0.000
REMARK  2 active torsions:
REMARK  status: ('A' for Active; 'I' for Inactive)
REMARK       I    between atoms: C_3  and  N_1 
REMARK    1  A    between atoms: C_7  and  C_3 
REMARK    2  A    between atoms: O_15  and  C_11 
ROOT
ATOM      1  N   UNL d   1     -41.390-122.561 -52.373  0.00  0.00    -0.195 N 
ATOM      2  N   UNL d   1     -41.425-121.733 -52.289  0.00  0.00    -0.163 NA
ATOM      3  C   UNL d   1     -41.516-123.005 -53.054  0.00  0.00     0.280 C 
ATOM      4  C   UNL d   1     -41.211-122.884 -51.676  0.00  0.00     0.088 A 
ATOM      5  C   UNL d   1     -41.123-122.277 -51.113  0.00  0.00     0.040 A 
ATOM      6  C   UNL d   1     -41.256-121.570 -51.498  0.00  0.00     0.103 A 
ATOM      7  O   UNL d   1     -41.455-123.816 -53.017  0.00  0.00    -0.265 OA
ATOM      8  C   UNL d   1     -41.123-123.716 -51.526  0.00  0.00     0.021 C 
ATOM      9  C   UNL d   1     -41.223-120.811 -51.135  0.00  0.00     0.022 C 
ENDROOT
BRANCH   3  10
ATOM     10  C   UNL d   1     -41.704-122.644 -53.780  0.00  0.00     0.058 A 
ATOM     11  C   UNL d   1     -41.144-122.629 -54.385  0.00  0.00     0.007 A 
ATOM     12  C   UNL d   1     -41.318-122.276 -55.106  0.00  0.00     0.024 A 
ATOM     13  C   UNL d   1     -42.054-121.935 -55.225  0.00  0.00     0.094 A 
ATOM     14  C   UNL d   1     -42.620-121.946 -54.624  0.00  0.00     0.024 A 
ATOM     15  C   UNL d   1     -42.456-122.296 -53.902  0.00  0.00     0.007 A 
BRANCH  13  16
ATOM     16  O   UNL d   1     -42.217-121.580 -55.962  0.00  0.00    -0.328 OA
ATOM     17  C   UNL d   1     -42.836-121.875 -56.441  0.00  0.00     0.181 C 
ENDBRANCH  13  16
ENDBRANCH   3  10
TORSDOF 2
ENDMDL
MODEL 2
REMARK VINA RESULT:      -3.3      1.322      3.562
REMARK  2 active torsions:
REMARK  status: ('A' for Active; 'I' for Inactive)
REMARK       I    between atoms: C_3  and  N_1 
REMARK    1  A    between atoms: C_7  and  C_3 
REMARK    2  A    between atoms: O_15  and  C_11 
ROOT
ATOM      1  N   UNL d   1     -41.723-122.676 -53.789  0.00  0.00    -0.195 N 
ATOM      2  N   UNL d   1     -42.100-121.934 -53.825  0.00  0.00    -0.163 NA
ATOM      3  C   UNL d   1     -41.496-123.094 -53.118  0.00  0.00     0.280 C 
ATOM      4  C   UNL d   1     -41.604-122.941 -54.522  0.00  0.00     0.088 A 
ATOM      5  C   UNL d   1     -41.900-122.381 -55.062  0.00  0.00     0.040 A 
ATOM      6  C   UNL d   1     -42.204-121.763 -54.626  0.00  0.00     0.103 A 
ATOM      7  O   UNL d   1     -41.132-123.817 -53.204  0.00  0.00    -0.265 OA
ATOM      8  C   UNL d   1     -41.234-123.679 -54.725  0.00  0.00     0.021 C 
ATOM      9  C   UNL d   1     -42.560-121.073 -54.953  0.00  0.00     0.022 C 
ENDROOT
BRANCH   3  10
ATOM     10  C   UNL d   1     -41.632-122.796 -52.353  0.00  0.00     0.058 A 
ATOM     11  C   UNL d   1     -42.268-123.077 -51.912  0.00  0.00     0.007 A 
ATOM     12  C   UNL d   1     -42.412-122.790 -51.156  0.00  0.00     0.024 A 
ATOM     13  C   UNL d   1     -41.918-122.219 -50.836  0.00  0.00     0.094 A 
ATOM     14  C   UNL d   1     -41.278-121.931 -51.272  0.00  0.00     0.024 A 
ATOM     15  C   UNL d   1     -41.127-122.211 -52.027  0.00  0.00     0.007 A 
BRANCH  13  16
ATOM     16  O   UNL d   1     -42.075-121.936 -50.067  0.00  0.00    -0.328 OA
ATOM     17  C   UNL d   1     -42.283-122.471 -49.459  0.00  0.00     0.181 C 
ENDBRANCH  13  16
ENDBRANCH   3  10
TORSDOF 2
ENDMDL
MODEL 3
REMARK VINA RESULT:      -3.0      2.407      3.411
REMARK  2 active torsions:
REMARK  status: ('A' for Active; 'I' for Inactive)
REMARK       I    between atoms: C_3  and  N_1 
REMARK    1  A    between atoms: C_7  and  C_3 
REMARK    2  A    between atoms: O_15  and  C_11 
ROOT
ATOM      1  N   UNL d   1     -42.440-123.106 -49.541  0.00  0.00    -0.195 N 
ATOM      2  N   UNL d   1     -43.115-123.295 -49.991  0.00  0.00    -0.163 NA
ATOM      3  C   UNL d   1     -41.719-122.818 -49.810  0.00  0.00     0.280 C 
ATOM      4  C   UNL d   1     -42.590-123.248 -48.780  0.00  0.00     0.088 A 
ATOM      5  C   UNL d   1     -43.368-123.534 -48.707  0.00  0.00     0.040 A 
ATOM      6  C   UNL d   1     -43.686-123.560 -49.457  0.00  0.00     0.103 A 
ATOM      7  O   UNL d   1     -41.124-122.668 -49.274  0.00  0.00    -0.265 OA
ATOM      8  C   UNL d   1     -42.043-123.128 -48.140  0.00  0.00     0.021 C 
ATOM      9  C   UNL d   1     -44.467-123.817 -49.640  0.00  0.00     0.022 C 
ENDROOT
BRANCH   3  10
ATOM     10  C   UNL d   1     -41.582-122.675 -50.619  0.00  0.00     0.058 A 
ATOM     11  C   UNL d   1     -41.262-123.271 -51.090  0.00  0.00     0.007 A 
ATOM     12  C   UNL d   1     -41.123-123.143 -51.889  0.00  0.00     0.024 A 
ATOM     13  C   UNL d   1     -41.303-122.415 -52.222  0.00  0.00     0.094 A 
ATOM     14  C   UNL d   1     -41.624-121.813 -51.757  0.00  0.00     0.024 A 
ATOM     15  C   UNL d   1     -41.766-121.932 -50.959  0.00  0.00     0.007 A 
BRANCH  13  16
ATOM     16  O   UNL d   1     -41.156-122.298 -53.035  0.00  0.00    -0.328 OA
ATOM     17  C   UNL d   1     -41.795-122.192 -53.564  0.00  0.00     0.181 C 
ENDBRANCH  13  16
ENDBRANCH   3  10
TORSDOF 2
ENDMDL
MODEL 4
REMARK VINA RESULT:      -2.8      1.101      1.608
REMARK  2 active torsions:
REMARK  status: ('A' for Active; 'I' for Inactive)
REMARK       I    between atoms: C_3  and  N_1 
REMARK    1  A    between atoms: C_7  and  C_3 
REMARK    2  A    between atoms: O_15  and  C_11 
ROOT
ATOM      1  N   UNL d   1     -41.552-122.056 -51.694  0.00  0.00    -0.195 N 
ATOM      2  N   UNL d   1     -41.781-122.855 -51.647  0.00  0.00    -0.163 NA
ATOM      3  C   UNL d   1     -41.501-121.584 -52.366  0.00  0.00     0.280 C 
ATOM      4  C   UNL d   1     -41.380-121.794 -50.970  0.00  0.00     0.088 A 
ATOM      5  C   UNL d   1     -41.491-122.414 -50.426  0.00  0.00     0.040 A 
ATOM      6  C   UNL d   1     -41.739-123.065 -50.850  0.00  0.00     0.103 A 
ATOM      7  O   UNL d   1     -41.263-120.809 -52.291  0.00  0.00    -0.265 OA
ATOM      8  C   UNL d   1     -41.123-121.006 -50.780  0.00  0.00     0.021 C 
ATOM      9  C   UNL d   1     -41.917-123.817 -50.515  0.00  0.00     0.022 C 
ENDROOT
BRANCH   3  10
ATOM     10  C   UNL d   1     -41.687-121.882 -53.121  0.00  0.00     0.058 A 
ATOM     11  C   UNL d   1     -41.123-122.312 -53.540  0.00  0.00     0.007 A 
ATOM     12  C   UNL d   1     -41.295-122.610 -54.286  0.00  0.00     0.024 A 
ATOM     13  C   UNL d   1     -42.034-122.479 -54.616  0.00  0.00     0.094 A 
ATOM     14  C   UNL d   1     -42.605-122.049 -54.203  0.00  0.00     0.024 A 
ATOM     15  C   UNL d   1     -42.442-121.748 -53.459  0.00  0.00     0.007 A 
BRANCH  13  16
ATOM     16  O   UNL d   1     -42.196-122.788 -55.375  0.00  0.00    -0.328 OA
ATOM     17  C   UNL d   1     -42.500-122.289 -55.974  0.00  0.00     0.181 C 
ENDBRANCH  13  16
ENDBRANCH   3  10
TORSDOF 2
ENDMDL
