MODEL 1
REMARK VINA RESULT:      -2.9      0.000      0.000
REMARK  4 active torsions:
REMARK  status: ('A' for Active; 'I' for Inactive)
REMARK    1  A    between atoms: N_2  and  S_1 
REMARK    2  A    between atoms: C_3  and  S_1 
REMARK    3  A    between atoms: O_15  and  C_11 
REMARK    4  A    between atoms: O_17  and  C_13 
ROOT
ATOM      1  C   UNL d   1     -41.990-122.716 -50.213  0.00  0.00     0.128 A 
ATOM      2  C   UNL d   1     -41.441-122.996 -49.659  0.00  0.00     0.039 A 
ATOM      3  C   UNL d   1     -42.764-122.571 -49.986  0.00  0.00     0.106 A 
ATOM      4  C   UNL d   1     -42.993-122.706 -49.201  0.00  0.00     0.027 A 
ATOM      5  C   UNL d   1     -41.670-123.129 -48.883  0.00  0.00     0.095 A 
ATOM      6  C   UNL d   1     -42.449-122.984 -48.653  0.00  0.00     0.026 A 
ENDROOT
BRANCH   1   7
ATOM      7  S   UNL d   1     -41.764-122.580 -50.997  0.00  0.00     0.274 S 
ATOM      8  O   UNL d   1     -41.871-123.376 -51.174  0.00  0.00    -0.199 OA
ATOM      9  O   UNL d   1     -41.657-121.780 -50.820  0.00  0.00    -0.199 OA
BRANCH   7  10
ATOM     10  N   UNL d   1     -41.540-122.436 -51.768  0.00  0.00    -0.213 N 
ATOM     11  C   UNL d   1     -41.305-122.996 -52.285  0.00  0.00     0.157 A 
ATOM     12  N   UNL d   1     -41.123-122.625 -53.016  0.00  0.00    -0.224 NA
ATOM     13  C   UNL d   1     -41.224-123.816 -52.208  0.00  0.00     0.041 C 
ATOM     14  C   UNL d   1     -41.261-121.823 -52.905  0.00  0.00     0.120 A 
ATOM     15  C   UNL d   1     -41.525-121.710 -52.111  0.00  0.00     0.114 A 
ENDBRANCH   7  10
ENDBRANCH   1   7
BRANCH   3  16
ATOM     16  O   UNL d   1     -43.313-122.290 -50.539  0.00  0.00    -0.327 OA
ATOM     17  C   UNL d   1     -44.107-122.239 -50.333  0.00  0.00     0.181 C 
ENDBRANCH   3  16
BRANCH   5  18
ATOM     18  O   UNL d   1     -41.123-123.409 -48.332  0.00  0.00    -0.328 OA
ATOM     19  C   UNL d   1     -41.216-123.225 -47.535  0.00  0.00     0.181 C 
ENDBRANCH   5  18
TORSDOF 4
ENDMDL
MODEL 2
REMARK VINA RESULT:      -2.3      1.640      2.489
REMARK  4 active torsions:
REMARK  status: ('A' for Active; 'I' for Inactive)
REMARK    1  A    between atoms: N_2  and  S_1 
REMARK    2  A    between atoms: C_3  and  S_1 
REMARK    3  A    between atoms: O_15  and  C_11 
REMARK    4  A    between atoms: O_17  and  C_13 
ROOT
ATOM      1  C   UNL d   1     -41.729-122.522 -52.312  0.00  0.00     0.128 A 
ATOM      2  C   UNL d   1     -41.872-123.188 -51.839  0.00  0.00     0.039 A 
ATOM      3  C   UNL d   1     -41.456-121.829 -51.972  0.00  0.00     0.106 A 
ATOM      4  C   UNL d   1     -41.324-121.797 -51.155  0.00  0.00     0.027 A 
ATOM      5  C   UNL d   1     -41.741-123.154 -51.031  0.00  0.00     0.095 A 
ATOM      6  C   UNL d   1     -41.466-122.456 -50.687  0.00  0.00     0.026 A 
ENDROOT
BRANCH   1   7
ATOM      7  S   UNL d   1     -41.861-122.551 -53.128  0.00  0.00     0.274 S 
ATOM      8  O   UNL d   1     -41.123-122.897 -53.243  0.00  0.00    -0.199 OA
ATOM      9  O   UNL d   1     -42.601-122.204 -53.015  0.00  0.00    -0.199 OA
BRANCH   7  10
ATOM     10  N   UNL d   1     -41.999-122.575 -53.932  0.00  0.00    -0.213 N 
ATOM     11  C   UNL d   1     -41.692-123.118 -54.430  0.00  0.00     0.157 A 
ATOM     12  N   UNL d   1     -41.966-122.952 -55.207  0.00  0.00    -0.224 NA
ATOM     13  C   UNL d   1     -41.189-123.761 -54.299  0.00  0.00     0.041 C 
ATOM     14  C   UNL d   1     -42.446-122.289 -55.142  0.00  0.00     0.120 A 
ATOM     15  C   UNL d   1     -42.463-122.055 -54.331  0.00  0.00     0.114 A 
ENDBRANCH   7  10
ENDBRANCH   1   7
BRANCH   3  16
ATOM     16  O   UNL d   1     -41.314-121.163 -52.445  0.00  0.00    -0.327 OA
ATOM     17  C   UNL d   1     -41.129-120.444 -52.090  0.00  0.00     0.181 C 
ENDBRANCH   3  16
BRANCH   5  18
ATOM     18  O   UNL d   1     -41.883-123.817 -50.560  0.00  0.00    -0.328 OA
ATOM     19  C   UNL d   1     -42.341-123.744 -49.880  0.00  0.00     0.181 C 
ENDBRANCH   5  18
TORSDOF 4
ENDMDL
MODEL 3
REMARK VINA RESULT:      -1.2      1.316      3.503
REMARK  4 active torsions:
REMARK  status: ('A' for Active; 'I' for Inactive)
REMARK    1  A    between atoms: N_2  and  S_1 
REMARK    2  A    between atoms: C_3  and  S_1 
REMARK    3  A    between atoms: O_15  and  C_11 
REMARK    4  A    between atoms: O_17  and  C_13 
ROOT
ATOM      1  C   UNL d   1     -41.711-122.380 -51.747  0.00  0.00     0.128 A 
ATOM      2  C   UNL d   1     -41.857-123.006 -52.269  0.00  0.00     0.039 A 
ATOM      3  C   UNL d   1     -41.357-121.693 -52.018  0.00  0.00     0.106 A 
ATOM      4  C   UNL d   1     -41.146-121.630 -52.817  0.00  0.00     0.027 A 
ATOM      5  C   UNL d   1     -41.648-122.940 -53.059  0.00  0.00     0.095 A 
ATOM      6  C   UNL d   1     -41.291-122.250 -53.334  0.00  0.00     0.026 A 
ENDROOT
BRANCH   1   7
ATOM      7  S   UNL d   1     -41.921-122.441 -50.949  0.00  0.00     0.274 S 
ATOM      8  O   UNL d   1     -41.199-122.799 -50.778  0.00  0.00    -0.199 OA
ATOM      9  O   UNL d   1     -42.645-122.083 -51.119  0.00  0.00    -0.199 OA
BRANCH   7  10
ATOM     10  N   UNL d   1     -42.136-122.498 -50.163  0.00  0.00    -0.213 N 
ATOM     11  C   UNL d   1     -41.857-123.043 -49.654  0.00  0.00     0.157 A 
ATOM     12  N   UNL d   1     -42.213-122.915 -48.903  0.00  0.00    -0.224 NA
ATOM     13  C   UNL d   1     -41.316-123.661 -49.752  0.00  0.00     0.041 C 
ATOM     14  C   UNL d   1     -42.712-122.270 -48.997  0.00  0.00     0.120 A 
ATOM     15  C   UNL d   1     -42.660-122.009 -49.798  0.00  0.00     0.114 A 
ENDBRANCH   7  10
ENDBRANCH   1   7
BRANCH   3  16
ATOM     16  O   UNL d   1     -41.210-121.067 -51.495  0.00  0.00    -0.327 OA
ATOM     17  C   UNL d   1     -41.124-120.304 -51.790  0.00  0.00     0.181 C 
ENDBRANCH   3  16
BRANCH   5  18
ATOM     18  O   UNL d   1     -41.793-123.565 -53.580  0.00  0.00    -0.328 OA
ATOM     19  C   UNL d   1     -41.889-123.412 -54.383  0.00  0.00     0.181 C 
ENDBRANCH   5  18
TORSDOF 4
ENDMDL
