MODEL 1
REMARK VINA RESULT:     120.0      0.000      0.000
REMARK  8 active torsions:
REMARK  status: ('A' for Active; 'I' for Inactive)
REMARK    1  A    between atoms: C_8  and  N_1 
REMARK    2  A    between atoms: C_7  and  N_3 
REMARK    3  A    between atoms: C_11  and  C_7 
REMARK    4  A    between atoms: C_20  and  C_8 
REMARK    5  A    between atoms: C_9  and  C_13 
REMARK       I    between atoms: N_16  and  C_9 
REMARK    6  A    between atoms: C_24  and  N_16 
REMARK    7  A    between atoms: C_27  and  C_24 
REMARK    8  A    between atoms: C_25  and  C_27 
ROOT
ATOM      1  N   UNL d   1     -55.381-100.510 -43.220  0.00  0.00    -0.226 N 
ATOM      2  C   UNL d   1     -55.823 -99.888 -42.905  0.00  0.00     0.342 A 
ATOM      3  N   UNL d   1     -56.423 -99.543 -43.351  0.00  0.00    -0.259 N 
ATOM      4  C   UNL d   1     -55.535-100.792 -43.983  0.00  0.00     0.270 A 
ATOM      5  C   UNL d   1     -56.140-100.440 -44.424  0.00  0.00     0.073 A 
ATOM      6  C   UNL d   1     -56.582 -99.818 -44.109  0.00  0.00     0.073 A 
ATOM      7  O   UNL d   1     -55.660 -99.610 -42.134  0.00  0.00    -0.245 OA
ATOM      8  O   UNL d   1     -55.098-101.408 -44.294  0.00  0.00    -0.266 OA
ATOM      9  C   UNL d   1     -56.294-100.722 -45.187  0.00  0.00     0.006 A 
ATOM     10  C   UNL d   1     -57.182 -99.473 -44.555  0.00  0.00     0.018 A 
ATOM     11  C   UNL d   1     -56.901-100.370 -45.632  0.00  0.00     0.000 A 
ATOM     12  C   UNL d   1     -57.343 -99.748 -45.318  0.00  0.00     0.002 A 
ENDROOT
BRANCH   1  13
ATOM     13  C   UNL d   1     -54.770-100.863 -42.768  0.00  0.00     0.087 C 
BRANCH  13  14
ATOM     14  C   UNL d   1     -54.936-101.193 -42.039  0.00  0.00     0.018 A 
ATOM     15  C   UNL d   1     -55.104-101.997 -41.980  0.00  0.00     0.002 A 
ATOM     16  C   UNL d   1     -55.274-102.334 -41.237  0.00  0.00     0.005 A 
ATOM     17  C   UNL d   1     -55.274-101.863 -40.561  0.00  0.00     0.058 A 
ATOM     18  C   UNL d   1     -55.106-101.052 -40.618  0.00  0.00     0.005 A 
ATOM     19  C   UNL d   1     -54.936-100.716 -41.361  0.00  0.00     0.002 A 
BRANCH  17  20
ATOM     20  C   UNL d   1     -55.443-102.196 -39.825  0.00  0.00     0.279 C 
ATOM     21  O   UNL d   1     -55.900-102.880 -39.777  0.00  0.00    -0.265 OA
ATOM     22  N   UNL d   1     -55.155-101.847 -39.139  0.00  0.00    -0.206 NA
BRANCH  22  23
ATOM     23  C   UNL d   1     -55.323-102.180 -38.403  0.00  0.00     0.102 C 
BRANCH  23  24
ATOM     24  C   UNL d   1     -54.768-102.140 -37.795  0.00  0.00     0.021 C 
BRANCH  24  25
ATOM     25  C   UNL d   1     -55.019-102.110 -37.005  0.00  0.00     0.002 A 
ATOM     26  C   UNL d   1     -55.100-102.813 -36.572  0.00  0.00     0.000 A 
ATOM     27  C   UNL d   1     -55.352-102.782 -35.777  0.00  0.00     0.000 A 
ATOM     28  C   UNL d   1     -55.520-102.050 -35.426  0.00  0.00     0.000 A 
ATOM     29  C   UNL d   1     -55.438-101.354 -35.859  0.00  0.00     0.000 A 
ATOM     30  C   UNL d   1     -55.186-101.385 -36.653  0.00  0.00     0.000 A 
ENDBRANCH  24  25
ENDBRANCH  23  24
ENDBRANCH  22  23
ENDBRANCH  17  20
ENDBRANCH  13  14
ENDBRANCH   1  13
BRANCH   3  31
ATOM     31  C   UNL d   1     -56.865 -98.921 -43.036  0.00  0.00     0.084 C 
BRANCH  31  32
ATOM     32  C   UNL d   1     -57.688 -98.965 -43.022  0.00  0.00     0.018 A 
ATOM     33  C   UNL d   1     -58.083 -99.118 -42.309  0.00  0.00     0.001 A 
ATOM     34  C   UNL d   1     -57.650 -99.228 -41.598  0.00  0.00     0.000 C 
ATOM     35  C   UNL d   1     -58.905 -99.162 -42.294  0.00  0.00     0.000 A 
ATOM     36  C   UNL d   1     -59.334 -99.054 -42.990  0.00  0.00     0.000 A 
ATOM     37  C   UNL d   1     -58.938 -98.901 -43.702  0.00  0.00     0.000 A 
ATOM     38  C   UNL d   1     -58.115 -98.857 -43.717  0.00  0.00     0.002 A 
ENDBRANCH  31  32
ENDBRANCH   3  31
TORSDOF 8
ENDMDL
