MODEL 1
REMARK VINA RESULT:      51.8      0.000      0.000
REMARK  6 active torsions:
REMARK  status: ('A' for Active; 'I' for Inactive)
REMARK    1  A    between atoms: C_5  and  N_1 
REMARK    2  A    between atoms: C_10  and  C_4 
REMARK    3  A    between atoms: C_6  and  S_13 
REMARK    4  A    between atoms: C_8  and  C_11 
REMARK    5  A    between atoms: C_14  and  C_8 
REMARK    6  A    between atoms: S_13  and  C_14 
ROOT
ATOM      1  S   UNL d   1      12.838  12.872  -4.263  0.00  0.00    -0.062 SA
ENDROOT
BRANCH   1   2
ATOM      2  C   UNL d   1      13.227  12.688  -3.550  0.00  0.00     0.133 A 
ATOM      3  N   UNL d   1      13.763  13.231  -3.216  0.00  0.00    -0.141 NA
ATOM      4  N   UNL d   1      14.149  13.046  -2.508  0.00  0.00    -0.146 NA
ATOM      5  C   UNL d   1      14.004  12.328  -2.135  0.00  0.00     0.121 A 
ATOM      6  C   UNL d   1      13.468  11.785  -2.469  0.00  0.00     0.025 A 
ATOM      7  C   UNL d   1      13.082  11.966  -3.174  0.00  0.00     0.029 A 
BRANCH   5   8
ATOM      8  C   UNL d   1      14.389  12.146  -1.430  0.00  0.00     0.101 A 
ATOM      9  N   UNL d   1      13.951  11.988  -0.749  0.00  0.00    -0.242 NA
ATOM     10  C   UNL d   1      14.334  11.806  -0.044  0.00  0.00     0.099 A 
ATOM     11  C   UNL d   1      15.168  11.780  -0.014  0.00  0.00     0.021 A 
ATOM     12  C   UNL d   1      15.606  11.937  -0.695  0.00  0.00     0.003 A 
ATOM     13  C   UNL d   1      15.218  12.120  -1.401  0.00  0.00     0.021 A 
ENDBRANCH   5   8
ENDBRANCH   1   2
BRANCH   1  14
ATOM     14  C   UNL d   1      12.799  13.662  -4.525  0.00  0.00     0.079 C 
BRANCH  14  15
ATOM     15  C   UNL d   1      13.295  13.922  -5.128  0.00  0.00     0.202 C 
ATOM     16  O   UNL d   1      13.407  13.453  -5.797  0.00  0.00    -0.286 OA
BRANCH  15  17
ATOM     17  C   UNL d   1      13.681  14.652  -5.063  0.00  0.00     0.040 A 
ATOM     18  C   UNL d   1      13.522  15.148  -4.425  0.00  0.00     0.005 A 
ATOM     19  C   UNL d   1      13.906  15.876  -4.360  0.00  0.00     0.024 A 
ATOM     20  C   UNL d   1      14.450  16.107  -4.934  0.00  0.00     0.127 A 
ATOM     21  C   UNL d   1      14.609  15.612  -5.571  0.00  0.00     0.024 A 
ATOM     22  C   UNL d   1      14.225  14.884  -5.636  0.00  0.00     0.005 A 
BRANCH  20  23
ATOM     23  N   UNL d   1      14.834  16.834  -4.869  0.00  0.00    -0.114 N 
ATOM     24  O   UNL d   1      14.885  17.334  -5.522  0.00  0.00    -0.532 OA
ATOM     25  O   UNL d   1      15.169  17.061  -4.145  0.00  0.00    -0.532 OA
ENDBRANCH  20  23
ENDBRANCH  15  17
ENDBRANCH  14  15
ENDBRANCH   1  14
TORSDOF 6
ENDMDL
MODEL 2
REMARK VINA RESULT:      52.3      1.793      2.383
REMARK  6 active torsions:
REMARK  status: ('A' for Active; 'I' for Inactive)
REMARK    1  A    between atoms: C_5  and  N_1 
REMARK    2  A    between atoms: C_10  and  C_4 
REMARK    3  A    between atoms: C_6  and  S_13 
REMARK    4  A    between atoms: C_8  and  C_11 
REMARK    5  A    between atoms: C_14  and  C_8 
REMARK    6  A    between atoms: S_13  and  C_14 
ROOT
ATOM      1  S   UNL d   1      13.092  15.015  -5.159  0.00  0.00    -0.062 SA
ENDROOT
BRANCH   1   2
ATOM      2  C   UNL d   1      13.275  14.493  -4.536  0.00  0.00     0.133 A 
ATOM      3  N   UNL d   1      13.663  14.777  -3.856  0.00  0.00    -0.141 NA
ATOM      4  N   UNL d   1      13.844  14.257  -3.239  0.00  0.00    -0.146 NA
ATOM      5  C   UNL d   1      13.642  13.462  -3.297  0.00  0.00     0.121 A 
ATOM      6  C   UNL d   1      13.255  13.179  -3.977  0.00  0.00     0.025 A 
ATOM      7  C   UNL d   1      13.073  13.693  -4.593  0.00  0.00     0.029 A 
BRANCH   5   8
ATOM      8  C   UNL d   1      13.824  12.946  -2.681  0.00  0.00     0.101 A 
ATOM      9  N   UNL d   1      13.338  12.296  -2.531  0.00  0.00    -0.242 NA
ATOM     10  C   UNL d   1      13.519  11.780  -1.915  0.00  0.00     0.099 A 
ATOM     11  C   UNL d   1      14.192  11.911  -1.441  0.00  0.00     0.021 A 
ATOM     12  C   UNL d   1      14.677  12.561  -1.591  0.00  0.00     0.003 A 
ATOM     13  C   UNL d   1      14.494  13.077  -2.209  0.00  0.00     0.021 A 
ENDBRANCH   5   8
ENDBRANCH   1   2
BRANCH   1  14
ATOM     14  C   UNL d   1      13.368  15.801  -5.140  0.00  0.00     0.079 C 
BRANCH  14  15
ATOM     15  C   UNL d   1      13.697  16.139  -5.815  0.00  0.00     0.202 C 
ATOM     16  O   UNL d   1      14.044  15.658  -6.387  0.00  0.00    -0.286 OA
BRANCH  15  17
ATOM     17  C   UNL d   1      13.680  16.961  -5.918  0.00  0.00     0.040 A 
ATOM     18  C   UNL d   1      14.313  17.423  -5.665  0.00  0.00     0.005 A 
ATOM     19  C   UNL d   1      14.296  18.242  -5.768  0.00  0.00     0.024 A 
ATOM     20  C   UNL d   1      13.645  18.598  -6.124  0.00  0.00     0.127 A 
ATOM     21  C   UNL d   1      13.012  18.138  -6.377  0.00  0.00     0.024 A 
ATOM     22  C   UNL d   1      13.029  17.319  -6.274  0.00  0.00     0.005 A 
BRANCH  20  23
ATOM     23  N   UNL d   1      13.627  19.417  -6.227  0.00  0.00    -0.114 N 
ATOM     24  O   UNL d   1      14.323  19.855  -6.172  0.00  0.00    -0.532 OA
ATOM     25  O   UNL d   1      12.907  19.798  -6.386  0.00  0.00    -0.532 OA
ENDBRANCH  20  23
ENDBRANCH  15  17
ENDBRANCH  14  15
ENDBRANCH   1  14
TORSDOF 6
ENDMDL
