MODEL 1
REMARK VINA RESULT:      -8.5      0.000      0.000
REMARK  7 active torsions:
REMARK  status: ('A' for Active; 'I' for Inactive)
REMARK    1  A    between atoms: C_4  and  C_1 
REMARK    2  A    between atoms: N_5  and  C_3 
REMARK    3  A    between atoms: C_9  and  C_4 
REMARK       I    between atoms: C_7  and  N_5 
REMARK    4  A    between atoms: C_10  and  C_7 
REMARK       I    between atoms: N_14  and  C_9 
REMARK    5  A    between atoms: C_20  and  N_14 
REMARK    6  A    between atoms: C_21  and  C_20 
REMARK    7  A    between atoms: O_29  and  C_22 
ROOT
ATOM      1  C   UNL d   1      52.789  34.601  53.615  0.00  0.00     0.144 C 
ATOM      2  C   UNL d   1      52.449  35.132  54.147  0.00  0.00     0.107 C 
ATOM      3  N   UNL d   1      52.113  35.654  54.680  0.00  0.00    -0.191 NA
ENDROOT
BRANCH   1   4
ATOM      4  C   UNL d   1      53.078  33.864  53.877  0.00  0.00     0.097 A 
ATOM      5  N   UNL d   1      52.832  33.100  53.686  0.00  0.00    -0.226 NA
ATOM      6  C   UNL d   1      53.307  32.566  54.102  0.00  0.00     0.166 A 
ATOM      7  C   UNL d   1      53.847  32.999  54.551  0.00  0.00     0.037 A 
ATOM      8  C   UNL d   1      53.711  33.806  54.417  0.00  0.00     0.021 A 
ATOM      9  C   UNL d   1      54.448  32.768  55.066  0.00  0.00     0.003 A 
ATOM     10  C   UNL d   1      54.171  34.372  54.794  0.00  0.00     0.002 A 
ATOM     11  C   UNL d   1      54.772  34.142  55.310  0.00  0.00     0.000 A 
ATOM     12  C   UNL d   1      54.908  33.335  55.444  0.00  0.00     0.000 A 
BRANCH   6  13
ATOM     13  N   UNL d   1      53.283  31.750  54.099  0.00  0.00    -0.189 NA
ATOM     14  C   UNL d   1      53.107  31.234  53.467  0.00  0.00     0.286 C 
ATOM     15  O   UNL d   1      52.931  31.561  52.732  0.00  0.00    -0.265 OA
BRANCH  14  16
ATOM     16  C   UNL d   1      53.108  30.415  53.562  0.00  0.00     0.087 A 
ATOM     17  S   UNL d   1      52.611  29.945  53.099  0.00  0.00    -0.082 SA
ATOM     18  C   UNL d   1      52.735  29.157  53.320  0.00  0.00     0.036 A 
ATOM     19  C   UNL d   1      53.308  29.144  53.918  0.00  0.00     0.008 A 
ATOM     20  C   UNL d   1      53.537  29.921  54.066  0.00  0.00     0.012 A 
ENDBRANCH  14  16
ENDBRANCH   6  13
ENDBRANCH   1   4
BRANCH   1  21
ATOM     21  C   UNL d   1      52.844  34.800  52.813  0.00  0.00     0.290 C 
ATOM     22  N   UNL d   1      52.177  34.777  52.336  0.00  0.00    -0.206 NA
ATOM     23  O   UNL d   1      53.569  35.022  52.492  0.00  0.00    -0.264 OA
BRANCH  22  24
ATOM     24  C   UNL d   1      51.446  34.553  52.661  0.00  0.00     0.102 C 
BRANCH  24  25
ATOM     25  C   UNL d   1      50.668  34.511  52.378  0.00  0.00     0.019 A 
ATOM     26  C   UNL d   1      50.531  34.249  51.610  0.00  0.00     0.004 A 
ATOM     27  C   UNL d   1      49.764  34.206  51.324  0.00  0.00     0.024 A 
ATOM     28  C   UNL d   1      49.124  34.426  51.808  0.00  0.00     0.094 A 
ATOM     29  C   UNL d   1      49.263  34.688  52.575  0.00  0.00     0.024 A 
ATOM     30  C   UNL d   1      50.040  34.730  52.859  0.00  0.00     0.004 A 
BRANCH  28  31
ATOM     31  O   UNL d   1      48.355  34.383  51.522  0.00  0.00    -0.328 OA
ATOM     32  C   UNL d   1      48.030  35.012  51.096  0.00  0.00     0.181 C 
ENDBRANCH  28  31
ENDBRANCH  24  25
ENDBRANCH  22  24
ENDBRANCH   1  21
TORSDOF 7
ENDMDL
MODEL 2
REMARK VINA RESULT:      -7.3      1.483      4.622
REMARK  7 active torsions:
REMARK  status: ('A' for Active; 'I' for Inactive)
REMARK    1  A    between atoms: C_4  and  C_1 
REMARK    2  A    between atoms: N_5  and  C_3 
REMARK    3  A    between atoms: C_9  and  C_4 
REMARK       I    between atoms: C_7  and  N_5 
REMARK    4  A    between atoms: C_10  and  C_7 
REMARK       I    between atoms: N_14  and  C_9 
REMARK    5  A    between atoms: C_20  and  N_14 
REMARK    6  A    between atoms: C_21  and  C_20 
REMARK    7  A    between atoms: O_29  and  C_22 
ROOT
ATOM      1  C   UNL d   1      53.989  33.247  54.137  0.00  0.00     0.144 C 
ATOM      2  C   UNL d   1      54.175  33.091  54.924  0.00  0.00     0.107 C 
ATOM      3  N   UNL d   1      54.355  32.941  55.708  0.00  0.00    -0.191 NA
ENDROOT
BRANCH   1   4
ATOM      4  C   UNL d   1      53.370  33.772  53.943  0.00  0.00     0.097 A 
ATOM      5  N   UNL d   1      52.707  33.657  53.466  0.00  0.00    -0.226 NA
ATOM      6  C   UNL d   1      52.269  34.358  53.461  0.00  0.00     0.166 A 
ATOM      7  C   UNL d   1      52.661  34.909  53.934  0.00  0.00     0.037 A 
ATOM      8  C   UNL d   1      53.346  34.553  54.237  0.00  0.00     0.021 A 
ATOM      9  C   UNL d   1      52.488  35.690  54.131  0.00  0.00     0.003 A 
ATOM     10  C   UNL d   1      53.848  34.974  54.730  0.00  0.00     0.002 A 
ATOM     11  C   UNL d   1      53.676  35.756  54.929  0.00  0.00     0.000 A 
ATOM     12  C   UNL d   1      52.992  36.112  54.625  0.00  0.00     0.000 A 
BRANCH   6  13
ATOM     13  N   UNL d   1      51.571  34.522  53.072  0.00  0.00    -0.189 NA
ATOM     14  C   UNL d   1      50.907  34.028  52.957  0.00  0.00     0.286 C 
ATOM     15  O   UNL d   1      50.930  33.264  53.266  0.00  0.00    -0.265 OA
BRANCH  14  16
ATOM     16  C   UNL d   1      50.240  34.285  52.547  0.00  0.00     0.087 A 
ATOM     17  S   UNL d   1      50.155  34.109  51.744  0.00  0.00    -0.082 SA
ATOM     18  C   UNL d   1      49.438  34.437  51.491  0.00  0.00     0.036 A 
ATOM     19  C   UNL d   1      49.084  34.814  52.138  0.00  0.00     0.008 A 
ATOM     20  C   UNL d   1      49.580  34.719  52.789  0.00  0.00     0.012 A 
ENDBRANCH  14  16
ENDBRANCH   6  13
ENDBRANCH   1   4
BRANCH   1  21
ATOM     21  C   UNL d   1      54.419  32.881  53.532  0.00  0.00     0.290 C 
ATOM     22  N   UNL d   1      54.298  32.087  53.362  0.00  0.00    -0.206 NA
ATOM     23  O   UNL d   1      54.969  33.312  53.097  0.00  0.00    -0.264 OA
BRANCH  22  24
ATOM     24  C   UNL d   1      53.742  31.653  53.802  0.00  0.00     0.102 C 
BRANCH  24  25
ATOM     25  C   UNL d   1      53.534  30.852  53.854  0.00  0.00     0.019 A 
ATOM     26  C   UNL d   1      53.193  30.480  53.204  0.00  0.00     0.004 A 
ATOM     27  C   UNL d   1      52.985  29.689  53.248  0.00  0.00     0.024 A 
ATOM     28  C   UNL d   1      53.118  29.261  53.949  0.00  0.00     0.094 A 
ATOM     29  C   UNL d   1      53.459  29.633  54.598  0.00  0.00     0.024 A 
ATOM     30  C   UNL d   1      53.667  30.434  54.546  0.00  0.00     0.004 A 
BRANCH  28  31
ATOM     31  O   UNL d   1      52.910  28.467  53.995  0.00  0.00    -0.328 OA
ATOM     32  C   UNL d   1      53.230  27.983  54.584  0.00  0.00     0.181 C 
ENDBRANCH  28  31
ENDBRANCH  24  25
ENDBRANCH  22  24
ENDBRANCH   1  21
TORSDOF 7
ENDMDL
