MODEL 1
REMARK VINA RESULT:       7.7      0.000      0.000
REMARK  3 active torsions:
REMARK  status: ('A' for Active; 'I' for Inactive)
REMARK    1  A    between atoms: C_5  and  C_1 
REMARK    2  A    between atoms: N_6  and  C_5 
REMARK    3  A    between atoms: C_8  and  C_5 
ROOT
ATOM      1  C   UNL d   1     -42.464-122.564 -50.114  0.00  0.00     0.083 C 
ENDROOT
BRANCH   1   2
ATOM      2  C   UNL d   1     -41.972-122.356 -50.779  0.00  0.00     0.037 A 
ATOM      3  C   UNL d   1     -41.512-121.665 -50.834  0.00  0.00     0.083 A 
ATOM      4  N   UNL d   1     -41.130-121.681 -51.554  0.00  0.00    -0.245 NA
ATOM      5  C   UNL d   1     -41.457-121.063 -50.249  0.00  0.00     0.021 C 
ATOM      6  C   UNL d   1     -41.337-122.368 -51.957  0.00  0.00     0.081 A 
ATOM      7  C   UNL d   1     -41.871-122.795 -51.467  0.00  0.00     0.021 A 
ATOM      8  C   UNL d   1     -41.123-122.666 -52.691  0.00  0.00     0.019 A 
ATOM      9  C   UNL d   1     -42.177-123.510 -51.722  0.00  0.00     0.002 A 
ATOM     10  C   UNL d   1     -41.956-123.816 -52.475  0.00  0.00     0.000 A 
ATOM     11  C   UNL d   1     -41.445-123.407 -52.945  0.00  0.00     0.002 A 
ENDBRANCH   1   2
BRANCH   1  12
ATOM     12  N   UNL d   1     -42.128-122.851 -49.407  0.00  0.00    -0.302 N 
ATOM     13  C   UNL d   1     -42.267-122.456 -48.696  0.00  0.00     0.080 A 
ATOM     14  C   UNL d   1     -41.932-122.743 -48.001  0.00  0.00     0.019 A 
ATOM     15  C   UNL d   1     -41.460-123.420 -48.014  0.00  0.00     0.003 A 
ATOM     16  C   UNL d   1     -41.320-123.816 -48.720  0.00  0.00     0.019 A 
ATOM     17  C   UNL d   1     -41.123-123.708 -47.306  0.00  0.00     0.000 C 
ATOM     18  C   UNL d   1     -41.655-123.529 -49.416  0.00  0.00     0.080 A 
ENDBRANCH   1  12
BRANCH   1  19
ATOM     19  C   UNL d   1     -43.305-122.477 -50.177  0.00  0.00     0.098 A 
ATOM     20  N   UNL d   1     -43.635-121.746 -50.361  0.00  0.00    -0.243 NA
ATOM     21  C   UNL d   1     -44.447-121.654 -50.423  0.00  0.00     0.099 A 
ATOM     22  C   UNL d   1     -44.935-122.305 -50.299  0.00  0.00     0.021 A 
ATOM     23  C   UNL d   1     -44.608-123.040 -50.114  0.00  0.00     0.003 A 
ATOM     24  C   UNL d   1     -43.780-123.142 -50.048  0.00  0.00     0.021 A 
ENDBRANCH   1  19
TORSDOF 3
ENDMDL
MODEL 2
REMARK VINA RESULT:       9.0      1.122      3.705
REMARK  3 active torsions:
REMARK  status: ('A' for Active; 'I' for Inactive)
REMARK    1  A    between atoms: C_5  and  C_1 
REMARK    2  A    between atoms: N_6  and  C_5 
REMARK    3  A    between atoms: C_8  and  C_5 
ROOT
ATOM      1  C   UNL d   1     -42.044-122.000 -51.666  0.00  0.00     0.083 C 
ENDROOT
BRANCH   1   2
ATOM      2  C   UNL d   1     -42.427-122.321 -50.973  0.00  0.00     0.037 A 
ATOM      3  C   UNL d   1     -43.215-122.170 -50.753  0.00  0.00     0.083 A 
ATOM      4  N   UNL d   1     -43.358-122.580 -50.063  0.00  0.00    -0.245 NA
ATOM      5  C   UNL d   1     -43.759-121.684 -51.171  0.00  0.00     0.021 C 
ATOM      6  C   UNL d   1     -42.678-122.987 -49.840  0.00  0.00     0.081 A 
ATOM      7  C   UNL d   1     -42.088-122.823 -50.417  0.00  0.00     0.021 A 
ATOM      8  C   UNL d   1     -42.508-123.478 -49.206  0.00  0.00     0.019 A 
ATOM      9  C   UNL d   1     -41.343-123.153 -50.346  0.00  0.00     0.002 A 
ATOM     10  C   UNL d   1     -41.169-123.657 -49.693  0.00  0.00     0.000 A 
ATOM     11  C   UNL d   1     -41.734-123.815 -49.141  0.00  0.00     0.002 A 
ENDBRANCH   1   2
BRANCH   1  12
ATOM     12  N   UNL d   1     -41.965-122.457 -52.359  0.00  0.00    -0.302 N 
ATOM     13  C   UNL d   1     -42.637-122.687 -52.778  0.00  0.00     0.080 A 
ATOM     14  C   UNL d   1     -42.553-123.138 -53.462  0.00  0.00     0.019 A 
ATOM     15  C   UNL d   1     -41.803-123.358 -53.728  0.00  0.00     0.003 A 
ATOM     16  C   UNL d   1     -41.131-123.130 -53.313  0.00  0.00     0.019 A 
ATOM     17  C   UNL d   1     -41.724-123.815 -54.422  0.00  0.00     0.000 C 
ATOM     18  C   UNL d   1     -41.215-122.679 -52.628  0.00  0.00     0.080 A 
ENDBRANCH   1  12
BRANCH   1  19
ATOM     19  C   UNL d   1     -41.741-121.209 -51.644  0.00  0.00     0.098 A 
ATOM     20  N   UNL d   1     -41.418-120.907 -50.950  0.00  0.00    -0.243 NA
ATOM     21  C   UNL d   1     -41.123-120.142 -50.922  0.00  0.00     0.099 A 
ATOM     22  C   UNL d   1     -41.153-119.675 -51.598  0.00  0.00     0.021 A 
ATOM     23  C   UNL d   1     -41.477-119.975 -52.296  0.00  0.00     0.003 A 
ATOM     24  C   UNL d   1     -41.780-120.754 -52.334  0.00  0.00     0.021 A 
ENDBRANCH   1  19
TORSDOF 3
ENDMDL
