MODEL 1
REMARK VINA RESULT:      -9.3      0.000      0.000
REMARK  3 active torsions:
REMARK  status: ('A' for Active; 'I' for Inactive)
REMARK    1  A    between atoms: C_2  and  C_1 
REMARK       I    between atoms: N_3  and  C_2 
REMARK    2  A    between atoms: C_21  and  N_4 
REMARK    3  A    between atoms: C_20  and  C_21 
ROOT
ATOM      1  C   UNL d   1     -49.516  12.095  22.789  0.00  0.00     0.255 C 
ATOM      2  N   UNL d   1     -48.700  12.135  23.003  0.00  0.00    -0.271 N 
ATOM      3  N   UNL d   1     -47.100  12.193  23.422  0.00  0.00    -0.300 N 
ATOM      4  O   UNL d   1     -49.854  11.412  22.723  0.00  0.00    -0.270 OA
ATOM      5  C   UNL d   1     -48.271  11.447  23.138  0.00  0.00     0.102 A 
ATOM      6  C   UNL d   1     -48.325  12.865  23.078  0.00  0.00     0.102 A 
ATOM      7  C   UNL d   1     -47.518  12.904  23.289  0.00  0.00     0.100 A 
ATOM      8  C   UNL d   1     -47.479  11.457  23.346  0.00  0.00     0.100 A 
ENDROOT
BRANCH   1   9
ATOM      9  C   UNL d   1     -49.928  12.774  22.659  0.00  0.00     0.137 A 
ATOM     10  C   UNL d   1     -50.230  12.631  21.913  0.00  0.00     0.033 A 
ATOM     11  C   UNL d   1     -50.709  13.140  21.479  0.00  0.00     0.046 A 
ATOM     12  C   UNL d   1     -51.064  13.848  21.492  0.00  0.00    -0.015 A 
ATOM     13  C   UNL d   1     -50.916  13.821  21.759  0.00  0.00    -0.022 A 
ATOM     14  C   UNL d   1     -50.905  14.179  22.145  0.00  0.00     0.027 A 
ATOM     15  C   UNL d   1     -50.442  13.623  22.500  0.00  0.00    -0.117 A 
ATOM     16  C   UNL d   1     -51.064  14.883  22.545  0.00  0.00     0.006 A 
ATOM     17  C   UNL d   1     -50.545  14.008  22.689  0.00  0.00    -0.006 A 
ATOM     18  C   UNL d   1     -50.087  13.468  23.050  0.00  0.00    -0.007 A 
ENDBRANCH   1   9
BRANCH   3  19
ATOM     19  C   UNL d   1     -46.422  12.113  23.603  0.00  0.00     0.080 C 
BRANCH  19  20
ATOM     20  C   UNL d   1     -45.834  12.380  23.100  0.00  0.00     0.020 A 
ATOM     21  C   UNL d   1     -45.164  11.919  22.943  0.00  0.00     0.028 A 
ATOM     22  C   UNL d   1     -44.565  12.187  22.434  0.00  0.00     0.119 A 
ATOM     23  O   UNL d   1     -43.874  11.832  22.207  0.00  0.00    -0.300 OA
ATOM     24  C   UNL d   1     -44.626  12.931  22.067  0.00  0.00     0.119 A 
ATOM     25  C   UNL d   1     -43.460  12.350  21.673  0.00  0.00     0.304 A 
ATOM     26  O   UNL d   1     -43.946  13.021  21.604  0.00  0.00    -0.300 OA
ATOM     27  C   UNL d   1     -45.303  13.402  22.221  0.00  0.00     0.026 A 
ATOM     28  C   UNL d   1     -45.896  13.131  22.730  0.00  0.00     0.004 A 
ENDBRANCH  19  20
ENDBRANCH   3  19
TORSDOF 3
ENDMDL
MODEL 2
REMARK VINA RESULT:      -8.5      8.245      9.989
REMARK  3 active torsions:
REMARK  status: ('A' for Active; 'I' for Inactive)
REMARK    1  A    between atoms: C_2  and  C_1 
REMARK       I    between atoms: N_3  and  C_2 
REMARK    2  A    between atoms: C_21  and  N_4 
REMARK    3  A    between atoms: C_20  and  C_21 
ROOT
ATOM      1  C   UNL d   1     -40.357  14.462  17.972  0.00  0.00     0.255 C 
ATOM      2  N   UNL d   1     -40.325  14.657  18.794  0.00  0.00    -0.271 N 
ATOM      3  N   UNL d   1     -40.279  15.027  20.405  0.00  0.00    -0.300 N 
ATOM      4  O   UNL d   1     -40.919  14.010  17.715  0.00  0.00    -0.270 OA
ATOM      5  C   UNL d   1     -40.891  14.365  19.313  0.00  0.00     0.102 A 
ATOM      6  C   UNL d   1     -39.725  15.142  19.082  0.00  0.00     0.102 A 
ATOM      7  C   UNL d   1     -39.694  15.335  19.894  0.00  0.00     0.100 A 
ATOM      8  C   UNL d   1     -40.883  14.538  20.113  0.00  0.00     0.100 A 
ENDROOT
BRANCH   1   9
ATOM      9  C   UNL d   1     -39.799  14.752  17.470  0.00  0.00     0.137 A 
ATOM     10  C   UNL d   1     -39.549  14.067  17.104  0.00  0.00     0.033 A 
ATOM     11  C   UNL d   1     -38.970  14.013  16.521  0.00  0.00     0.046 A 
ATOM     12  C   UNL d   1     -38.458  14.436  16.088  0.00  0.00    -0.015 A 
ATOM     13  C   UNL d   1     -38.605  14.636  16.268  0.00  0.00    -0.022 A 
ATOM     14  C   UNL d   1     -38.527  15.156  16.282  0.00  0.00     0.027 A 
ATOM     15  C   UNL d   1     -39.103  15.119  16.845  0.00  0.00    -0.117 A 
ATOM     16  C   UNL d   1     -38.202  15.891  16.088  0.00  0.00     0.006 A 
ATOM     17  C   UNL d   1     -38.911  15.496  16.721  0.00  0.00    -0.006 A 
ATOM     18  C   UNL d   1     -39.477  15.473  17.278  0.00  0.00    -0.007 A 
ENDBRANCH   1   9
BRANCH   3  19
ATOM     19  C   UNL d   1     -40.345  15.127  21.102  0.00  0.00     0.080 C 
BRANCH  19  20
ATOM     20  C   UNL d   1     -39.734  14.910  21.602  0.00  0.00     0.020 A 
ATOM     21  C   UNL d   1     -39.622  14.119  21.821  0.00  0.00     0.028 A 
ATOM     22  C   UNL d   1     -39.004  13.895  22.328  0.00  0.00     0.119 A 
ATOM     23  O   UNL d   1     -38.796  13.165  22.609  0.00  0.00    -0.300 OA
ATOM     24  C   UNL d   1     -38.479  14.465  22.630  0.00  0.00     0.119 A 
ATOM     25  C   UNL d   1     -38.114  13.246  23.113  0.00  0.00     0.304 A 
ATOM     26  O   UNL d   1     -37.940  14.060  23.108  0.00  0.00    -0.300 OA
ATOM     27  C   UNL d   1     -38.588  15.268  22.412  0.00  0.00     0.026 A 
ATOM     28  C   UNL d   1     -39.205  15.486  21.906  0.00  0.00     0.004 A 
ENDBRANCH  19  20
ENDBRANCH   3  19
TORSDOF 3
ENDMDL
MODEL 3
REMARK VINA RESULT:      -8.0      1.293      5.534
REMARK  3 active torsions:
REMARK  status: ('A' for Active; 'I' for Inactive)
REMARK    1  A    between atoms: C_2  and  C_1 
REMARK       I    between atoms: N_3  and  C_2 
REMARK    2  A    between atoms: C_21  and  N_4 
REMARK    3  A    between atoms: C_20  and  C_21 
ROOT
ATOM      1  C   UNL d   1     -45.044  12.561  22.523  0.00  0.00     0.255 C 
ATOM      2  N   UNL d   1     -45.795  12.907  22.697  0.00  0.00    -0.271 N 
ATOM      3  N   UNL d   1     -47.260  13.599  23.029  0.00  0.00    -0.300 N 
ATOM      4  O   UNL d   1     -44.543  12.949  22.093  0.00  0.00    -0.270 OA
ATOM      5  C   UNL d   1     -45.987  13.652  22.410  0.00  0.00     0.102 A 
ATOM      6  C   UNL d   1     -46.342  12.498  23.159  0.00  0.00     0.102 A 
ATOM      7  C   UNL d   1     -47.085  12.840  23.332  0.00  0.00     0.100 A 
ATOM      8  C   UNL d   1     -46.707  14.009  22.564  0.00  0.00     0.100 A 
ENDROOT
BRANCH   1   9
ATOM      9  C   UNL d   1     -44.864  11.831  22.809  0.00  0.00     0.137 A 
ATOM     10  C   UNL d   1     -44.049  11.836  22.745  0.00  0.00     0.033 A 
ATOM     11  C   UNL d   1     -43.543  11.223  22.958  0.00  0.00     0.046 A 
ATOM     12  C   UNL d   1     -43.519  10.489  23.257  0.00  0.00    -0.015 A 
ATOM     13  C   UNL d   1     -43.815  10.569  23.247  0.00  0.00    -0.022 A 
ATOM     14  C   UNL d   1     -44.221  10.271  23.399  0.00  0.00     0.027 A 
ATOM     15  C   UNL d   1     -44.642  10.918  23.166  0.00  0.00    -0.117 A 
ATOM     16  C   UNL d   1     -44.624   9.616  23.698  0.00  0.00     0.006 A 
ATOM     17  C   UNL d   1     -44.830  10.553  23.329  0.00  0.00    -0.006 A 
ATOM     18  C   UNL d   1     -45.257  11.184  23.103  0.00  0.00    -0.007 A 
ENDBRANCH   1   9
BRANCH   3  19
ATOM     19  C   UNL d   1     -47.852  13.975  23.114  0.00  0.00     0.080 C 
BRANCH  19  20
ATOM     20  C   UNL d   1     -48.562  13.684  22.830  0.00  0.00     0.020 A 
ATOM     21  C   UNL d   1     -49.096  13.296  23.331  0.00  0.00     0.028 A 
ATOM     22  C   UNL d   1     -49.817  12.999  23.046  0.00  0.00     0.119 A 
ATOM     23  O   UNL d   1     -50.410  12.608  23.433  0.00  0.00    -0.300 OA
ATOM     24  C   UNL d   1     -50.022  13.086  22.245  0.00  0.00     0.119 A 
ATOM     25  C   UNL d   1     -51.030  12.426  22.878  0.00  0.00     0.304 A 
ATOM     26  O   UNL d   1     -50.764  12.733  22.152  0.00  0.00    -0.300 OA
ATOM     27  C   UNL d   1     -49.485  13.478  21.733  0.00  0.00     0.026 A 
ATOM     28  C   UNL d   1     -48.768  13.772  22.021  0.00  0.00     0.004 A 
ENDBRANCH  19  20
ENDBRANCH   3  19
TORSDOF 3
ENDMDL
MODEL 4
REMARK VINA RESULT:      -7.6      1.301      1.846
REMARK  3 active torsions:
REMARK  status: ('A' for Active; 'I' for Inactive)
REMARK    1  A    between atoms: C_2  and  C_1 
REMARK       I    between atoms: N_3  and  C_2 
REMARK    2  A    between atoms: C_21  and  N_4 
REMARK    3  A    between atoms: C_20  and  C_21 
ROOT
ATOM      1  C   UNL d   1     -48.649  12.866  21.542  0.00  0.00     0.255 C 
ATOM      2  N   UNL d   1     -47.874  12.826  21.873  0.00  0.00    -0.271 N 
ATOM      3  N   UNL d   1     -46.347  12.749  22.505  0.00  0.00    -0.300 N 
ATOM      4  O   UNL d   1     -48.730  12.985  20.790  0.00  0.00    -0.270 OA
ATOM      5  C   UNL d   1     -47.211  12.913  21.396  0.00  0.00     0.102 A 
ATOM      6  C   UNL d   1     -47.774  12.698  22.681  0.00  0.00     0.102 A 
ATOM      7  C   UNL d   1     -47.007  12.658  23.010  0.00  0.00     0.100 A 
ATOM      8  C   UNL d   1     -46.449  12.878  21.691  0.00  0.00     0.100 A 
ENDROOT
BRANCH   1   9
ATOM      9  C   UNL d   1     -49.293  12.780  22.018  0.00  0.00     0.137 A 
ATOM     10  C   UNL d   1     -49.763  13.394  21.755  0.00  0.00     0.033 A 
ATOM     11  C   UNL d   1     -50.510  13.589  22.041  0.00  0.00     0.046 A 
ATOM     12  C   UNL d   1     -51.064  13.384  22.569  0.00  0.00    -0.015 A 
ATOM     13  C   UNL d   1     -50.833  13.185  22.605  0.00  0.00    -0.022 A 
ATOM     14  C   UNL d   1     -50.816  12.789  22.951  0.00  0.00     0.027 A 
ATOM     15  C   UNL d   1     -50.094  12.669  22.613  0.00  0.00    -0.117 A 
ATOM     16  C   UNL d   1     -51.064  12.287  23.557  0.00  0.00     0.006 A 
ATOM     17  C   UNL d   1     -50.254  12.417  22.939  0.00  0.00    -0.006 A 
ATOM     18  C   UNL d   1     -49.540  12.288  22.614  0.00  0.00    -0.007 A 
ENDBRANCH   1   9
BRANCH   3  19
ATOM     19  C   UNL d   1     -45.662  12.733  22.678  0.00  0.00     0.080 C 
BRANCH  19  20
ATOM     20  C   UNL d   1     -45.329  12.037  22.953  0.00  0.00     0.020 A 
ATOM     21  C   UNL d   1     -44.543  11.841  22.779  0.00  0.00     0.028 A 
ATOM     22  C   UNL d   1     -44.203  11.137  23.057  0.00  0.00     0.119 A 
ATOM     23  O   UNL d   1     -43.457  10.841  22.954  0.00  0.00    -0.300 OA
ATOM     24  C   UNL d   1     -44.647  10.607  23.519  0.00  0.00     0.119 A 
ATOM     25  C   UNL d   1     -43.397  10.093  23.358  0.00  0.00     0.304 A 
ATOM     26  O   UNL d   1     -44.147   9.973  23.698  0.00  0.00    -0.300 OA
ATOM     27  C   UNL d   1     -45.444  10.800  23.698  0.00  0.00     0.026 A 
ATOM     28  C   UNL d   1     -45.778  11.503  23.419  0.00  0.00     0.004 A 
ENDBRANCH  19  20
ENDBRANCH   3  19
TORSDOF 3
ENDMDL
MODEL 5
REMARK VINA RESULT:      -7.6      1.317      5.141
REMARK  3 active torsions:
REMARK  status: ('A' for Active; 'I' for Inactive)
REMARK    1  A    between atoms: C_2  and  C_1 
REMARK       I    between atoms: N_3  and  C_2 
REMARK    2  A    between atoms: C_21  and  N_4 
REMARK    3  A    between atoms: C_20  and  C_21 
ROOT
ATOM      1  C   UNL d   1     -46.352  11.851  23.196  0.00  0.00     0.255 C 
ATOM      2  N   UNL d   1     -47.171  12.034  23.102  0.00  0.00    -0.271 N 
ATOM      3  N   UNL d   1     -48.780  12.378  22.931  0.00  0.00    -0.300 N 
ATOM      4  O   UNL d   1     -46.143  11.311  23.697  0.00  0.00    -0.270 OA
ATOM      5  C   UNL d   1     -47.740  11.637  23.543  0.00  0.00     0.102 A 
ATOM      6  C   UNL d   1     -47.408  12.613  22.566  0.00  0.00     0.102 A 
ATOM      7  C   UNL d   1     -48.218  12.794  22.473  0.00  0.00     0.100 A 
ATOM      8  C   UNL d   1     -48.539  11.794  23.471  0.00  0.00     0.100 A 
ENDROOT
BRANCH   1   9
ATOM      9  C   UNL d   1     -45.802  12.245  22.760  0.00  0.00     0.137 A 
ATOM     10  C   UNL d   1     -45.143  11.779  22.886  0.00  0.00     0.033 A 
ATOM     11  C   UNL d   1     -44.392  11.908  22.573  0.00  0.00     0.046 A 
ATOM     12  C   UNL d   1     -43.967  12.393  22.112  0.00  0.00    -0.015 A 
ATOM     13  C   UNL d   1     -44.252  12.507  22.118  0.00  0.00    -0.022 A 
ATOM     14  C   UNL d   1     -44.417  12.939  21.869  0.00  0.00     0.027 A 
ATOM     15  C   UNL d   1     -45.117  12.739  22.215  0.00  0.00    -0.117 A 
ATOM     16  C   UNL d   1     -44.383  13.613  21.393  0.00  0.00     0.006 A 
ATOM     17  C   UNL d   1     -45.068  13.094  21.956  0.00  0.00    -0.006 A 
ATOM     18  C   UNL d   1     -45.764  12.907  22.292  0.00  0.00    -0.007 A 
ENDBRANCH   1   9
BRANCH   3  19
ATOM     19  C   UNL d   1     -49.483  12.452  22.931  0.00  0.00     0.080 C 
BRANCH  19  20
ATOM     20  C   UNL d   1     -49.814  13.184  22.775  0.00  0.00     0.020 A 
ATOM     21  C   UNL d   1     -49.868  13.763  23.365  0.00  0.00     0.028 A 
ATOM     22  C   UNL d   1     -50.203  14.507  23.210  0.00  0.00     0.119 A 
ATOM     23  O   UNL d   1     -50.310  15.144  23.697  0.00  0.00    -0.300 OA
ATOM     24  C   UNL d   1     -50.494  14.689  22.453  0.00  0.00     0.119 A 
ATOM     25  C   UNL d   1     -50.683  15.770  23.257  0.00  0.00     0.304 A 
ATOM     26  O   UNL d   1     -50.785  15.462  22.491  0.00  0.00    -0.300 OA
ATOM     27  C   UNL d   1     -50.442  14.106  21.851  0.00  0.00     0.026 A 
ATOM     28  C   UNL d   1     -50.107  13.367  22.010  0.00  0.00     0.004 A 
ENDBRANCH  19  20
ENDBRANCH   3  19
TORSDOF 3
ENDMDL
MODEL 6
REMARK VINA RESULT:      -7.4      8.869      9.763
REMARK  3 active torsions:
REMARK  status: ('A' for Active; 'I' for Inactive)
REMARK    1  A    between atoms: C_2  and  C_1 
REMARK       I    between atoms: N_3  and  C_2 
REMARK    2  A    between atoms: C_21  and  N_4 
REMARK    3  A    between atoms: C_20  and  C_21 
ROOT
ATOM      1  C   UNL d   1     -39.417  13.831  17.643  0.00  0.00     0.255 C 
ATOM      2  N   UNL d   1     -39.048  13.795  18.402  0.00  0.00    -0.271 N 
ATOM      3  N   UNL d   1     -38.313  13.711  19.881  0.00  0.00    -0.300 N 
ATOM      4  O   UNL d   1     -39.208  13.334  17.100  0.00  0.00    -0.270 OA
ATOM      5  C   UNL d   1     -38.469  13.234  18.557  0.00  0.00     0.102 A 
ATOM      6  C   UNL d   1     -39.265  14.325  18.994  0.00  0.00     0.102 A 
ATOM      7  C   UNL d   1     -38.899  14.290  19.745  0.00  0.00     0.100 A 
ATOM      8  C   UNL d   1     -38.095  13.178  19.283  0.00  0.00     0.100 A 
ENDROOT
BRANCH   1   9
ATOM      9  C   UNL d   1     -39.984  14.384  17.500  0.00  0.00     0.137 A 
ATOM     10  C   UNL d   1     -39.651  14.787  16.872  0.00  0.00     0.033 A 
ATOM     11  C   UNL d   1     -39.983  15.429  16.478  0.00  0.00     0.046 A 
ATOM     12  C   UNL d   1     -40.615  15.907  16.455  0.00  0.00    -0.015 A 
ATOM     13  C   UNL d   1     -40.665  15.709  16.683  0.00  0.00    -0.022 A 
ATOM     14  C   UNL d   1     -41.089  15.695  16.994  0.00  0.00     0.027 A 
ATOM     15  C   UNL d   1     -40.693  15.074  17.323  0.00  0.00    -0.117 A 
ATOM     16  C   UNL d   1     -41.825  15.909  17.301  0.00  0.00     0.006 A 
ATOM     17  C   UNL d   1     -41.088  15.212  17.466  0.00  0.00    -0.006 A 
ATOM     18  C   UNL d   1     -40.708  14.598  17.799  0.00  0.00    -0.007 A 
ENDBRANCH   1   9
BRANCH   3  19
ATOM     19  C   UNL d   1     -37.944  13.596  20.473  0.00  0.00     0.080 C 
BRANCH  19  20
ATOM     20  C   UNL d   1     -38.275  13.779  21.199  0.00  0.00     0.020 A 
ATOM     21  C   UNL d   1     -38.180  14.530  21.535  0.00  0.00     0.028 A 
ATOM     22  C   UNL d   1     -38.514  14.719  22.271  0.00  0.00     0.119 A 
ATOM     23  O   UNL d   1     -38.489  15.408  22.695  0.00  0.00    -0.300 OA
ATOM     24  C   UNL d   1     -38.956  14.154  22.691  0.00  0.00     0.119 A 
ATOM     25  C   UNL d   1     -38.926  15.304  23.418  0.00  0.00     0.304 A 
ATOM     26  O   UNL d   1     -39.204  14.521  23.390  0.00  0.00    -0.300 OA
ATOM     27  C   UNL d   1     -39.057  13.391  22.356  0.00  0.00     0.026 A 
ATOM     28  C   UNL d   1     -38.722  13.208  21.622  0.00  0.00     0.004 A 
ENDBRANCH  19  20
ENDBRANCH   3  19
TORSDOF 3
ENDMDL
