MODEL 1
REMARK VINA RESULT:      -3.7      0.000      0.000
REMARK  5 active torsions:
REMARK  status: ('A' for Active; 'I' for Inactive)
REMARK    1  A    between atoms: O_8  and  S_1 
REMARK    2  A    between atoms: C_13  and  S_1 
REMARK    3  A    between atoms: C_7  and  C_2 
REMARK    4  A    between atoms: C_18  and  C_7 
REMARK    5  A    between atoms: C_14  and  O_8 
ROOT
ATOM      1  C   UNL d   1      58.393  -1.151  29.127  0.00  0.00     0.139 A 
ATOM      2  C   UNL d   1      58.080  -0.129  29.918  0.00  0.00     0.064 A 
ATOM      3  C   UNL d   1      58.216  -0.344  29.137  0.00  0.00     0.220 A 
ATOM      4  C   UNL d   1      58.171  -0.796  30.395  0.00  0.00     0.105 A 
ATOM      5  O   UNL d   1      58.365  -1.430  29.902  0.00  0.00    -0.304 OA
ATOM      6  C   UNL d   1      58.066  -0.734  31.201  0.00  0.00     0.050 A 
ATOM      7  C   UNL d   1      57.884   0.596  30.257  0.00  0.00     0.007 A 
ATOM      8  C   UNL d   1      57.870  -0.010  31.539  0.00  0.00     0.116 A 
ATOM      9  O   UNL d   1      58.184   0.148  28.476  0.00  0.00    -0.284 OA
ATOM     10  C   UNL d   1      57.780   0.651  31.067  0.00  0.00     0.026 A 
ENDROOT
BRANCH   8  11
ATOM     11  O   UNL d   1      57.765   0.048  32.353  0.00  0.00    -0.227 OA
BRANCH  11  12
ATOM     12  S   UNL d   1      57.010  -0.021  32.678  0.00  0.00     0.304 S 
ATOM     13  O   UNL d   1      57.103   0.682  33.074  0.00  0.00    -0.193 OA
ATOM     14  O   UNL d   1      56.906  -0.726  32.287  0.00  0.00    -0.193 OA
BRANCH  12  15
ATOM     15  C   UNL d   1      56.253  -0.094  33.001  0.00  0.00     0.111 A 
ATOM     16  C   UNL d   1      55.872   0.571  33.322  0.00  0.00     0.013 A 
ATOM     17  C   UNL d   1      55.116   0.499  33.644  0.00  0.00     0.001 A 
ATOM     18  C   UNL d   1      54.734  -0.239  33.650  0.00  0.00     0.000 A 
ATOM     19  C   UNL d   1      55.120  -0.899  33.329  0.00  0.00     0.001 A 
ATOM     20  C   UNL d   1      55.876  -0.823  33.007  0.00  0.00     0.013 A 
ENDBRANCH  12  15
ENDBRANCH  11  12
ENDBRANCH   8  11
BRANCH   1  21
ATOM     21  C   UNL d   1      58.567  -1.603  28.459  0.00  0.00     0.029 C 
BRANCH  21  22
ATOM     22  C   UNL d   1      59.122  -2.217  28.500  0.00  0.00     0.021 A 
ATOM     23  C   UNL d   1      58.858  -2.991  28.554  0.00  0.00     0.099 A 
ATOM     24  N   UNL d   1      59.395  -3.608  28.595  0.00  0.00    -0.242 NA
ATOM     25  C   UNL d   1      60.214  -3.447  28.582  0.00  0.00     0.099 A 
ATOM     26  C   UNL d   1      60.475  -2.664  28.527  0.00  0.00     0.021 A 
ATOM     27  C   UNL d   1      59.921  -2.051  28.486  0.00  0.00     0.003 A 
ENDBRANCH  21  22
ENDBRANCH   1  21
TORSDOF 5
ENDMDL
MODEL 2
REMARK VINA RESULT:      -3.0      1.821      5.112
REMARK  5 active torsions:
REMARK  status: ('A' for Active; 'I' for Inactive)
REMARK    1  A    between atoms: O_8  and  S_1 
REMARK    2  A    between atoms: C_13  and  S_1 
REMARK    3  A    between atoms: C_7  and  C_2 
REMARK    4  A    between atoms: C_18  and  C_7 
REMARK    5  A    between atoms: C_14  and  O_8 
ROOT
ATOM      1  C   UNL d   1      57.190   0.234  32.165  0.00  0.00     0.139 A 
ATOM      2  C   UNL d   1      58.320   0.234  31.463  0.00  0.00     0.064 A 
ATOM      3  C   UNL d   1      57.998   0.400  32.201  0.00  0.00     0.220 A 
ATOM      4  C   UNL d   1      57.717  -0.035  30.968  0.00  0.00     0.105 A 
ATOM      5  O   UNL d   1      57.016  -0.035  31.405  0.00  0.00    -0.304 OA
ATOM      6  C   UNL d   1      57.888  -0.240  30.198  0.00  0.00     0.050 A 
ATOM      7  C   UNL d   1      59.090   0.294  31.179  0.00  0.00     0.007 A 
ATOM      8  C   UNL d   1      58.659  -0.180  29.914  0.00  0.00     0.116 A 
ATOM      9  O   UNL d   1      58.401   0.682  32.863  0.00  0.00    -0.284 OA
ATOM     10  C   UNL d   1      59.256   0.087  30.404  0.00  0.00     0.026 A 
ENDROOT
BRANCH   8  11
ATOM     11  O   UNL d   1      58.826  -0.388  29.136  0.00  0.00    -0.227 OA
BRANCH  11  12
ATOM     12  S   UNL d   1      59.142  -1.131  28.965  0.00  0.00     0.304 S 
ATOM     13  O   UNL d   1      59.878  -0.806  28.850  0.00  0.00    -0.193 OA
ATOM     14  O   UNL d   1      58.411  -1.467  29.078  0.00  0.00    -0.193 OA
BRANCH  12  15
ATOM     15  C   UNL d   1      59.454  -1.877  28.796  0.00  0.00     0.111 A 
ATOM     16  C   UNL d   1      58.945  -2.511  28.625  0.00  0.00     0.013 A 
ATOM     17  C   UNL d   1      59.256  -3.256  28.455  0.00  0.00     0.001 A 
ATOM     18  C   UNL d   1      60.078  -3.374  28.455  0.00  0.00     0.000 A 
ATOM     19  C   UNL d   1      60.581  -2.737  28.627  0.00  0.00     0.001 A 
ATOM     20  C   UNL d   1      60.266  -1.994  28.796  0.00  0.00     0.013 A 
ENDBRANCH  12  15
ENDBRANCH  11  12
ENDBRANCH   8  11
BRANCH   1  21
ATOM     21  C   UNL d   1      56.647   0.319  32.780  0.00  0.00     0.029 C 
BRANCH  21  22
ATOM     22  C   UNL d   1      56.140  -0.303  32.983  0.00  0.00     0.021 A 
ATOM     23  C   UNL d   1      55.398  -0.131  33.288  0.00  0.00     0.099 A 
ATOM     24  N   UNL d   1      54.886  -0.737  33.493  0.00  0.00    -0.242 NA
ATOM     25  C   UNL d   1      55.121  -1.530  33.391  0.00  0.00     0.099 A 
ATOM     26  C   UNL d   1      55.870  -1.699  33.083  0.00  0.00     0.021 A 
ATOM     27  C   UNL d   1      56.376  -1.077  32.881  0.00  0.00     0.003 A 
ENDBRANCH  21  22
ENDBRANCH   1  21
TORSDOF 5
ENDMDL
