MODEL 1
REMARK VINA RESULT:      -2.6      0.000      0.000
REMARK  6 active torsions:
REMARK  status: ('A' for Active; 'I' for Inactive)
REMARK    1  A    between atoms: C_2  and  S_1 
REMARK    2  A    between atoms: N_3  and  S_1 
REMARK    3  A    between atoms: C_10  and  N_3 
REMARK    4  A    between atoms: O_15  and  C_5 
REMARK    5  A    between atoms: C_13  and  C_10 
REMARK    6  A    between atoms: C_17  and  O_15 
ROOT
ATOM      1  S   UNL d   1      32.898  18.456 -23.339  0.00  0.00     0.285 S 
ATOM      2  O   UNL d   1      32.845  18.138 -22.575  0.00  0.00    -0.198 OA
ATOM      3  O   UNL d   1      32.951  18.772 -24.099  0.00  0.00    -0.198 OA
ENDROOT
BRANCH   1   4
ATOM      4  C   UNL d   1      32.686  17.725 -23.658  0.00  0.00     0.107 A 
ATOM      5  C   UNL d   1      31.914  17.601 -23.930  0.00  0.00     0.038 A 
ATOM      6  C   UNL d   1      31.700  16.863 -24.252  0.00  0.00     0.111 A 
ATOM      7  C   UNL d   1      32.260  16.255 -24.299  0.00  0.00     0.081 A 
ATOM      8  C   UNL d   1      33.027  16.381 -24.028  0.00  0.00     0.014 A 
ATOM      9 CL   UNL d   1      32.048  15.525 -24.618  0.00  0.00    -0.080 Cl
ATOM     10  C   UNL d   1      33.241  17.119 -23.706  0.00  0.00     0.014 A 
BRANCH   6  11
ATOM     11  O   UNL d   1      30.932  16.738 -24.523  0.00  0.00    -0.304 OA
BRANCH  11  12
ATOM     12  C   UNL d   1      30.325  17.235 -24.275  0.00  0.00     0.123 C 
ATOM     13  C   UNL d   1      29.592  17.204 -24.650  0.00  0.00     0.029 C 
ENDBRANCH  11  12
ENDBRANCH   6  11
ENDBRANCH   1   4
BRANCH   1  14
ATOM     14  N   UNL d   1      33.110  19.187 -23.021  0.00  0.00    -0.155 NA
BRANCH  14  15
ATOM     15  C   UNL d   1      32.707  19.481 -22.361  0.00  0.00     0.131 C 
BRANCH  15  16
ATOM     16  C   UNL d   1      32.883  20.234 -22.074  0.00  0.00     0.101 A 
ATOM     17  N   UNL d   1      33.065  20.844 -22.598  0.00  0.00    -0.242 NA
ATOM     18  C   UNL d   1      33.241  21.597 -22.312  0.00  0.00     0.099 A 
ATOM     19  C   UNL d   1      33.236  21.741 -21.501  0.00  0.00     0.021 A 
ATOM     20  C   UNL d   1      33.054  21.131 -20.973  0.00  0.00     0.003 A 
ATOM     21  C   UNL d   1      32.877  20.378 -21.260  0.00  0.00     0.021 A 
ENDBRANCH  15  16
ENDBRANCH  14  15
ENDBRANCH   1  14
TORSDOF 6
ENDMDL
MODEL 2
REMARK VINA RESULT:      -2.0      3.863      5.656
REMARK  6 active torsions:
REMARK  status: ('A' for Active; 'I' for Inactive)
REMARK    1  A    between atoms: C_2  and  S_1 
REMARK    2  A    between atoms: N_3  and  S_1 
REMARK    3  A    between atoms: C_10  and  N_3 
REMARK    4  A    between atoms: O_15  and  C_5 
REMARK    5  A    between atoms: C_13  and  C_10 
REMARK    6  A    between atoms: C_17  and  O_15 
ROOT
ATOM      1  S   UNL d   1      32.516  22.969 -20.068  0.00  0.00     0.285 S 
ATOM      2  O   UNL d   1      32.073  22.279 -19.939  0.00  0.00    -0.198 OA
ATOM      3  O   UNL d   1      32.955  23.655 -20.196  0.00  0.00    -0.198 OA
ENDROOT
BRANCH   1   4
ATOM      4  C   UNL d   1      32.657  22.733 -20.845  0.00  0.00     0.107 A 
ATOM      5  C   UNL d   1      32.810  21.938 -21.014  0.00  0.00     0.038 A 
ATOM      6  C   UNL d   1      32.953  21.699 -21.799  0.00  0.00     0.111 A 
ATOM      7  C   UNL d   1      32.942  22.258 -22.409  0.00  0.00     0.081 A 
ATOM      8  C   UNL d   1      32.789  23.049 -22.239  0.00  0.00     0.014 A 
ATOM      9 CL   UNL d   1      33.084  22.022 -23.187  0.00  0.00    -0.080 Cl
ATOM     10  C   UNL d   1      32.646  23.287 -21.454  0.00  0.00     0.014 A 
BRANCH   6  11
ATOM     11  O   UNL d   1      33.106  20.907 -21.969  0.00  0.00    -0.304 OA
BRANCH  11  12
ATOM     12  C   UNL d   1      33.232  20.374 -21.354  0.00  0.00     0.123 C 
ATOM     13  C   UNL d   1      33.102  19.570 -21.477  0.00  0.00     0.029 C 
ENDBRANCH  11  12
ENDBRANCH   6  11
ENDBRANCH   1   4
BRANCH   1  14
ATOM     14  N   UNL d   1      32.374  23.206 -19.290  0.00  0.00    -0.155 NA
BRANCH  14  15
ATOM     15  C   UNL d   1      32.999  23.240 -18.750  0.00  0.00     0.131 C 
BRANCH  15  16
ATOM     16  C   UNL d   1      32.846  23.192 -17.940  0.00  0.00     0.101 A 
ATOM     17  N   UNL d   1      33.241  22.636 -17.478  0.00  0.00    -0.242 NA
ATOM     18  C   UNL d   1      33.087  22.587 -16.669  0.00  0.00     0.099 A 
ATOM     19  C   UNL d   1      32.539  23.095 -16.322  0.00  0.00     0.021 A 
ATOM     20  C   UNL d   1      32.142  23.654 -16.784  0.00  0.00     0.003 A 
ATOM     21  C   UNL d   1      32.295  23.702 -17.593  0.00  0.00     0.021 A 
ENDBRANCH  15  16
ENDBRANCH  14  15
ENDBRANCH   1  14
TORSDOF 6
ENDMDL
MODEL 3
REMARK VINA RESULT:      -2.0      1.426      2.066
REMARK  6 active torsions:
REMARK  status: ('A' for Active; 'I' for Inactive)
REMARK    1  A    between atoms: C_2  and  S_1 
REMARK    2  A    between atoms: N_3  and  S_1 
REMARK    3  A    between atoms: C_10  and  N_3 
REMARK    4  A    between atoms: O_15  and  C_5 
REMARK    5  A    between atoms: C_13  and  C_10 
REMARK    6  A    between atoms: C_17  and  O_15 
ROOT
ATOM      1  S   UNL d   1      33.165  19.921 -22.441  0.00  0.00     0.285 S 
ATOM      2  O   UNL d   1      33.240  20.542 -22.987  0.00  0.00    -0.198 OA
ATOM      3  O   UNL d   1      33.090  19.305 -21.899  0.00  0.00    -0.198 OA
ENDROOT
BRANCH   1   4
ATOM      4  C   UNL d   1      33.113  19.381 -23.063  0.00  0.00     0.107 A 
ATOM      5  C   UNL d   1      32.934  18.588 -22.907  0.00  0.00     0.038 A 
ATOM      6  C   UNL d   1      32.882  18.043 -23.535  0.00  0.00     0.111 A 
ATOM      7  C   UNL d   1      33.010  18.295 -24.312  0.00  0.00     0.081 A 
ATOM      8  C   UNL d   1      33.189  19.084 -24.465  0.00  0.00     0.014 A 
ATOM      9 CL   UNL d   1      32.959  17.755 -24.934  0.00  0.00    -0.080 Cl
ATOM     10  C   UNL d   1      33.241  19.629 -23.837  0.00  0.00     0.014 A 
BRANCH   6  11
ATOM     11  O   UNL d   1      32.703  17.253 -23.382  0.00  0.00    -0.304 OA
BRANCH  11  12
ATOM     12  C   UNL d   1      31.921  16.998 -23.414  0.00  0.00     0.123 C 
ATOM     13  C   UNL d   1      31.751  16.193 -23.356  0.00  0.00     0.029 C 
ENDBRANCH  11  12
ENDBRANCH   6  11
ENDBRANCH   1   4
BRANCH   1  14
ATOM     14  N   UNL d   1      33.216  20.461 -21.819  0.00  0.00    -0.155 NA
BRANCH  14  15
ATOM     15  C   UNL d   1      32.526  20.750 -21.467  0.00  0.00     0.131 C 
BRANCH  15  16
ATOM     16  C   UNL d   1      32.561  21.417 -20.983  0.00  0.00     0.101 A 
ATOM     17  N   UNL d   1      32.089  22.073 -21.149  0.00  0.00    -0.242 NA
ATOM     18  C   UNL d   1      32.124  22.740 -20.665  0.00  0.00     0.099 A 
ATOM     19  C   UNL d   1      32.629  22.752 -20.015  0.00  0.00     0.021 A 
ATOM     20  C   UNL d   1      33.104  22.096 -19.846  0.00  0.00     0.003 A 
ATOM     21  C   UNL d   1      33.069  21.428 -20.330  0.00  0.00     0.021 A 
ENDBRANCH  15  16
ENDBRANCH  14  15
ENDBRANCH   1  14
TORSDOF 6
ENDMDL
MODEL 4
REMARK VINA RESULT:      -1.2      2.334      4.841
REMARK  6 active torsions:
REMARK  status: ('A' for Active; 'I' for Inactive)
REMARK    1  A    between atoms: C_2  and  S_1 
REMARK    2  A    between atoms: N_3  and  S_1 
REMARK    3  A    between atoms: C_10  and  N_3 
REMARK    4  A    between atoms: O_15  and  C_5 
REMARK    5  A    between atoms: C_13  and  C_10 
REMARK    6  A    between atoms: C_17  and  O_15 
ROOT
ATOM      1  S   UNL d   1      33.233  20.004 -23.225  0.00  0.00     0.285 S 
ATOM      2  O   UNL d   1      33.225  19.828 -22.414  0.00  0.00    -0.198 OA
ATOM      3  O   UNL d   1      33.241  20.178 -24.030  0.00  0.00    -0.198 OA
ENDROOT
BRANCH   1   4
ATOM      4  C   UNL d   1      33.233  20.810 -23.050  0.00  0.00     0.107 A 
ATOM      5  C   UNL d   1      33.227  21.062 -22.262  0.00  0.00     0.038 A 
ATOM      6  C   UNL d   1      33.226  21.876 -22.086  0.00  0.00     0.111 A 
ATOM      7  C   UNL d   1      33.232  22.432 -22.699  0.00  0.00     0.081 A 
ATOM      8  C   UNL d   1      33.239  22.179 -23.482  0.00  0.00     0.014 A 
ATOM      9 CL   UNL d   1      33.232  23.238 -22.524  0.00  0.00    -0.080 Cl
ATOM     10  C   UNL d   1      33.239  21.365 -23.659  0.00  0.00     0.014 A 
BRANCH   6  11
ATOM     11  O   UNL d   1      33.220  22.129 -21.301  0.00  0.00    -0.304 OA
BRANCH  11  12
ATOM     12  C   UNL d   1      32.693  21.792 -20.767  0.00  0.00     0.123 C 
ATOM     13  C   UNL d   1      32.612  22.114 -20.013  0.00  0.00     0.029 C 
ENDBRANCH  11  12
ENDBRANCH   6  11
ENDBRANCH   1   4
BRANCH   1  14
ATOM     14  N   UNL d   1      33.233  19.198 -23.399  0.00  0.00    -0.155 NA
BRANCH  14  15
ATOM     15  C   UNL d   1      32.574  18.854 -23.761  0.00  0.00     0.131 C 
BRANCH  15  16
ATOM     16  C   UNL d   1      32.568  18.046 -23.923  0.00  0.00     0.101 A 
ATOM     17  N   UNL d   1      32.974  17.753 -24.577  0.00  0.00    -0.242 NA
ATOM     18  C   UNL d   1      32.969  16.944 -24.739  0.00  0.00     0.099 A 
ATOM     19  C   UNL d   1      32.557  16.428 -24.247  0.00  0.00     0.021 A 
ATOM     20  C   UNL d   1      32.148  16.719 -23.590  0.00  0.00     0.003 A 
ATOM     21  C   UNL d   1      32.154  17.528 -23.428  0.00  0.00     0.021 A 
ENDBRANCH  15  16
ENDBRANCH  14  15
ENDBRANCH   1  14
TORSDOF 6
ENDMDL
MODEL 5
REMARK VINA RESULT:      -0.6      3.594      4.917
REMARK  6 active torsions:
REMARK  status: ('A' for Active; 'I' for Inactive)
REMARK    1  A    between atoms: C_2  and  S_1 
REMARK    2  A    between atoms: N_3  and  S_1 
REMARK    3  A    between atoms: C_10  and  N_3 
REMARK    4  A    between atoms: O_15  and  C_5 
REMARK    5  A    between atoms: C_13  and  C_10 
REMARK    6  A    between atoms: C_17  and  O_15 
ROOT
ATOM      1  S   UNL d   1      32.987  21.540 -20.293  0.00  0.00     0.285 S 
ATOM      2  O   UNL d   1      32.731  20.800 -20.018  0.00  0.00    -0.198 OA
ATOM      3  O   UNL d   1      33.241  22.275 -20.565  0.00  0.00    -0.198 OA
ENDROOT
BRANCH   1   4
ATOM      4  C   UNL d   1      32.968  21.259 -21.068  0.00  0.00     0.107 A 
ATOM      5  C   UNL d   1      33.044  21.786 -21.701  0.00  0.00     0.038 A 
ATOM      6  C   UNL d   1      33.025  21.502 -22.483  0.00  0.00     0.111 A 
ATOM      7  C   UNL d   1      32.931  20.693 -22.627  0.00  0.00     0.081 A 
ATOM      8  C   UNL d   1      32.856  20.170 -21.996  0.00  0.00     0.014 A 
ATOM      9 CL   UNL d   1      32.913  20.411 -23.402  0.00  0.00    -0.080 Cl
ATOM     10  C   UNL d   1      32.875  20.454 -21.213  0.00  0.00     0.014 A 
BRANCH   6  11
ATOM     11  O   UNL d   1      33.100  22.026 -23.115  0.00  0.00    -0.304 OA
BRANCH  11  12
ATOM     12  C   UNL d   1      33.078  22.837 -22.978  0.00  0.00     0.123 C 
ATOM     13  C   UNL d   1      33.218  23.361 -23.599  0.00  0.00     0.029 C 
ENDBRANCH  11  12
ENDBRANCH   6  11
ENDBRANCH   1   4
BRANCH   1  14
ATOM     14  N   UNL d   1      33.005  21.822 -19.517  0.00  0.00    -0.155 NA
BRANCH  14  15
ATOM     15  C   UNL d   1      32.955  22.634 -19.373  0.00  0.00     0.131 C 
BRANCH  15  16
ATOM     16  C   UNL d   1      32.778  22.907 -18.614  0.00  0.00     0.101 A 
ATOM     17  N   UNL d   1      33.240  22.675 -17.973  0.00  0.00    -0.242 NA
ATOM     18  C   UNL d   1      33.063  22.947 -17.215  0.00  0.00     0.099 A 
ATOM     19  C   UNL d   1      32.422  23.451 -17.098  0.00  0.00     0.021 A 
ATOM     20  C   UNL d   1      31.956  23.685 -17.740  0.00  0.00     0.003 A 
ATOM     21  C   UNL d   1      32.134  23.413 -18.498  0.00  0.00     0.021 A 
ENDBRANCH  15  16
ENDBRANCH  14  15
ENDBRANCH   1  14
TORSDOF 6
ENDMDL
MODEL 6
REMARK VINA RESULT:      -0.5      2.341      4.820
REMARK  6 active torsions:
REMARK  status: ('A' for Active; 'I' for Inactive)
REMARK    1  A    between atoms: C_2  and  S_1 
REMARK    2  A    between atoms: N_3  and  S_1 
REMARK    3  A    between atoms: C_10  and  N_3 
REMARK    4  A    between atoms: O_15  and  C_5 
REMARK    5  A    between atoms: C_13  and  C_10 
REMARK    6  A    between atoms: C_17  and  O_15 
ROOT
ATOM      1  S   UNL d   1      30.649  17.340 -23.849  0.00  0.00     0.285 S 
ATOM      2  O   UNL d   1      31.144  16.892 -23.357  0.00  0.00    -0.198 OA
ATOM      3  O   UNL d   1      30.157  17.785 -24.338  0.00  0.00    -0.198 OA
ENDROOT
BRANCH   1   4
ATOM      4  C   UNL d   1      31.293  17.802 -24.078  0.00  0.00     0.107 A 
ATOM      5  C   UNL d   1      31.704  18.246 -23.513  0.00  0.00     0.038 A 
ATOM      6  C   UNL d   1      32.355  18.712 -23.743  0.00  0.00     0.111 A 
ATOM      7  C   UNL d   1      32.589  18.731 -24.537  0.00  0.00     0.081 A 
ATOM      8  C   UNL d   1      32.179  18.288 -25.097  0.00  0.00     0.014 A 
ATOM      9 CL   UNL d   1      33.233  19.192 -24.765  0.00  0.00    -0.080 Cl
ATOM     10  C   UNL d   1      31.528  17.822 -24.866  0.00  0.00     0.014 A 
BRANCH   6  11
ATOM     11  O   UNL d   1      32.765  19.154 -23.183  0.00  0.00    -0.304 OA
BRANCH  11  12
ATOM     12  C   UNL d   1      32.965  18.815 -22.460  0.00  0.00     0.123 C 
ATOM     13  C   UNL d   1      33.218  19.293 -21.839  0.00  0.00     0.029 C 
ENDBRANCH  11  12
ENDBRANCH   6  11
ENDBRANCH   1   4
BRANCH   1  14
ATOM     14  N   UNL d   1      30.004  16.878 -23.621  0.00  0.00    -0.155 NA
BRANCH  14  15
ATOM     15  C   UNL d   1      29.681  16.332 -24.150  0.00  0.00     0.131 C 
BRANCH  15  16
ATOM     16  C   UNL d   1      28.920  16.040 -24.026  0.00  0.00     0.101 A 
ATOM     17  N   UNL d   1      28.476  15.760 -24.661  0.00  0.00    -0.242 NA
ATOM     18  C   UNL d   1      27.714  15.468 -24.536  0.00  0.00     0.099 A 
ATOM     19  C   UNL d   1      27.397  15.456 -23.777  0.00  0.00     0.021 A 
ATOM     20  C   UNL d   1      27.840  15.736 -23.137  0.00  0.00     0.003 A 
ATOM     21  C   UNL d   1      28.602  16.028 -23.262  0.00  0.00     0.021 A 
ENDBRANCH  15  16
ENDBRANCH  14  15
ENDBRANCH   1  14
TORSDOF 6
ENDMDL
MODEL 7
REMARK VINA RESULT:       0.4      1.815      2.563
REMARK  6 active torsions:
REMARK  status: ('A' for Active; 'I' for Inactive)
REMARK    1  A    between atoms: C_2  and  S_1 
REMARK    2  A    between atoms: N_3  and  S_1 
REMARK    3  A    between atoms: C_10  and  N_3 
REMARK    4  A    between atoms: O_15  and  C_5 
REMARK    5  A    between atoms: C_13  and  C_10 
REMARK    6  A    between atoms: C_17  and  O_15 
ROOT
ATOM      1  S   UNL d   1      31.204  17.520 -24.676  0.00  0.00     0.285 S 
ATOM      2  O   UNL d   1      30.698  18.162 -24.533  0.00  0.00    -0.198 OA
ATOM      3  O   UNL d   1      31.706  16.882 -24.818  0.00  0.00    -0.198 OA
ENDROOT
BRANCH   1   4
ATOM      4  C   UNL d   1      30.560  17.005 -24.639  0.00  0.00     0.107 A 
ATOM      5  C   UNL d   1      29.922  17.177 -24.142  0.00  0.00     0.038 A 
ATOM      6  C   UNL d   1      29.272  16.657 -24.104  0.00  0.00     0.111 A 
ATOM      7  C   UNL d   1      29.266  15.970 -24.565  0.00  0.00     0.081 A 
ATOM      8  C   UNL d   1      29.902  15.801 -25.060  0.00  0.00     0.014 A 
ATOM      9 CL   UNL d   1      28.623  15.455 -24.529  0.00  0.00    -0.080 Cl
ATOM     10  C   UNL d   1      30.552  16.321 -25.097  0.00  0.00     0.014 A 
BRANCH   6  11
ATOM     11  O   UNL d   1      28.635  16.826 -23.610  0.00  0.00    -0.304 OA
BRANCH  11  12
ATOM     12  C   UNL d   1      28.318  17.586 -23.596  0.00  0.00     0.123 C 
ATOM     13  C   UNL d   1      27.610  17.727 -23.199  0.00  0.00     0.029 C 
ENDBRANCH  11  12
ENDBRANCH   6  11
ENDBRANCH   1   4
BRANCH   1  14
ATOM     14  N   UNL d   1      31.847  18.035 -24.713  0.00  0.00    -0.155 NA
BRANCH  14  15
ATOM     15  C   UNL d   1      32.353  18.109 -24.062  0.00  0.00     0.131 C 
BRANCH  15  16
ATOM     16  C   UNL d   1      32.649  18.851 -23.855  0.00  0.00     0.101 A 
ATOM     17  N   UNL d   1      32.810  19.410 -24.439  0.00  0.00    -0.242 NA
ATOM     18  C   UNL d   1      33.106  20.151 -24.231  0.00  0.00     0.099 A 
ATOM     19  C   UNL d   1      33.241  20.334 -23.440  0.00  0.00     0.021 A 
ATOM     20  C   UNL d   1      33.081  19.775 -22.852  0.00  0.00     0.003 A 
ATOM     21  C   UNL d   1      32.785  19.033 -23.059  0.00  0.00     0.021 A 
ENDBRANCH  15  16
ENDBRANCH  14  15
ENDBRANCH   1  14
TORSDOF 6
ENDMDL
