MODEL 1
REMARK VINA RESULT:      34.6      0.000      0.000
REMARK  1 active torsions:
REMARK  status: ('A' for Active; 'I' for Inactive)
REMARK       I    between atoms: C_3  and  N_1 
REMARK    1  A    between atoms: C_6  and  C_3 
ROOT
ATOM      1  N   UNL d   1      14.197  13.337  -2.095  0.00  0.00    -0.175 N 
ATOM      2  N   UNL d   1      14.437  14.140  -2.123  0.00  0.00    -0.057 NA
ATOM      3  C   UNL d   1      13.700  12.959  -2.658  0.00  0.00     0.282 C 
ATOM      4  N   UNL d   1      14.897  14.282  -1.503  0.00  0.00    -0.129 NA
ATOM      5  C   UNL d   1      14.537  12.999  -1.423  0.00  0.00     0.107 A 
ATOM      6  C   UNL d   1      14.979  13.596  -1.048  0.00  0.00     0.122 A 
ATOM      7  O   UNL d   1      13.508  12.151  -2.554  0.00  0.00    -0.265 OA
ATOM      8  C   UNL d   1      14.506  12.227  -1.096  0.00  0.00     0.021 A 
ATOM      9  C   UNL d   1      15.401  13.435  -0.339  0.00  0.00     0.022 A 
ATOM     10  C   UNL d   1      14.924  12.066  -0.392  0.00  0.00     0.002 A 
ATOM     11  C   UNL d   1      15.366  12.663  -0.018  0.00  0.00     0.002 A 
ENDROOT
BRANCH   3  12
ATOM     12  C   UNL d   1      13.400  13.370  -3.306  0.00  0.00     0.058 A 
ATOM     13  C   UNL d   1      13.232  12.986  -4.006  0.00  0.00     0.005 A 
ATOM     14  C   UNL d   1      12.939  13.390  -4.638  0.00  0.00     0.000 A 
ATOM     15  C   UNL d   1      13.374  12.179  -4.035  0.00  0.00     0.000 A 
ATOM     16  C   UNL d   1      12.778  12.987  -5.326  0.00  0.00     0.000 A 
ATOM     17  C   UNL d   1      12.803  14.208  -4.585  0.00  0.00     0.000 A 
ATOM     18  C   UNL d   1      12.906  12.206  -5.383  0.00  0.00     0.000 A 
ATOM     19  C   UNL d   1      13.204  11.798  -4.739  0.00  0.00     0.000 A 
ATOM     20  C   UNL d   1      12.969  14.606  -3.884  0.00  0.00     0.000 A 
ATOM     21  C   UNL d   1      13.271  14.181  -3.237  0.00  0.00     0.005 A 
ENDBRANCH   3  12
TORSDOF 1
ENDMDL
