MODEL 1
REMARK VINA RESULT:      26.0      0.000      0.000
REMARK  5 active torsions:
REMARK  status: ('A' for Active; 'I' for Inactive)
REMARK    1  A    between atoms: C_6  and  C_1 
REMARK    2  A    between atoms: C_9  and  N_2 
REMARK    3  A    between atoms: O_13  and  C_8 
REMARK    4  A    between atoms: O_15  and  C_9 
REMARK    5  A    between atoms: O_14  and  C_10 
ROOT
ATOM      1  C   UNL d   1      45.493 -15.942  44.534  0.00  0.00     0.149 A 
ATOM      2  N   UNL d   1      44.949 -15.351  44.728  0.00  0.00    -0.269 N 
ATOM      3  N   UNL d   1      46.225 -15.564  44.464  0.00  0.00    -0.227 NA
ATOM      4  C   UNL d   1      45.332 -14.638  44.774  0.00  0.00     0.085 A 
ATOM      5  C   UNL d   1      46.157 -14.775  44.604  0.00  0.00     0.099 A 
ATOM      6  C   UNL d   1      45.067 -13.902  44.941  0.00  0.00     0.019 A 
ATOM      7  C   UNL d   1      46.647 -14.106  44.624  0.00  0.00     0.021 A 
ATOM      8  C   UNL d   1      45.591 -13.296  44.945  0.00  0.00     0.002 A 
ATOM      9  C   UNL d   1      46.365 -13.425  44.785  0.00  0.00     0.002 A 
ENDROOT
BRANCH   1  10
ATOM     10  C   UNL d   1      45.759 -16.677  44.368  0.00  0.00     0.037 A 
ATOM     11  C   UNL d   1      45.670 -16.979  43.605  0.00  0.00     0.029 A 
ATOM     12  C   UNL d   1      45.939 -17.737  43.418  0.00  0.00     0.116 A 
ATOM     13  C   UNL d   1      46.305 -18.200  44.005  0.00  0.00     0.116 A 
ATOM     14  C   UNL d   1      46.397 -17.901  44.771  0.00  0.00     0.026 A 
ATOM     15  C   UNL d   1      46.125 -17.140  44.954  0.00  0.00     0.005 A 
BRANCH  12  16
ATOM     16  O   UNL d   1      45.849 -18.038  42.656  0.00  0.00    -0.326 OA
ATOM     17  C   UNL d   1      46.396 -17.854  42.060  0.00  0.00     0.181 C 
ENDBRANCH  12  16
BRANCH  13  18
ATOM     18  O   UNL d   1      46.577 -18.959  43.822  0.00  0.00    -0.326 OA
ATOM     19  C   UNL d   1      46.601 -19.547  44.411  0.00  0.00     0.181 C 
ENDBRANCH  13  18
ENDBRANCH   1  10
BRANCH   2  20
ATOM     20  C   UNL d   1      44.212 -15.616  44.817  0.00  0.00     0.205 C 
BRANCH  20  21
ATOM     21  O   UNL d   1      43.569 -15.118  44.832  0.00  0.00    -0.310 OA
ATOM     22  C   UNL d   1      42.795 -15.381  44.883  0.00  0.00     0.183 C 
ENDBRANCH  20  21
ENDBRANCH   2  20
TORSDOF 5
ENDMDL
MODEL 2
REMARK VINA RESULT:      27.9      1.086      4.085
REMARK  5 active torsions:
REMARK  status: ('A' for Active; 'I' for Inactive)
REMARK    1  A    between atoms: C_6  and  C_1 
REMARK    2  A    between atoms: C_9  and  N_2 
REMARK    3  A    between atoms: O_13  and  C_8 
REMARK    4  A    between atoms: O_15  and  C_9 
REMARK    5  A    between atoms: O_14  and  C_10 
ROOT
ATOM      1  C   UNL d   1      46.156 -17.018  43.915  0.00  0.00     0.149 A 
ATOM      2  N   UNL d   1      46.332 -17.822  43.989  0.00  0.00    -0.269 N 
ATOM      3  N   UNL d   1      46.123 -16.865  43.104  0.00  0.00    -0.227 NA
ATOM      4  C   UNL d   1      46.404 -18.150  43.250  0.00  0.00     0.085 A 
ATOM      5  C   UNL d   1      46.269 -17.531  42.679  0.00  0.00     0.099 A 
ATOM      6  C   UNL d   1      46.566 -18.895  43.014  0.00  0.00     0.019 A 
ATOM      7  C   UNL d   1      46.318 -17.758  41.881  0.00  0.00     0.021 A 
ATOM      8  C   UNL d   1      46.601 -19.051  42.228  0.00  0.00     0.002 A 
ATOM      9  C   UNL d   1      46.474 -18.470  41.691  0.00  0.00     0.002 A 
ENDROOT
BRANCH   1  10
ATOM     10  C   UNL d   1      45.993 -16.272  44.151  0.00  0.00     0.037 A 
ATOM     11  C   UNL d   1      45.235 -16.086  44.420  0.00  0.00     0.029 A 
ATOM     12  C   UNL d   1      45.053 -15.320  44.667  0.00  0.00     0.116 A 
ATOM     13  C   UNL d   1      45.638 -14.729  44.644  0.00  0.00     0.116 A 
ATOM     14  C   UNL d   1      46.400 -14.911  44.375  0.00  0.00     0.026 A 
ATOM     15  C   UNL d   1      46.579 -15.681  44.128  0.00  0.00     0.005 A 
BRANCH  12  16
ATOM     16  O   UNL d   1      44.295 -15.136  44.936  0.00  0.00    -0.326 OA
ATOM     17  C   UNL d   1      43.676 -15.001  44.400  0.00  0.00     0.181 C 
ENDBRANCH  12  16
BRANCH  13  18
ATOM     18  O   UNL d   1      45.460 -13.960  44.890  0.00  0.00    -0.326 OA
ATOM     19  C   UNL d   1      45.918 -13.319  44.623  0.00  0.00     0.181 C 
ENDBRANCH  13  18
ENDBRANCH   1  10
BRANCH   2  20
ATOM     20  C   UNL d   1      46.385 -18.068  44.736  0.00  0.00     0.205 C 
BRANCH  20  21
ATOM     21  O   UNL d   1      46.473 -18.853  44.930  0.00  0.00    -0.310 OA
ATOM     22  C   UNL d   1      45.864 -19.399  44.894  0.00  0.00     0.183 C 
ENDBRANCH  20  21
ENDBRANCH   2  20
TORSDOF 5
ENDMDL
MODEL 3
REMARK VINA RESULT:      28.9      0.918      1.734
REMARK  5 active torsions:
REMARK  status: ('A' for Active; 'I' for Inactive)
REMARK    1  A    between atoms: C_6  and  C_1 
REMARK    2  A    between atoms: C_9  and  N_2 
REMARK    3  A    between atoms: O_13  and  C_8 
REMARK    4  A    between atoms: O_15  and  C_9 
REMARK    5  A    between atoms: O_14  and  C_10 
ROOT
ATOM      1  C   UNL d   1      45.655 -15.878  44.397  0.00  0.00     0.149 A 
ATOM      2  N   UNL d   1      45.748 -15.058  44.419  0.00  0.00    -0.269 N 
ATOM      3  N   UNL d   1      44.859 -16.022  44.567  0.00  0.00    -0.227 NA
ATOM      4  C   UNL d   1      45.036 -14.711  44.596  0.00  0.00     0.085 A 
ATOM      5  C   UNL d   1      44.462 -15.335  44.691  0.00  0.00     0.099 A 
ATOM      6  C   UNL d   1      44.826 -13.945  44.683  0.00  0.00     0.019 A 
ATOM      7  C   UNL d   1      43.690 -15.091  44.876  0.00  0.00     0.021 A 
ATOM      8  C   UNL d   1      44.063 -13.774  44.862  0.00  0.00     0.002 A 
ATOM      9  C   UNL d   1      43.524 -14.359  44.951  0.00  0.00     0.002 A 
ENDROOT
BRANCH   1  10
ATOM     10  C   UNL d   1      45.865 -16.645  44.310  0.00  0.00     0.037 A 
ATOM     11  C   UNL d   1      46.117 -16.917  43.572  0.00  0.00     0.029 A 
ATOM     12  C   UNL d   1      46.336 -17.706  43.468  0.00  0.00     0.116 A 
ATOM     13  C   UNL d   1      46.304 -18.231  44.112  0.00  0.00     0.116 A 
ATOM     14  C   UNL d   1      46.052 -17.963  44.854  0.00  0.00     0.026 A 
ATOM     15  C   UNL d   1      45.833 -17.171  44.954  0.00  0.00     0.005 A 
BRANCH  12  16
ATOM     16  O   UNL d   1      46.588 -17.977  42.731  0.00  0.00    -0.326 OA
ATOM     17  C   UNL d   1      46.113 -18.490  42.283  0.00  0.00     0.181 C 
ENDBRANCH  12  16
BRANCH  13  18
ATOM     18  O   UNL d   1      46.524 -19.022  44.012  0.00  0.00    -0.326 OA
ATOM     19  C   UNL d   1      46.460 -19.557  44.647  0.00  0.00     0.181 C 
ENDBRANCH  13  18
ENDBRANCH   1  10
BRANCH   2  20
ATOM     20  C   UNL d   1      46.484 -14.819  44.268  0.00  0.00     0.205 C 
BRANCH  20  21
ATOM     21  O   UNL d   1      46.643 -14.160  43.817  0.00  0.00    -0.310 OA
ATOM     22  C   UNL d   1      46.615 -13.396  44.108  0.00  0.00     0.183 C 
ENDBRANCH  20  21
ENDBRANCH   2  20
TORSDOF 5
ENDMDL
