MODEL 1
REMARK VINA RESULT:     137.9      0.000      0.000
REMARK  9 active torsions:
REMARK  status: ('A' for Active; 'I' for Inactive)
REMARK    1  A    between atoms: C_10  and  N_1 
REMARK    2  A    between atoms: S_13  and  C_2 
REMARK    3  A    between atoms: C_6  and  N_11 
REMARK    4  A    between atoms: C_24  and  C_10 
REMARK       I    between atoms: N_11  and  C_15 
REMARK    5  A    between atoms: C_21  and  S_13 
REMARK    6  A    between atoms: C_15  and  C_21 
REMARK    7  A    between atoms: O_27  and  C_17 
REMARK    8  A    between atoms: O_28  and  C_18 
REMARK    9  A    between atoms: C_23  and  C_24 
ROOT
ATOM      1  N   UNL d   1      61.905  38.693  51.390  0.00  0.00    -0.253 N 
ATOM      2  C   UNL d   1      61.483  38.384  52.016  0.00  0.00     0.182 A 
ATOM      3  C   UNL d   1      62.428  38.213  50.956  0.00  0.00     0.268 A 
ATOM      4  N   UNL d   1      61.573  37.587  52.225  0.00  0.00    -0.222 NA
ATOM      5  C   UNL d   1      62.514  37.417  51.170  0.00  0.00     0.074 A 
ATOM      6  C   UNL d   1      62.092  37.108  51.796  0.00  0.00     0.088 A 
ATOM      7  O   UNL d   1      62.849  38.522  50.331  0.00  0.00    -0.267 OA
ATOM      8  C   UNL d   1      63.038  36.933  50.735  0.00  0.00     0.006 A 
ATOM      9  C   UNL d   1      62.183  36.307  52.005  0.00  0.00     0.019 A 
ATOM     10  C   UNL d   1      63.121  36.142  50.950  0.00  0.00     0.000 A 
ATOM     11  C   UNL d   1      62.699  35.833  51.577  0.00  0.00     0.002 A 
ENDROOT
BRANCH   1  12
ATOM     12  C   UNL d   1      61.816  39.498  51.177  0.00  0.00     0.085 C 
BRANCH  12  13
ATOM     13  C   UNL d   1      62.349  39.852  50.655  0.00  0.00     0.019 C 
BRANCH  13  14
ATOM     14  C   UNL d   1      62.497  40.663  50.704  0.00  0.00     0.004 A 
ATOM     15  C   UNL d   1      62.298  41.079  51.389  0.00  0.00     0.026 A 
ATOM     16  C   UNL d   1      62.442  41.882  51.441  0.00  0.00     0.116 A 
ATOM     17  C   UNL d   1      62.793  42.283  50.802  0.00  0.00     0.116 A 
ATOM     18  C   UNL d   1      62.991  41.856  50.115  0.00  0.00     0.026 A 
ATOM     19  C   UNL d   1      62.842  41.049  50.071  0.00  0.00     0.002 A 
BRANCH  16  20
ATOM     20  O   UNL d   1      62.244  42.296  52.123  0.00  0.00    -0.326 OA
ATOM     21  C   UNL d   1      61.587  42.780  52.132  0.00  0.00     0.181 C 
ENDBRANCH  16  20
BRANCH  17  22
ATOM     22  O   UNL d   1      62.940  43.080  50.846  0.00  0.00    -0.326 OA
ATOM     23  C   UNL d   1      62.644  43.600  50.276  0.00  0.00     0.181 C 
ENDBRANCH  17  22
ENDBRANCH  13  14
ENDBRANCH  12  13
ENDBRANCH   1  12
BRANCH   2  24
ATOM     24  S   UNL d   1      60.956  38.868  52.454  0.00  0.00    -0.044 SA
BRANCH  24  25
ATOM     25  C   UNL d   1      60.721  38.649  53.218  0.00  0.00     0.101 C 
BRANCH  25  26
ATOM     26  C   UNL d   1      60.120  39.067  53.594  0.00  0.00     0.287 C 
ATOM     27  N   UNL d   1      59.781  38.776  54.274  0.00  0.00    -0.186 NA
ATOM     28  O   UNL d   1      59.862  39.785  53.278  0.00  0.00    -0.265 OA
BRANCH  27  29
ATOM     29  C   UNL d   1      59.181  39.193  54.650  0.00  0.00     0.194 A 
ATOM     30  N   UNL d   1      58.538  39.569  54.286  0.00  0.00    -0.107 NA
ATOM     31  O   UNL d   1      58.075  39.918  54.868  0.00  0.00    -0.210 OA
ATOM     32  C   UNL d   1      58.422  39.766  55.602  0.00  0.00     0.128 A 
ATOM     33  C   UNL d   1      59.102  39.319  55.467  0.00  0.00     0.068 A 
ATOM     34  C   UNL d   1      58.137  40.014  56.328  0.00  0.00     0.029 C 
ENDBRANCH  27  29
ENDBRANCH  25  26
ENDBRANCH  24  25
ENDBRANCH   2  24
TORSDOF 9
ENDMDL
MODEL 2
REMARK VINA RESULT:     138.5      5.707      7.970
REMARK  9 active torsions:
REMARK  status: ('A' for Active; 'I' for Inactive)
REMARK    1  A    between atoms: C_10  and  N_1 
REMARK    2  A    between atoms: S_13  and  C_2 
REMARK    3  A    between atoms: C_6  and  N_11 
REMARK    4  A    between atoms: C_24  and  C_10 
REMARK       I    between atoms: N_11  and  C_15 
REMARK    5  A    between atoms: C_21  and  S_13 
REMARK    6  A    between atoms: C_15  and  C_21 
REMARK    7  A    between atoms: O_27  and  C_17 
REMARK    8  A    between atoms: O_28  and  C_18 
REMARK    9  A    between atoms: C_23  and  C_24 
ROOT
ATOM      1  N   UNL d   1      60.530  45.676  50.525  0.00  0.00    -0.253 N 
ATOM      2  C   UNL d   1      59.793  45.361  50.676  0.00  0.00     0.182 A 
ATOM      3  C   UNL d   1      61.219  45.246  50.708  0.00  0.00     0.268 A 
ATOM      4  N   UNL d   1      59.724  44.607  51.014  0.00  0.00    -0.222 NA
ATOM      5  C   UNL d   1      61.143  44.493  51.046  0.00  0.00     0.074 A 
ATOM      6  C   UNL d   1      60.406  44.177  51.197  0.00  0.00     0.088 A 
ATOM      7  O   UNL d   1      61.954  45.561  50.558  0.00  0.00    -0.267 OA
ATOM      8  C   UNL d   1      61.833  44.059  51.231  0.00  0.00     0.006 A 
ATOM      9  C   UNL d   1      60.339  43.420  51.536  0.00  0.00     0.019 A 
ATOM     10  C   UNL d   1      61.755  43.311  51.567  0.00  0.00     0.000 A 
ATOM     11  C   UNL d   1      61.018  42.995  51.717  0.00  0.00     0.002 A 
ENDROOT
BRANCH   1  12
ATOM     12  C   UNL d   1      60.602  46.437  50.184  0.00  0.00     0.085 C 
BRANCH  12  13
ATOM     13  C   UNL d   1      61.252  46.914  50.364  0.00  0.00     0.019 C 
BRANCH  13  14
ATOM     14  C   UNL d   1      61.147  47.611  50.794  0.00  0.00     0.004 A 
ATOM     15  C   UNL d   1      60.959  48.314  50.403  0.00  0.00     0.026 A 
ATOM     16  C   UNL d   1      60.854  49.006  50.825  0.00  0.00     0.116 A 
ATOM     17  C   UNL d   1      60.936  49.003  51.653  0.00  0.00     0.116 A 
ATOM     18  C   UNL d   1      61.124  48.291  52.039  0.00  0.00     0.026 A 
ATOM     19  C   UNL d   1      61.229  47.600  51.607  0.00  0.00     0.002 A 
BRANCH  16  20
ATOM     20  O   UNL d   1      60.668  49.706  50.435  0.00  0.00    -0.326 OA
ATOM     21  C   UNL d   1      60.412  49.688  49.661  0.00  0.00     0.181 C 
ENDBRANCH  16  20
BRANCH  17  22
ATOM     22  O   UNL d   1      60.833  49.687  52.080  0.00  0.00    -0.326 OA
ATOM     23  C   UNL d   1      60.333  49.707  52.737  0.00  0.00     0.181 C 
ENDBRANCH  17  22
ENDBRANCH  13  14
ENDBRANCH  12  13
ENDBRANCH   1  12
BRANCH   2  24
ATOM     24  S   UNL d   1      59.100  45.794  50.491  0.00  0.00    -0.044 SA
BRANCH  24  25
ATOM     25  C   UNL d   1      58.608  46.078  51.095  0.00  0.00     0.101 C 
BRANCH  25  26
ATOM     26  C   UNL d   1      57.969  46.560  50.907  0.00  0.00     0.287 C 
ATOM     27  N   UNL d   1      58.027  47.369  50.984  0.00  0.00    -0.186 NA
ATOM     28  O   UNL d   1      57.265  46.220  50.639  0.00  0.00    -0.265 OA
BRANCH  27  29
ATOM     29  C   UNL d   1      57.388  47.850  50.795  0.00  0.00     0.194 A 
ATOM     30  N   UNL d   1      56.593  47.717  50.992  0.00  0.00    -0.107 NA
ATOM     31  O   UNL d   1      56.143  48.335  50.695  0.00  0.00    -0.210 OA
ATOM     32  C   UNL d   1      56.648  48.863  50.310  0.00  0.00     0.128 A 
ATOM     33  C   UNL d   1      57.413  48.564  50.372  0.00  0.00     0.068 A 
ATOM     34  C   UNL d   1      56.423  49.556  49.936  0.00  0.00     0.029 C 
ENDBRANCH  27  29
ENDBRANCH  25  26
ENDBRANCH  24  25
ENDBRANCH   2  24
TORSDOF 9
ENDMDL
MODEL 3
REMARK VINA RESULT:     140.8      1.281      4.624
REMARK  9 active torsions:
REMARK  status: ('A' for Active; 'I' for Inactive)
REMARK    1  A    between atoms: C_10  and  N_1 
REMARK    2  A    between atoms: S_13  and  C_2 
REMARK    3  A    between atoms: C_6  and  N_11 
REMARK    4  A    between atoms: C_24  and  C_10 
REMARK       I    between atoms: N_11  and  C_15 
REMARK    5  A    between atoms: C_21  and  S_13 
REMARK    6  A    between atoms: C_15  and  C_21 
REMARK    7  A    between atoms: O_27  and  C_17 
REMARK    8  A    between atoms: O_28  and  C_18 
REMARK    9  A    between atoms: C_23  and  C_24 
ROOT
ATOM      1  N   UNL d   1      61.028  38.102  52.429  0.00  0.00    -0.253 N 
ATOM      2  C   UNL d   1      61.513  38.584  51.984  0.00  0.00     0.182 A 
ATOM      3  C   UNL d   1      61.175  37.285  52.478  0.00  0.00     0.268 A 
ATOM      4  N   UNL d   1      62.158  38.261  51.575  0.00  0.00    -0.222 NA
ATOM      5  C   UNL d   1      61.821  36.968  52.066  0.00  0.00     0.074 A 
ATOM      6  C   UNL d   1      62.306  37.450  51.621  0.00  0.00     0.088 A 
ATOM      7  O   UNL d   1      60.691  36.804  52.922  0.00  0.00    -0.267 OA
ATOM      8  C   UNL d   1      61.970  36.147  52.114  0.00  0.00     0.006 A 
ATOM      9  C   UNL d   1      62.953  37.124  51.211  0.00  0.00     0.019 A 
ATOM     10  C   UNL d   1      62.613  35.835  51.704  0.00  0.00     0.000 A 
ATOM     11  C   UNL d   1      63.098  36.317  51.258  0.00  0.00     0.002 A 
ENDROOT
BRANCH   1  12
ATOM     12  C   UNL d   1      60.376  38.426  52.843  0.00  0.00     0.085 C 
BRANCH  12  13
ATOM     13  C   UNL d   1      60.440  38.601  53.648  0.00  0.00     0.019 C 
BRANCH  13  14
ATOM     14  C   UNL d   1      59.769  38.823  54.076  0.00  0.00     0.004 A 
ATOM     15  C   UNL d   1      59.837  39.023  54.874  0.00  0.00     0.026 A 
ATOM     16  C   UNL d   1      59.176  39.243  55.302  0.00  0.00     0.116 A 
ATOM     17  C   UNL d   1      58.431  39.265  54.932  0.00  0.00     0.116 A 
ATOM     18  C   UNL d   1      58.372  39.062  54.128  0.00  0.00     0.026 A 
ATOM     19  C   UNL d   1      59.041  38.842  53.705  0.00  0.00     0.002 A 
BRANCH  16  20
ATOM     20  O   UNL d   1      59.243  39.442  56.097  0.00  0.00    -0.326 OA
ATOM     21  C   UNL d   1      59.737  40.049  56.327  0.00  0.00     0.181 C 
ENDBRANCH  16  20
BRANCH  17  22
ATOM     22  O   UNL d   1      57.769  39.483  55.351  0.00  0.00    -0.326 OA
ATOM     23  C   UNL d   1      57.080  39.723  54.964  0.00  0.00     0.181 C 
ENDBRANCH  17  22
ENDBRANCH  13  14
ENDBRANCH  12  13
ENDBRANCH   1  12
BRANCH   2  24
ATOM     24  S   UNL d   1      61.365  39.408  51.935  0.00  0.00    -0.044 SA
BRANCH  24  25
ATOM     25  C   UNL d   1      61.955  39.926  51.667  0.00  0.00     0.101 C 
BRANCH  25  26
ATOM     26  C   UNL d   1      61.805  40.734  51.640  0.00  0.00     0.287 C 
ATOM     27  N   UNL d   1      62.408  41.260  51.490  0.00  0.00    -0.186 NA
ATOM     28  O   UNL d   1      61.037  41.012  51.766  0.00  0.00    -0.265 OA
BRANCH  27  29
ATOM     29  C   UNL d   1      62.258  42.067  51.464  0.00  0.00     0.194 A 
ATOM     30  N   UNL d   1      62.002  42.544  52.092  0.00  0.00    -0.107 NA
ATOM     31  O   UNL d   1      61.922  43.315  51.821  0.00  0.00    -0.210 OA
ATOM     32  C   UNL d   1      62.127  43.331  51.021  0.00  0.00     0.128 A 
ATOM     33  C   UNL d   1      62.334  42.563  50.802  0.00  0.00     0.068 A 
ATOM     34  C   UNL d   1      62.124  43.992  50.538  0.00  0.00     0.029 C 
ENDBRANCH  27  29
ENDBRANCH  25  26
ENDBRANCH  24  25
ENDBRANCH   2  24
TORSDOF 9
ENDMDL
