MODEL 1
REMARK VINA RESULT:      55.6      0.000      0.000
REMARK  5 active torsions:
REMARK  status: ('A' for Active; 'I' for Inactive)
REMARK    1  A    between atoms: C_2  and  C_1 
REMARK    2  A    between atoms: C_3  and  C_2 
REMARK    3  A    between atoms: C_6  and  C_3 
REMARK    4  A    between atoms: O_15  and  C_12 
REMARK    5  A    between atoms: O_14  and  C_13 
ROOT
ATOM      1  C   UNL d   1      59.458  48.727  50.712  0.00  0.00     0.143 C 
ATOM      2  C   UNL d   1      59.645  47.955  50.983  0.00  0.00     0.107 C 
ATOM      3  N   UNL d   1      59.820  47.186  51.251  0.00  0.00    -0.191 NA
ENDROOT
BRANCH   1   4
ATOM      4  C   UNL d   1      58.666  48.931  50.537  0.00  0.00     0.175 A 
ATOM      5  N   UNL d   1      58.007  48.894  51.017  0.00  0.00    -0.225 NA
ATOM      6  C   UNL d   1      57.375  49.142  50.620  0.00  0.00     0.101 A 
ATOM      7  C   UNL d   1      56.605  49.217  50.821  0.00  0.00     0.021 A 
ATOM      8  C   UNL d   1      57.603  49.354  49.856  0.00  0.00     0.101 A 
ATOM      9  C   UNL d   1      56.035  49.502  50.279  0.00  0.00     0.002 A 
ATOM     10  C   UNL d   1      56.294  49.700  49.539  0.00  0.00     0.002 A 
ATOM     11  C   UNL d   1      57.071  49.622  49.342  0.00  0.00     0.021 A 
ATOM     12  N   UNL d   1      58.426  49.215  49.817  0.00  0.00    -0.225 NA
ENDBRANCH   1   4
BRANCH   1  13
ATOM     13  C   UNL d   1      60.077  49.258  50.630  0.00  0.00     0.212 C 
ATOM     14  O   UNL d   1      60.149  49.693  49.927  0.00  0.00    -0.286 OA
BRANCH  13  15
ATOM     15  C   UNL d   1      60.629  49.371  51.229  0.00  0.00     0.084 A 
ATOM     16  C   UNL d   1      60.367  49.583  51.975  0.00  0.00     0.099 A 
ATOM     17  C   UNL d   1      60.926  49.701  52.596  0.00  0.00     0.024 A 
ATOM     18  C   UNL d   1      61.731  49.597  52.427  0.00  0.00     0.004 A 
ATOM     19  C   UNL d   1      61.988  49.381  51.664  0.00  0.00     0.024 A 
ATOM     20  C   UNL d   1      61.412  49.271  51.067  0.00  0.00     0.099 A 
BRANCH  16  21
ATOM     21  O   UNL d   1      59.569  49.692  52.167  0.00  0.00    -0.328 OA
ATOM     22  C   UNL d   1      59.330  49.683  52.968  0.00  0.00     0.181 C 
ENDBRANCH  16  21
BRANCH  20  23
ATOM     23  O   UNL d   1      61.663  49.056  50.306  0.00  0.00    -0.328 OA
ATOM     24  C   UNL d   1      61.713  49.610  49.700  0.00  0.00     0.181 C 
ENDBRANCH  20  23
ENDBRANCH  13  15
ENDBRANCH   1  13
TORSDOF 5
ENDMDL
