MODEL 1
REMARK VINA RESULT:      -3.2      0.000      0.000
REMARK  0 active torsions:
REMARK  status: ('A' for Active; 'I' for Inactive)
REMARK       I    between atoms: C_3  and  N_1 
REMARK       I    between atoms: N_6  and  C_3 
ROOT
ATOM      1  N   UNL d   1      30.548  16.684 -23.993  0.00  0.00    -0.160 N 
ATOM      2  N   UNL d   1      31.039  16.171 -23.599  0.00  0.00    -0.056 NA
ATOM      3  C   UNL d   1      30.823  17.332 -24.467  0.00  0.00     0.357 C 
ATOM      4  N   UNL d   1      30.563  15.625 -23.206  0.00  0.00    -0.128 NA
ATOM      5  C   UNL d   1      29.775  16.468 -23.853  0.00  0.00     0.108 A 
ATOM      6  N   UNL d   1      31.627  17.478 -24.554  0.00  0.00    -0.252 N 
ATOM      7  C   UNL d   1      29.783  15.810 -23.364  0.00  0.00     0.122 A 
ATOM      8  O   UNL d   1      30.251  17.813 -24.839  0.00  0.00    -0.244 OA
ATOM      9  O   UNL d   1      33.237  17.770 -24.729  0.00  0.00    -0.300 OA
ATOM     10  C   UNL d   1      29.069  16.782 -24.105  0.00  0.00     0.021 A 
ATOM     11  C   UNL d   1      32.182  16.981 -24.170  0.00  0.00     0.111 A 
ATOM     12  C   UNL d   1      31.883  18.099 -25.009  0.00  0.00     0.111 A 
ATOM     13  C   UNL d   1      29.073  15.457 -23.120  0.00  0.00     0.022 A 
ATOM     14  C   UNL d   1      32.993  17.128 -24.258  0.00  0.00     0.142 A 
ATOM     15  C   UNL d   1      32.690  18.246 -25.097  0.00  0.00     0.142 A 
ATOM     16  C   UNL d   1      28.355  16.438 -23.868  0.00  0.00     0.002 A 
ATOM     17  C   UNL d   1      28.350  15.781 -23.380  0.00  0.00     0.002 A 
ENDROOT
TORSDOF 0
ENDMDL
MODEL 2
REMARK VINA RESULT:      -3.1      0.943      3.398
REMARK  0 active torsions:
REMARK  status: ('A' for Active; 'I' for Inactive)
REMARK       I    between atoms: C_3  and  N_1 
REMARK       I    between atoms: N_6  and  C_3 
ROOT
ATOM      1  N   UNL d   1      31.087  16.995 -24.109  0.00  0.00    -0.160 N 
ATOM      2  N   UNL d   1      31.387  16.442 -23.595  0.00  0.00    -0.056 NA
ATOM      3  C   UNL d   1      30.263  17.063 -24.303  0.00  0.00     0.357 C 
ATOM      4  N   UNL d   1      32.202  16.558 -23.556  0.00  0.00    -0.128 NA
ATOM      5  C   UNL d   1      31.699  17.452 -24.391  0.00  0.00     0.108 A 
ATOM      6  N   UNL d   1      29.710  16.556 -23.970  0.00  0.00    -0.252 N 
ATOM      7  C   UNL d   1      32.393  17.181 -24.048  0.00  0.00     0.122 A 
ATOM      8  O   UNL d   1      30.038  17.660 -24.842  0.00  0.00    -0.244 OA
ATOM      9  O   UNL d   1      28.601  15.540 -23.302  0.00  0.00    -0.300 OA
ATOM     10  C   UNL d   1      31.717  18.077 -24.912  0.00  0.00     0.021 A 
ATOM     11  C   UNL d   1      29.962  15.964 -23.432  0.00  0.00     0.111 A 
ATOM     12  C   UNL d   1      28.923  16.626 -24.160  0.00  0.00     0.111 A 
ATOM     13  C   UNL d   1      33.120  17.540 -24.227  0.00  0.00     0.022 A 
ATOM     14  C   UNL d   1      29.403  15.453 -23.095  0.00  0.00     0.142 A 
ATOM     15  C   UNL d   1      28.367  16.116 -23.825  0.00  0.00     0.142 A 
ATOM     16  C   UNL d   1      32.436  18.441 -25.097  0.00  0.00     0.002 A 
ATOM     17  C   UNL d   1      33.135  18.179 -24.761  0.00  0.00     0.002 A 
ENDROOT
TORSDOF 0
ENDMDL
MODEL 3
REMARK VINA RESULT:      -2.8      5.123      6.365
REMARK  0 active torsions:
REMARK  status: ('A' for Active; 'I' for Inactive)
REMARK       I    between atoms: C_3  and  N_1 
REMARK       I    between atoms: N_6  and  C_3 
ROOT
ATOM      1  N   UNL d   1      33.011  21.602 -21.546  0.00  0.00    -0.160 N 
ATOM      2  N   UNL d   1      33.008  21.920 -22.293  0.00  0.00    -0.056 NA
ATOM      3  C   UNL d   1      33.068  20.770 -21.386  0.00  0.00     0.357 C 
ATOM      4  N   UNL d   1      32.945  22.738 -22.213  0.00  0.00    -0.128 NA
ATOM      5  C   UNL d   1      32.951  22.206 -21.002  0.00  0.00     0.108 A 
ATOM      6  N   UNL d   1      33.126  20.228 -22.000  0.00  0.00    -0.252 N 
ATOM      7  C   UNL d   1      32.910  22.913 -21.416  0.00  0.00     0.122 A 
ATOM      8  O   UNL d   1      33.064  20.526 -20.588  0.00  0.00    -0.244 OA
ATOM      9  O   UNL d   1      33.241  19.140 -23.229  0.00  0.00    -0.300 OA
ATOM     10  C   UNL d   1      32.928  22.206 -20.190  0.00  0.00     0.021 A 
ATOM     11  C   UNL d   1      33.128  20.498 -22.793  0.00  0.00     0.111 A 
ATOM     12  C   UNL d   1      33.180  19.433 -21.841  0.00  0.00     0.111 A 
ATOM     13  C   UNL d   1      32.845  23.635 -21.012  0.00  0.00     0.022 A 
ATOM     14  C   UNL d   1      33.186  19.950 -23.413  0.00  0.00     0.142 A 
ATOM     15  C   UNL d   1      33.238  18.888 -22.457  0.00  0.00     0.142 A 
ATOM     16  C   UNL d   1      32.863  22.919 -19.777  0.00  0.00     0.002 A 
ATOM     17  C   UNL d   1      32.822  23.631 -20.179  0.00  0.00     0.002 A 
ENDROOT
TORSDOF 0
ENDMDL
MODEL 4
REMARK VINA RESULT:      -2.8      5.120      6.095
REMARK  0 active torsions:
REMARK  status: ('A' for Active; 'I' for Inactive)
REMARK       I    between atoms: C_3  and  N_1 
REMARK       I    between atoms: N_6  and  C_3 
ROOT
ATOM      1  N   UNL d   1      33.218  20.996 -21.571  0.00  0.00    -0.160 N 
ATOM      2  N   UNL d   1      33.219  20.662 -20.831  0.00  0.00    -0.056 NA
ATOM      3  C   UNL d   1      33.210  21.834 -21.710  0.00  0.00     0.357 C 
ATOM      4  N   UNL d   1      33.227  19.843 -20.930  0.00  0.00    -0.128 NA
ATOM      5  C   UNL d   1      33.225  20.403 -22.128  0.00  0.00     0.108 A 
ATOM      6  N   UNL d   1      33.203  22.365 -21.084  0.00  0.00    -0.252 N 
ATOM      7  C   UNL d   1      33.231  19.686 -21.731  0.00  0.00     0.122 A 
ATOM      8  O   UNL d   1      33.210  22.096 -22.503  0.00  0.00    -0.244 OA
ATOM      9  O   UNL d   1      33.189  23.429 -19.829  0.00  0.00    -0.300 OA
ATOM     10  C   UNL d   1      33.227  20.420 -22.941  0.00  0.00     0.021 A 
ATOM     11  C   UNL d   1      33.204  22.076 -20.297  0.00  0.00     0.111 A 
ATOM     12  C   UNL d   1      33.196  23.164 -21.225  0.00  0.00     0.111 A 
ATOM     13  C   UNL d   1      33.239  18.970 -22.152  0.00  0.00     0.022 A 
ATOM     14  C   UNL d   1      33.197  22.613 -19.665  0.00  0.00     0.142 A 
ATOM     15  C   UNL d   1      33.189  23.698 -20.596  0.00  0.00     0.142 A 
ATOM     16  C   UNL d   1      33.235  19.714 -23.370  0.00  0.00     0.002 A 
ATOM     17  C   UNL d   1      33.241  18.991 -22.986  0.00  0.00     0.002 A 
ENDROOT
TORSDOF 0
ENDMDL
MODEL 5
REMARK VINA RESULT:      -2.7      4.377      5.568
REMARK  0 active torsions:
REMARK  status: ('A' for Active; 'I' for Inactive)
REMARK       I    between atoms: C_3  and  N_1 
REMARK       I    between atoms: N_6  and  C_3 
ROOT
ATOM      1  N   UNL d   1      33.234  20.360 -22.176  0.00  0.00    -0.160 N 
ATOM      2  N   UNL d   1      33.232  20.928 -22.757  0.00  0.00    -0.056 NA
ATOM      3  C   UNL d   1      33.234  20.534 -21.346  0.00  0.00     0.357 C 
ATOM      4  N   UNL d   1      33.232  20.538 -23.484  0.00  0.00    -0.128 NA
ATOM      5  C   UNL d   1      33.235  19.625 -22.526  0.00  0.00     0.108 A 
ATOM      6  N   UNL d   1      33.233  21.311 -21.079  0.00  0.00    -0.252 N 
ATOM      7  C   UNL d   1      33.234  19.734 -23.339  0.00  0.00     0.122 A 
ATOM      8  O   UNL d   1      33.236  19.891 -20.813  0.00  0.00    -0.244 OA
ATOM      9  O   UNL d   1      33.231  22.867 -20.544  0.00  0.00    -0.300 OA
ATOM     10  C   UNL d   1      33.236  18.874 -22.215  0.00  0.00     0.021 A 
ATOM     11  C   UNL d   1      33.231  21.939 -21.633  0.00  0.00     0.111 A 
ATOM     12  C   UNL d   1      33.233  21.471 -20.282  0.00  0.00     0.111 A 
ATOM     13  C   UNL d   1      33.235  19.081 -23.852  0.00  0.00     0.022 A 
ATOM     14  C   UNL d   1      33.230  22.723 -21.364  0.00  0.00     0.142 A 
ATOM     15  C   UNL d   1      33.232  22.251 -20.014  0.00  0.00     0.142 A 
ATOM     16  C   UNL d   1      33.237  18.217 -22.716  0.00  0.00     0.002 A 
ATOM     17  C   UNL d   1      33.236  18.313 -23.529  0.00  0.00     0.002 A 
ENDROOT
TORSDOF 0
ENDMDL
MODEL 6
REMARK VINA RESULT:      -2.7      4.584      5.781
REMARK  0 active torsions:
REMARK  status: ('A' for Active; 'I' for Inactive)
REMARK       I    between atoms: C_3  and  N_1 
REMARK       I    between atoms: N_6  and  C_3 
ROOT
ATOM      1  N   UNL d   1      32.865  21.192 -21.864  0.00  0.00    -0.160 N 
ATOM      2  N   UNL d   1      32.675  20.680 -21.263  0.00  0.00    -0.056 NA
ATOM      3  C   UNL d   1      33.056  20.945 -22.653  0.00  0.00     0.357 C 
ATOM      4  N   UNL d   1      32.528  21.132 -20.590  0.00  0.00    -0.128 NA
ATOM      5  C   UNL d   1      32.840  21.954 -21.578  0.00  0.00     0.108 A 
ATOM      6  N   UNL d   1      33.057  20.149 -22.856  0.00  0.00    -0.252 N 
ATOM      7  C   UNL d   1      32.631  21.918 -20.786  0.00  0.00     0.122 A 
ATOM      8  O   UNL d   1      33.240  21.536 -23.213  0.00  0.00    -0.244 OA
ATOM      9  O   UNL d   1      33.059  18.554 -23.262  0.00  0.00    -0.300 OA
ATOM     10  C   UNL d   1      32.979  22.673 -21.932  0.00  0.00     0.021 A 
ATOM     11  C   UNL d   1      32.868  19.574 -22.276  0.00  0.00     0.111 A 
ATOM     12  C   UNL d   1      33.240  19.919 -23.613  0.00  0.00     0.111 A 
ATOM     13  C   UNL d   1      32.558  22.613 -20.337  0.00  0.00     0.022 A 
ATOM     14  C   UNL d   1      32.869  18.770 -22.481  0.00  0.00     0.142 A 
ATOM     15  C   UNL d   1      33.241  19.120 -23.816  0.00  0.00     0.142 A 
ATOM     16  C   UNL d   1      32.910  23.370 -21.494  0.00  0.00     0.002 A 
ATOM     17  C   UNL d   1      32.702  23.348 -20.703  0.00  0.00     0.002 A 
ENDROOT
TORSDOF 0
ENDMDL
MODEL 7
REMARK VINA RESULT:      -2.6      3.512      4.738
REMARK  0 active torsions:
REMARK  status: ('A' for Active; 'I' for Inactive)
REMARK       I    between atoms: C_3  and  N_1 
REMARK       I    between atoms: N_6  and  C_3 
ROOT
ATOM      1  N   UNL d   1      33.172  19.646 -22.827  0.00  0.00    -0.160 N 
ATOM      2  N   UNL d   1      33.134  19.164 -22.175  0.00  0.00    -0.056 NA
ATOM      3  C   UNL d   1      33.204  20.494 -22.787  0.00  0.00     0.357 C 
ATOM      4  N   UNL d   1      33.112  18.385 -22.445  0.00  0.00    -0.128 NA
ATOM      5  C   UNL d   1      33.173  19.184 -23.497  0.00  0.00     0.108 A 
ATOM      6  N   UNL d   1      33.198  20.881 -22.063  0.00  0.00    -0.252 N 
ATOM      7  C   UNL d   1      33.136  18.400 -23.261  0.00  0.00     0.122 A 
ATOM      8  O   UNL d   1      33.241  20.917 -23.506  0.00  0.00    -0.244 OA
ATOM      9  O   UNL d   1      33.185  21.656 -20.611  0.00  0.00    -0.300 OA
ATOM     10  C   UNL d   1      33.204  19.372 -24.288  0.00  0.00     0.021 A 
ATOM     11  C   UNL d   1      33.160  20.433 -21.355  0.00  0.00     0.111 A 
ATOM     12  C   UNL d   1      33.228  21.692 -22.031  0.00  0.00     0.111 A 
ATOM     13  C   UNL d   1      33.129  17.790 -23.824  0.00  0.00     0.022 A 
ATOM     14  C   UNL d   1      33.153  20.824 -20.623  0.00  0.00     0.142 A 
ATOM     15  C   UNL d   1      33.222  22.080 -21.303  0.00  0.00     0.142 A 
ATOM     16  C   UNL d   1      33.197  18.772 -24.857  0.00  0.00     0.002 A 
ATOM     17  C   UNL d   1      33.160  17.985 -24.634  0.00  0.00     0.002 A 
ENDROOT
TORSDOF 0
ENDMDL
MODEL 8
REMARK VINA RESULT:      -2.3      3.201      4.741
REMARK  0 active torsions:
REMARK  status: ('A' for Active; 'I' for Inactive)
REMARK       I    between atoms: C_3  and  N_1 
REMARK       I    between atoms: N_6  and  C_3 
ROOT
ATOM      1  N   UNL d   1      33.234  19.583 -22.736  0.00  0.00    -0.160 N 
ATOM      2  N   UNL d   1      33.236  20.074 -23.382  0.00  0.00    -0.056 NA
ATOM      3  C   UNL d   1      33.230  18.736 -22.786  0.00  0.00     0.357 C 
ATOM      4  N   UNL d   1      33.239  20.850 -23.103  0.00  0.00    -0.128 NA
ATOM      5  C   UNL d   1      33.236  20.037 -22.060  0.00  0.00     0.108 A 
ATOM      6  N   UNL d   1      33.229  18.358 -23.515  0.00  0.00    -0.252 N 
ATOM      7  C   UNL d   1      33.239  20.825 -22.287  0.00  0.00     0.122 A 
ATOM      8  O   UNL d   1      33.229  18.303 -22.072  0.00  0.00    -0.244 OA
ATOM      9  O   UNL d   1      33.226  17.600 -24.977  0.00  0.00    -0.300 OA
ATOM     10  C   UNL d   1      33.235  19.839 -21.271  0.00  0.00     0.021 A 
ATOM     11  C   UNL d   1      33.231  18.814 -24.218  0.00  0.00     0.111 A 
ATOM     12  C   UNL d   1      33.226  17.547 -23.557  0.00  0.00     0.111 A 
ATOM     13  C   UNL d   1      33.241  21.428 -21.716  0.00  0.00     0.022 A 
ATOM     14  C   UNL d   1      33.230  18.433 -24.954  0.00  0.00     0.142 A 
ATOM     15  C   UNL d   1      33.224  17.167 -24.289  0.00  0.00     0.142 A 
ATOM     16  C   UNL d   1      33.237  20.431 -20.695  0.00  0.00     0.002 A 
ATOM     17  C   UNL d   1      33.240  21.221 -20.909  0.00  0.00     0.002 A 
ENDROOT
TORSDOF 0
ENDMDL
MODEL 9
REMARK VINA RESULT:      -2.2      5.909      6.889
REMARK  0 active torsions:
REMARK  status: ('A' for Active; 'I' for Inactive)
REMARK       I    between atoms: C_3  and  N_1 
REMARK       I    between atoms: N_6  and  C_3 
ROOT
ATOM      1  N   UNL d   1      33.134  21.546 -20.981  0.00  0.00    -0.160 N 
ATOM      2  N   UNL d   1      33.083  22.217 -21.436  0.00  0.00    -0.056 NA
ATOM      3  C   UNL d   1      33.186  21.553 -20.134  0.00  0.00     0.357 C 
ATOM      4  N   UNL d   1      33.043  21.979 -22.224  0.00  0.00    -0.128 NA
ATOM      5  C   UNL d   1      33.127  20.895 -21.471  0.00  0.00     0.108 A 
ATOM      6  N   UNL d   1      33.187  22.260 -19.718  0.00  0.00    -0.252 N 
ATOM      7  C   UNL d   1      33.070  21.163 -22.244  0.00  0.00     0.122 A 
ATOM      8  O   UNL d   1      33.236  20.817 -19.742  0.00  0.00    -0.244 OA
ATOM      9  O   UNL d   1      33.188  23.679 -18.884  0.00  0.00    -0.300 OA
ATOM     10  C   UNL d   1      33.164  20.098 -21.316  0.00  0.00     0.021 A 
ATOM     11  C   UNL d   1      33.136  22.986 -20.135  0.00  0.00     0.111 A 
ATOM     12  C   UNL d   1      33.237  22.259 -18.907  0.00  0.00     0.111 A 
ATOM     13  C   UNL d   1      33.050  20.626 -22.876  0.00  0.00     0.022 A 
ATOM     14  C   UNL d   1      33.137  23.700 -19.715  0.00  0.00     0.142 A 
ATOM     15  C   UNL d   1      33.238  22.970 -18.489  0.00  0.00     0.142 A 
ATOM     16  C   UNL d   1      33.145  19.554 -21.938  0.00  0.00     0.002 A 
ATOM     17  C   UNL d   1      33.088  19.809 -22.714  0.00  0.00     0.002 A 
ENDROOT
TORSDOF 0
ENDMDL
