MODEL 1
REMARK VINA RESULT:      54.8      0.000      0.000
REMARK  4 active torsions:
REMARK  status: ('A' for Active; 'I' for Inactive)
REMARK    1  A    between atoms: N_4  and  S_1 
REMARK    2  A    between atoms: C_6  and  S_1 
REMARK    3  A    between atoms: N_3  and  C_2 
REMARK    4  A    between atoms: C_7  and  N_4 
ROOT
ATOM      1  S   UNL d   1     -50.797  26.424  34.089  0.00  0.00     0.285 S 
ATOM      2  O   UNL d   1     -50.529  26.624  33.306  0.00  0.00    -0.198 OA
ATOM      3  O   UNL d   1     -51.059  26.267  34.867  0.00  0.00    -0.198 OA
ENDROOT
BRANCH   1   4
ATOM      4  N   UNL d   1     -50.766  27.250  34.296  0.00  0.00    -0.158 NA
BRANCH   4   5
ATOM      5  C   UNL d   1     -50.055  27.585  34.592  0.00  0.00     0.094 A 
ATOM      6  C   UNL d   1     -49.759  27.303  35.320  0.00  0.00     0.023 A 
ATOM      7  C   UNL d   1     -49.047  27.639  35.617  0.00  0.00     0.044 A 
ATOM      8  C   UNL d   1     -48.675  28.237  35.167  0.00  0.00     0.196 A 
ATOM      9  C   UNL d   1     -48.973  28.506  34.457  0.00  0.00     0.044 A 
ATOM     10  O   UNL d   1     -47.959  28.575  35.466  0.00  0.00    -0.287 OA
ATOM     11  C   UNL d   1     -49.685  28.170  34.160  0.00  0.00     0.023 A 
ENDBRANCH   4   5
ENDBRANCH   1   4
BRANCH   1  12
ATOM     12  C   UNL d   1     -50.829  25.619  33.892  0.00  0.00     0.107 A 
ATOM     13  C   UNL d   1     -51.566  25.267  33.784  0.00  0.00     0.037 A 
ATOM     14  C   UNL d   1     -51.595  24.467  33.589  0.00  0.00     0.138 A 
ATOM     15  C   UNL d   1     -50.911  24.035  33.504  0.00  0.00     0.080 A 
ATOM     16  C   UNL d   1     -50.173  24.386  33.612  0.00  0.00     0.014 A 
ATOM     17 CL   UNL d   1     -50.945  23.225  33.306  0.00  0.00    -0.081 Cl
ATOM     18  C   UNL d   1     -50.145  25.187  33.807  0.00  0.00     0.014 A 
BRANCH  14  19
ATOM     19  N   UNL d   1     -52.339  24.106  33.479  0.00  0.00    -0.113 N 
ATOM     20  O   UNL d   1     -52.417  23.288  33.533  0.00  0.00    -0.532 OA
ATOM     21  O   UNL d   1     -52.994  24.555  33.318  0.00  0.00    -0.532 OA
ENDBRANCH  14  19
ENDBRANCH   1  12
TORSDOF 4
ENDMDL
MODEL 2
REMARK VINA RESULT:      57.0      2.244      4.806
REMARK  4 active torsions:
REMARK  status: ('A' for Active; 'I' for Inactive)
REMARK    1  A    between atoms: N_4  and  S_1 
REMARK    2  A    between atoms: C_6  and  S_1 
REMARK    3  A    between atoms: N_3  and  C_2 
REMARK    4  A    between atoms: C_7  and  N_4 
ROOT
ATOM      1  S   UNL d   1     -49.231  27.528  34.002  0.00  0.00     0.285 S 
ATOM      2  O   UNL d   1     -48.913  26.797  34.299  0.00  0.00    -0.198 OA
ATOM      3  O   UNL d   1     -49.557  28.227  33.677  0.00  0.00    -0.198 OA
ENDROOT
BRANCH   1   4
ATOM      4  N   UNL d   1     -49.499  27.114  33.307  0.00  0.00    -0.158 NA
BRANCH   4   5
ATOM      5  C   UNL d   1     -50.243  26.724  33.308  0.00  0.00     0.094 A 
ATOM      6  C   UNL d   1     -50.934  27.193  33.308  0.00  0.00     0.023 A 
ATOM      7  C   UNL d   1     -51.679  26.802  33.308  0.00  0.00     0.044 A 
ATOM      8  C   UNL d   1     -51.687  25.967  33.308  0.00  0.00     0.196 A 
ATOM      9  C   UNL d   1     -51.006  25.518  33.308  0.00  0.00     0.044 A 
ATOM     10  O   UNL d   1     -52.436  25.574  33.308  0.00  0.00    -0.287 OA
ATOM     11  C   UNL d   1     -50.261  25.908  33.307  0.00  0.00     0.023 A 
ENDBRANCH   4   5
ENDBRANCH   1   4
BRANCH   1  12
ATOM     12  C   UNL d   1     -48.973  27.936  34.677  0.00  0.00     0.107 A 
ATOM     13  C   UNL d   1     -48.451  28.566  34.581  0.00  0.00     0.037 A 
ATOM     14  C   UNL d   1     -48.195  28.969  35.253  0.00  0.00     0.138 A 
ATOM     15  C   UNL d   1     -48.453  28.750  35.993  0.00  0.00     0.080 A 
ATOM     16  C   UNL d   1     -48.975  28.119  36.089  0.00  0.00     0.014 A 
ATOM     17 CL   UNL d   1     -48.191  29.162  36.671  0.00  0.00    -0.081 Cl
ATOM     18  C   UNL d   1     -49.230  27.717  35.416  0.00  0.00     0.014 A 
BRANCH  14  19
ATOM     19  N   UNL d   1     -47.667  29.609  35.163  0.00  0.00    -0.113 N 
ATOM     20  O   UNL d   1     -46.999  29.668  35.641  0.00  0.00    -0.532 OA
ATOM     21  O   UNL d   1     -47.804  30.179  34.603  0.00  0.00    -0.532 OA
ENDBRANCH  14  19
ENDBRANCH   1  12
TORSDOF 4
ENDMDL
