MODEL 1
REMARK VINA RESULT:      50.8      0.000      0.000
REMARK  7 active torsions:
REMARK  status: ('A' for Active; 'I' for Inactive)
REMARK    1  A    between atoms: S_2  and  C_1 
REMARK    2  A    between atoms: N_14  and  S_2 
REMARK    3  A    between atoms: C_9  and  C_18 
REMARK       I    between atoms: N_17  and  C_9 
REMARK    4  A    between atoms: C_13  and  C_23 
REMARK    5  A    between atoms: C_24  and  N_14 
REMARK    6  A    between atoms: C_23  and  N_17 
REMARK    7  A    between atoms: C_18  and  C_24 
ROOT
ATOM      1  S   UNL d   1     -48.278  29.130  35.048  0.00  0.00     0.287 S 
ATOM      2  O   UNL d   1     -48.987  29.302  34.663  0.00  0.00    -0.198 OA
ATOM      3  O   UNL d   1     -47.570  28.959  35.434  0.00  0.00    -0.198 OA
ENDROOT
BRANCH   1   4
ATOM      4  C   UNL d   1     -48.070  29.925  35.019  0.00  0.00     0.127 A 
ATOM      5  C   UNL d   1     -47.583  30.247  35.600  0.00  0.00     0.142 A 
ATOM      6  C   UNL d   1     -47.373  31.045  35.570  0.00  0.00     0.131 A 
ATOM      7  N   UNL d   1     -47.227  29.919  36.263  0.00  0.00    -0.101 NA
ATOM      8  N   UNL d   1     -46.889  31.206  36.215  0.00  0.00    -0.102 NA
ATOM      9  C   UNL d   1     -47.650  31.521  34.959  0.00  0.00     0.023 A 
ATOM     10  O   UNL d   1     -46.797  30.508  36.646  0.00  0.00    -0.106 OA
ATOM     11  C   UNL d   1     -48.142  31.202  34.370  0.00  0.00     0.002 A 
ATOM     12  C   UNL d   1     -48.352  30.404  34.399  0.00  0.00     0.015 A 
ENDBRANCH   1   4
BRANCH   1  13
ATOM     13  N   UNL d   1     -48.489  28.329  35.079  0.00  0.00    -0.157 NA
BRANCH  13  14
ATOM     14  C   UNL d   1     -48.916  27.990  34.461  0.00  0.00     0.117 C 
BRANCH  14  15
ATOM     15  C   UNL d   1     -49.489  27.417  34.618  0.00  0.00     0.084 C 
BRANCH  15  16
ATOM     16  C   UNL d   1     -49.997  27.162  34.017  0.00  0.00     0.281 C 
ATOM     17  N   UNL d   1     -50.289  26.384  34.023  0.00  0.00    -0.206 NA
ATOM     18  O   UNL d   1     -50.217  27.685  33.406  0.00  0.00    -0.265 OA
BRANCH  17  19
ATOM     19  C   UNL d   1     -50.803  26.132  33.412  0.00  0.00     0.109 C 
BRANCH  19  20
ATOM     20  C   UNL d   1     -51.105  25.361  33.407  0.00  0.00     0.049 A 
ATOM     21  S   UNL d   1     -51.894  25.133  33.316  0.00  0.00    -0.085 SA
ATOM     22  C   UNL d   1     -51.947  24.319  33.345  0.00  0.00     0.035 A 
ATOM     23  C   UNL d   1     -51.182  24.023  33.455  0.00  0.00     0.007 A 
ATOM     24  C   UNL d   1     -50.660  24.659  33.494  0.00  0.00     0.009 A 
ENDBRANCH  19  20
ENDBRANCH  17  19
ENDBRANCH  15  16
ENDBRANCH  14  15
ENDBRANCH  13  14
ENDBRANCH   1  13
TORSDOF 7
ENDMDL
