MODEL 1
REMARK VINA RESULT:      -5.1      0.000      0.000
REMARK  4 active torsions:
REMARK  status: ('A' for Active; 'I' for Inactive)
REMARK    1  A    between atoms: N_4  and  C_1 
REMARK    2  A    between atoms: C_11  and  C_3 
REMARK       I    between atoms: C_6  and  N_4 
REMARK    3  A    between atoms: C_8  and  C_6 
REMARK    4  A    between atoms: C_9  and  C_8 
ROOT
ATOM      1  C   UNL d   1      57.790   0.064  30.368  0.00  0.00     0.197 A 
ATOM      2  N   UNL d   1      57.211  -0.343  30.781  0.00  0.00    -0.221 NA
ATOM      3  C   UNL d   1      57.116   0.023  31.517  0.00  0.00     0.092 A 
ATOM      4  S   UNL d   1      58.059   0.682  30.839  0.00  0.00    -0.046 SA
ATOM      5  C   UNL d   1      57.646   0.663  31.551  0.00  0.00     0.058 A 
ENDROOT
BRANCH   1   6
ATOM      6  N   UNL d   1      58.065  -0.111  29.606  0.00  0.00    -0.183 NA
ATOM      7  C   UNL d   1      58.799  -0.478  29.513  0.00  0.00     0.281 C 
ATOM      8  O   UNL d   1      59.248  -0.665  30.175  0.00  0.00    -0.265 OA
BRANCH   7   9
ATOM      9  C   UNL d   1      59.080  -0.655  28.759  0.00  0.00     0.069 C 
BRANCH   9  10
ATOM     10  C   UNL d   1      59.418  -1.396  28.652  0.00  0.00     0.034 A 
ATOM     11  S   UNL d   1      60.223  -1.569  28.639  0.00  0.00    -0.086 SA
ATOM     12  C   UNL d   1      60.313  -2.382  28.518  0.00  0.00     0.035 A 
ATOM     13  C   UNL d   1      59.555  -2.711  28.456  0.00  0.00     0.007 A 
ATOM     14  C   UNL d   1      59.003  -2.102  28.539  0.00  0.00     0.007 A 
ENDBRANCH   9  10
ENDBRANCH   7   9
ENDBRANCH   1   6
BRANCH   3  15
ATOM     15  C   UNL d   1      56.595  -0.198  32.112  0.00  0.00     0.037 A 
ATOM     16  C   UNL d   1      56.179   0.388  32.513  0.00  0.00     0.100 A 
ATOM     17  N   UNL d   1      55.656   0.174  33.109  0.00  0.00    -0.242 NA
ATOM     18  C   UNL d   1      55.548  -0.622  33.305  0.00  0.00     0.099 A 
ATOM     19  C   UNL d   1      55.967  -1.194  32.899  0.00  0.00     0.021 A 
ATOM     20  C   UNL d   1      56.497  -0.988  32.296  0.00  0.00     0.005 A 
ENDBRANCH   3  15
TORSDOF 4
ENDMDL
MODEL 2
REMARK VINA RESULT:      -4.5      1.217      4.533
REMARK  4 active torsions:
REMARK  status: ('A' for Active; 'I' for Inactive)
REMARK    1  A    between atoms: N_4  and  C_1 
REMARK    2  A    between atoms: C_11  and  C_3 
REMARK       I    between atoms: C_6  and  N_4 
REMARK    3  A    between atoms: C_8  and  C_6 
REMARK    4  A    between atoms: C_9  and  C_8 
ROOT
ATOM      1  C   UNL d   1      57.985  -0.036  30.017  0.00  0.00     0.197 A 
ATOM      2  N   UNL d   1      58.118  -0.825  29.838  0.00  0.00    -0.221 NA
ATOM      3  C   UNL d   1      58.832  -0.876  29.423  0.00  0.00     0.092 A 
ATOM      4  S   UNL d   1      58.611   0.406  29.718  0.00  0.00    -0.046 SA
ATOM      5  C   UNL d   1      59.138  -0.107  29.349  0.00  0.00     0.058 A 
ENDROOT
BRANCH   1   6
ATOM      6  N   UNL d   1      57.336   0.272  30.428  0.00  0.00    -0.183 NA
ATOM      7  C   UNL d   1      57.386   0.376  31.247  0.00  0.00     0.281 C 
ATOM      8  O   UNL d   1      58.076   0.174  31.643  0.00  0.00    -0.265 OA
BRANCH   7   9
ATOM      9  C   UNL d   1      56.744   0.681  31.664  0.00  0.00     0.069 C 
BRANCH   9  10
ATOM     10  C   UNL d   1      56.517   0.280  32.344  0.00  0.00     0.034 A 
ATOM     11  S   UNL d   1      56.619   0.536  33.120  0.00  0.00    -0.086 SA
ATOM     12  C   UNL d   1      56.310  -0.039  33.627  0.00  0.00     0.035 A 
ATOM     13  C   UNL d   1      56.016  -0.655  33.158  0.00  0.00     0.007 A 
ATOM     14  C   UNL d   1      56.144  -0.458  32.366  0.00  0.00     0.007 A 
ENDBRANCH   9  10
ENDBRANCH   7   9
ENDBRANCH   1   6
BRANCH   3  15
ATOM     15  C   UNL d   1      59.183  -1.561  29.133  0.00  0.00     0.037 A 
ATOM     16  C   UNL d   1      59.909  -1.502  28.751  0.00  0.00     0.100 A 
ATOM     17  N   UNL d   1      60.266  -2.182  28.458  0.00  0.00    -0.242 NA
ATOM     18  C   UNL d   1      59.900  -2.917  28.547  0.00  0.00     0.099 A 
ATOM     19  C   UNL d   1      59.179  -2.962  28.929  0.00  0.00     0.021 A 
ATOM     20  C   UNL d   1      58.811  -2.282  29.227  0.00  0.00     0.005 A 
ENDBRANCH   3  15
TORSDOF 4
ENDMDL
MODEL 3
REMARK VINA RESULT:      -4.3      1.551      2.091
REMARK  4 active torsions:
REMARK  status: ('A' for Active; 'I' for Inactive)
REMARK    1  A    between atoms: N_4  and  C_1 
REMARK    2  A    between atoms: C_11  and  C_3 
REMARK       I    between atoms: C_6  and  N_4 
REMARK    3  A    between atoms: C_8  and  C_6 
REMARK    4  A    between atoms: C_9  and  C_8 
ROOT
ATOM      1  C   UNL d   1      56.995  -0.188  31.443  0.00  0.00     0.197 A 
ATOM      2  N   UNL d   1      56.652   0.317  31.990  0.00  0.00    -0.221 NA
ATOM      3  C   UNL d   1      56.361  -0.142  32.614  0.00  0.00     0.092 A 
ATOM      4  S   UNL d   1      56.922  -0.959  31.720  0.00  0.00    -0.046 SA
ATOM      5  C   UNL d   1      56.530  -0.938  32.444  0.00  0.00     0.058 A 
ENDROOT
BRANCH   1   6
ATOM      6  N   UNL d   1      57.357   0.031  30.731  0.00  0.00    -0.183 NA
ATOM      7  C   UNL d   1      58.064   0.460  30.750  0.00  0.00     0.281 C 
ATOM      8  O   UNL d   1      58.399   0.663  31.471  0.00  0.00    -0.265 OA
BRANCH   7   9
ATOM      9  C   UNL d   1      58.430   0.682  30.046  0.00  0.00     0.069 C 
BRANCH   9  10
ATOM     10  C   UNL d   1      59.216   0.459  29.949  0.00  0.00     0.034 A 
ATOM     11  S   UNL d   1      59.523   0.007  29.333  0.00  0.00    -0.086 SA
ATOM     12  C   UNL d   1      60.335  -0.083  29.456  0.00  0.00     0.035 A 
ATOM     13  C   UNL d   1      60.529   0.318  30.154  0.00  0.00     0.007 A 
ATOM     14  C   UNL d   1      59.837   0.653  30.459  0.00  0.00     0.007 A 
ENDBRANCH   9  10
ENDBRANCH   7   9
ENDBRANCH   1   6
BRANCH   3  15
ATOM     15  C   UNL d   1      55.973   0.132  33.285  0.00  0.00     0.037 A 
ATOM     16  C   UNL d   1      56.420   0.341  33.943  0.00  0.00     0.100 A 
ATOM     17  N   UNL d   1      56.040   0.616  34.618  0.00  0.00    -0.242 NA
ATOM     18  C   UNL d   1      55.216   0.681  34.635  0.00  0.00     0.099 A 
ATOM     19  C   UNL d   1      54.784   0.470  33.975  0.00  0.00     0.021 A 
ATOM     20  C   UNL d   1      55.158   0.192  33.290  0.00  0.00     0.005 A 
ENDBRANCH   3  15
TORSDOF 4
ENDMDL
