MODEL 1
REMARK VINA RESULT:      -7.9      0.000      0.000
REMARK  6 active torsions:
REMARK  status: ('A' for Active; 'I' for Inactive)
REMARK    1  A    between atoms: C_7  and  C_1 
REMARK    2  A    between atoms: C_10  and  C_2 
REMARK    3  A    between atoms: C_8  and  C_7 
REMARK    4  A    between atoms: C_9  and  C_8 
REMARK    5  A    between atoms: C_13  and  C_9 
REMARK    6  A    between atoms: O_20  and  C_16 
ROOT
ATOM      1  C   UNL d   1     -47.280  13.682  22.921  0.00  0.00     0.097 A 
ATOM      2  C   UNL d   1     -48.064  13.516  22.727  0.00  0.00     0.009 A 
ATOM      3  C   UNL d   1     -47.023  14.459  22.974  0.00  0.00     0.282 A 
ATOM      4  C   UNL d   1     -48.588  14.138  22.587  0.00  0.00     0.019 A 
ATOM      5  N   UNL d   1     -47.547  15.077  22.833  0.00  0.00    -0.208 NA
ATOM      6  C   UNL d   1     -48.331  14.915  22.639  0.00  0.00     0.085 A 
ATOM      7  C   UNL d   1     -49.372  13.971  22.393  0.00  0.00     0.013 A 
ATOM      8  O   UNL d   1     -46.215  14.594  23.174  0.00  0.00    -0.265 OA
ATOM      9  C   UNL d   1     -48.856  15.532  22.498  0.00  0.00     0.020 A 
ATOM     10  C   UNL d   1     -49.896  14.593  22.252  0.00  0.00     0.058 A 
ATOM     11  C   UNL d   1     -49.639  15.370  22.304  0.00  0.00     0.013 A 
ATOM     12 CL   UNL d   1     -50.697  14.448  22.054  0.00  0.00    -0.082 Cl
ENDROOT
BRANCH   1  13
ATOM     13  C   UNL d   1     -46.720  13.064  23.071  0.00  0.00     0.200 C 
ATOM     14  O   UNL d   1     -46.841  12.554  23.698  0.00  0.00    -0.286 OA
BRANCH  13  15
ATOM     15  C   UNL d   1     -46.061  12.986  22.580  0.00  0.00     0.042 C 
BRANCH  15  16
ATOM     16  C   UNL d   1     -45.495  12.418  22.740  0.00  0.00     0.005 C 
BRANCH  16  17
ATOM     17  C   UNL d   1     -44.784  12.430  22.332  0.00  0.00     0.022 A 
ATOM     18  C   UNL d   1     -44.184  11.895  22.534  0.00  0.00     0.094 A 
ATOM     19  C   UNL d   1     -43.460  11.902  22.123  0.00  0.00     0.024 A 
ATOM     20  C   UNL d   1     -43.354  12.444  21.522  0.00  0.00     0.002 A 
ATOM     21  C   UNL d   1     -43.956  12.997  21.303  0.00  0.00     0.000 A 
ATOM     22  C   UNL d   1     -44.660  12.979  21.713  0.00  0.00     0.002 A 
BRANCH  18  23
ATOM     23  O   UNL d   1     -44.294  11.341  23.150  0.00  0.00    -0.328 OA
ATOM     24  C   UNL d   1     -43.759  10.745  23.265  0.00  0.00     0.181 C 
ENDBRANCH  18  23
ENDBRANCH  16  17
ENDBRANCH  15  16
ENDBRANCH  13  15
ENDBRANCH   1  13
BRANCH   2  25
ATOM     25  C   UNL d   1     -48.324  12.728  22.674  0.00  0.00     0.000 A 
ATOM     26  C   UNL d   1     -48.579  12.344  23.349  0.00  0.00     0.000 A 
ATOM     27  C   UNL d   1     -48.844  11.541  23.294  0.00  0.00     0.000 A 
ATOM     28  C   UNL d   1     -48.840  11.167  22.569  0.00  0.00     0.000 A 
ATOM     29  C   UNL d   1     -48.590  11.547  21.912  0.00  0.00     0.000 A 
ATOM     30  C   UNL d   1     -48.325  12.339  21.946  0.00  0.00     0.000 A 
ENDBRANCH   2  25
TORSDOF 6
ENDMDL
MODEL 2
REMARK VINA RESULT:      -7.1      1.119      2.149
REMARK  6 active torsions:
REMARK  status: ('A' for Active; 'I' for Inactive)
REMARK    1  A    between atoms: C_7  and  C_1 
REMARK    2  A    between atoms: C_10  and  C_2 
REMARK    3  A    between atoms: C_8  and  C_7 
REMARK    4  A    between atoms: C_9  and  C_8 
REMARK    5  A    between atoms: C_13  and  C_9 
REMARK    6  A    between atoms: O_20  and  C_16 
ROOT
ATOM      1  C   UNL d   1     -47.900  12.550  22.779  0.00  0.00     0.097 A 
ATOM      2  C   UNL d   1     -48.444  13.093  22.481  0.00  0.00     0.009 A 
ATOM      3  C   UNL d   1     -48.105  11.760  22.858  0.00  0.00     0.282 A 
ATOM      4  C   UNL d   1     -49.197  12.835  22.263  0.00  0.00     0.019 A 
ATOM      5  N   UNL d   1     -48.856  11.505  22.640  0.00  0.00    -0.208 NA
ATOM      6  C   UNL d   1     -49.402  12.045  22.342  0.00  0.00     0.085 A 
ATOM      7  C   UNL d   1     -49.742  13.378  21.965  0.00  0.00     0.013 A 
ATOM      8  O   UNL d   1     -47.524  11.233  23.166  0.00  0.00    -0.265 OA
ATOM      9  C   UNL d   1     -50.153  11.790  22.124  0.00  0.00     0.020 A 
ATOM     10  C   UNL d   1     -50.495  13.119  21.747  0.00  0.00     0.058 A 
ATOM     11  C   UNL d   1     -50.700  12.329  21.826  0.00  0.00     0.013 A 
ATOM     12 CL   UNL d   1     -51.064  13.652  21.442  0.00  0.00    -0.082 Cl
ENDROOT
BRANCH   1  13
ATOM     13  C   UNL d   1     -47.121  12.788  23.010  0.00  0.00     0.200 C 
ATOM     14  O   UNL d   1     -47.017  13.218  23.698  0.00  0.00    -0.286 OA
BRANCH  13  15
ATOM     15  C   UNL d   1     -46.476  12.581  22.538  0.00  0.00     0.042 C 
BRANCH  15  16
ATOM     16  C   UNL d   1     -45.772  12.348  22.881  0.00  0.00     0.005 C 
BRANCH  16  17
ATOM     17  C   UNL d   1     -45.072  12.427  22.463  0.00  0.00     0.022 A 
ATOM     18  C   UNL d   1     -44.437  11.918  22.622  0.00  0.00     0.094 A 
ATOM     19  C   UNL d   1     -43.724  11.993  22.200  0.00  0.00     0.024 A 
ATOM     20  C   UNL d   1     -43.662  12.575  21.630  0.00  0.00     0.002 A 
ATOM     21  C   UNL d   1     -44.301  13.103  21.456  0.00  0.00     0.000 A 
ATOM     22  C   UNL d   1     -44.994  13.018  21.876  0.00  0.00     0.002 A 
BRANCH  18  23
ATOM     23  O   UNL d   1     -44.501  11.323  23.205  0.00  0.00    -0.328 OA
ATOM     24  C   UNL d   1     -43.898  10.795  23.320  0.00  0.00     0.181 C 
ENDBRANCH  18  23
ENDBRANCH  16  17
ENDBRANCH  15  16
ENDBRANCH  13  15
ENDBRANCH   1  13
BRANCH   2  25
ATOM     25  C   UNL d   1     -48.237  13.894  22.401  0.00  0.00     0.000 A 
ATOM     26  C   UNL d   1     -48.335  14.399  23.035  0.00  0.00     0.000 A 
ATOM     27  C   UNL d   1     -48.124  15.215  22.954  0.00  0.00     0.000 A 
ATOM     28  C   UNL d   1     -47.826  15.482  22.241  0.00  0.00     0.000 A 
ATOM     29  C   UNL d   1     -47.732  14.983  21.623  0.00  0.00     0.000 A 
ATOM     30  C   UNL d   1     -47.935  14.176  21.686  0.00  0.00     0.000 A 
ENDBRANCH   2  25
TORSDOF 6
ENDMDL
MODEL 3
REMARK VINA RESULT:      -6.3      2.280      5.018
REMARK  6 active torsions:
REMARK  status: ('A' for Active; 'I' for Inactive)
REMARK    1  A    between atoms: C_7  and  C_1 
REMARK    2  A    between atoms: C_10  and  C_2 
REMARK    3  A    between atoms: C_8  and  C_7 
REMARK    4  A    between atoms: C_9  and  C_8 
REMARK    5  A    between atoms: C_13  and  C_9 
REMARK    6  A    between atoms: O_20  and  C_16 
ROOT
ATOM      1  C   UNL d   1     -47.556  12.023  23.363  0.00  0.00     0.097 A 
ATOM      2  C   UNL d   1     -46.748  12.135  23.245  0.00  0.00     0.009 A 
ATOM      3  C   UNL d   1     -47.843  11.288  23.586  0.00  0.00     0.282 A 
ATOM      4  C   UNL d   1     -46.230  11.501  23.354  0.00  0.00     0.019 A 
ATOM      5  N   UNL d   1     -47.325  10.658  23.694  0.00  0.00    -0.208 NA
ATOM      6  C   UNL d   1     -46.517  10.767  23.577  0.00  0.00     0.085 A 
ATOM      7  C   UNL d   1     -45.421  11.614  23.236  0.00  0.00     0.013 A 
ATOM      8  O   UNL d   1     -48.675  11.208  23.698  0.00  0.00    -0.265 OA
ATOM      9  C   UNL d   1     -45.999  10.137  23.685  0.00  0.00     0.020 A 
ATOM     10  C   UNL d   1     -44.903  10.980  23.345  0.00  0.00     0.058 A 
ATOM     11  C   UNL d   1     -45.191  10.245  23.568  0.00  0.00     0.013 A 
ATOM     12 CL   UNL d   1     -44.079  11.071  23.231  0.00  0.00    -0.082 Cl
ENDROOT
BRANCH   1  13
ATOM     13  C   UNL d   1     -48.110  12.655  23.258  0.00  0.00     0.200 C 
ATOM     14  O   UNL d   1     -48.026  13.341  23.694  0.00  0.00    -0.286 OA
BRANCH  13  15
ATOM     15  C   UNL d   1     -48.728  12.568  22.717  0.00  0.00     0.042 C 
BRANCH  15  16
ATOM     16  C   UNL d   1     -49.431  12.969  22.829  0.00  0.00     0.005 C 
BRANCH  16  17
ATOM     17  C   UNL d   1     -49.911  13.131  22.185  0.00  0.00     0.022 A 
ATOM     18  C   UNL d   1     -50.570  13.626  22.276  0.00  0.00     0.094 A 
ATOM     19  C   UNL d   1     -51.061  13.794  21.625  0.00  0.00     0.024 A 
ATOM     20  C   UNL d   1     -50.881  13.464  20.900  0.00  0.00     0.002 A 
ATOM     21  C   UNL d   1     -50.212  12.956  20.791  0.00  0.00     0.000 A 
ATOM     22  C   UNL d   1     -49.740  12.800  21.436  0.00  0.00     0.002 A 
BRANCH  18  23
ATOM     23  O   UNL d   1     -50.753  13.964  23.018  0.00  0.00    -0.328 OA
ATOM     24  C   UNL d   1     -51.036  14.720  23.065  0.00  0.00     0.181 C 
ENDBRANCH  18  23
ENDBRANCH  16  17
ENDBRANCH  15  16
ENDBRANCH  13  15
ENDBRANCH   1  13
BRANCH   2  25
ATOM     25  C   UNL d   1     -46.457  12.880  23.019  0.00  0.00     0.000 A 
ATOM     26  C   UNL d   1     -46.420  13.481  23.571  0.00  0.00     0.000 A 
ATOM     27  C   UNL d   1     -46.123  14.240  23.341  0.00  0.00     0.000 A 
ATOM     28  C   UNL d   1     -45.879  14.357  22.570  0.00  0.00     0.000 A 
ATOM     29  C   UNL d   1     -45.917  13.765  22.033  0.00  0.00     0.000 A 
ATOM     30  C   UNL d   1     -46.207  13.011  22.243  0.00  0.00     0.000 A 
ENDBRANCH   2  25
TORSDOF 6
ENDMDL
