MODEL 1
REMARK VINA RESULT:      62.8      0.000      0.000
REMARK  4 active torsions:
REMARK  status: ('A' for Active; 'I' for Inactive)
REMARK    1  A    between atoms: C_9  and  C_3 
REMARK    2  A    between atoms: N_10  and  C_9 
REMARK    3  A    between atoms: C_19  and  C_9 
REMARK    4  A    between atoms: C_12  and  N_11 
ROOT
ATOM      1  C   UNL d   1      44.951 -15.791  37.667  0.00  0.00     0.075 C 
ENDROOT
BRANCH   1   2
ATOM      2  C   UNL d   1      44.167 -15.758  37.406  0.00  0.00     0.106 A 
ATOM      3  C   UNL d   1      43.816 -16.265  36.844  0.00  0.00     0.289 A 
ATOM      4  N   UNL d   1      43.029 -16.036  36.749  0.00  0.00    -0.169 N 
ATOM      5  O   UNL d   1      44.194 -16.889  36.452  0.00  0.00    -0.265 OA
ATOM      6  C   UNL d   1      42.890 -15.391  37.248  0.00  0.00     0.200 A 
ATOM      7  N   UNL d   1      42.330 -16.201  36.351  0.00  0.00    -0.141 NA
ATOM      8  S   UNL d   1      43.588 -15.219  37.652  0.00  0.00    -0.042 SA
ATOM      9  N   UNL d   1      42.104 -15.162  37.154  0.00  0.00    -0.200 NA
ATOM     10  C   UNL d   1      41.755 -15.662  36.598  0.00  0.00     0.184 A 
ATOM     11  C   UNL d   1      40.972 -15.635  36.332  0.00  0.00     0.044 C 
ENDBRANCH   1   2
BRANCH   1  12
ATOM     12  N   UNL d   1      45.157 -16.328  38.258  0.00  0.00    -0.301 N 
ATOM     13  C   UNL d   1      45.946 -16.473  38.433  0.00  0.00     0.100 A 
ATOM     14  C   UNL d   1      46.148 -17.014  39.027  0.00  0.00     0.100 A 
ATOM     15  N   UNL d   1      45.562 -17.415  39.454  0.00  0.00    -0.299 N 
ATOM     16  C   UNL d   1      44.773 -17.262  39.270  0.00  0.00     0.100 A 
ATOM     17  C   UNL d   1      44.564 -16.723  38.677  0.00  0.00     0.100 A 
BRANCH  15  18
ATOM     18  C   UNL d   1      45.769 -17.944  40.035  0.00  0.00     0.092 A 
ATOM     19  C   UNL d   1      45.339 -18.007  40.727  0.00  0.00     0.156 A 
ATOM     20  F   UNL d   1      44.671 -17.515  40.835  0.00  0.00    -0.203 F 
ATOM     21  C   UNL d   1      45.556 -18.545  41.310  0.00  0.00     0.031 A 
ATOM     22  C   UNL d   1      46.215 -19.025  41.196  0.00  0.00     0.002 A 
ATOM     23  C   UNL d   1      46.646 -18.962  40.504  0.00  0.00     0.002 A 
ATOM     24  C   UNL d   1      46.431 -18.428  39.925  0.00  0.00     0.020 A 
ENDBRANCH  15  18
ENDBRANCH   1  12
BRANCH   1  25
ATOM     25  C   UNL d   1      45.515 -15.292  37.340  0.00  0.00     0.017 A 
ATOM     26  C   UNL d   1      45.664 -14.566  37.680  0.00  0.00     0.002 A 
ATOM     27  C   UNL d   1      46.220 -14.082  37.352  0.00  0.00     0.000 A 
ATOM     28  C   UNL d   1      46.646 -14.315  36.667  0.00  0.00     0.000 A 
ATOM     29  C   UNL d   1      46.493 -15.034  36.336  0.00  0.00     0.000 A 
ATOM     30  C   UNL d   1      45.925 -15.540  36.664  0.00  0.00     0.002 A 
ENDBRANCH   1  25
TORSDOF 4
ENDMDL
