MODEL 1
REMARK VINA RESULT:      -2.2      0.000      0.000
REMARK  3 active torsions:
REMARK  status: ('A' for Active; 'I' for Inactive)
REMARK    1  A    between atoms: C_8  and  C_1 
REMARK    2  A    between atoms: O_12  and  C_8 
REMARK    3  A    between atoms: C_21  and  O_12 
ROOT
ATOM      1  C   UNL d   1      31.902  17.577 -24.076  0.00  0.00     0.084 A 
ATOM      2  C   UNL d   1      31.116  17.387 -24.150  0.00  0.00     0.065 A 
ATOM      3  C   UNL d   1      30.994  16.601 -23.804  0.00  0.00     0.107 A 
ATOM      4  N   UNL d   1      31.698  16.319 -23.525  0.00  0.00    -0.302 N 
ATOM      5  C   UNL d   1      32.261  16.926 -23.695  0.00  0.00     0.070 A 
ATOM      6  C   UNL d   1      30.493  17.811 -24.479  0.00  0.00     0.197 A 
ATOM      7  C   UNL d   1      30.250  16.244 -23.790  0.00  0.00     0.212 A 
ATOM      8  C   UNL d   1      29.760  17.458 -24.465  0.00  0.00     0.042 A 
ATOM      9  C   UNL d   1      29.638  16.672 -24.119  0.00  0.00     0.043 A 
ATOM     10  C   UNL d   1      31.906  15.584 -23.135  0.00  0.00     0.080 A 
ATOM     11  C   UNL d   1      33.032  16.794 -23.473  0.00  0.00     0.018 A 
ATOM     12  O   UNL d   1      30.613  18.583 -24.818  0.00  0.00    -0.286 OA
ATOM     13  O   UNL d   1      30.126  15.473 -23.452  0.00  0.00    -0.285 OA
ATOM     14  C   UNL d   1      32.672  15.457 -22.916  0.00  0.00     0.019 A 
ATOM     15  C   UNL d   1      33.241  16.068 -23.087  0.00  0.00     0.003 A 
ATOM     16  C   UNL d   1      29.138  17.887 -24.796  0.00  0.00     0.003 A 
ATOM     17  C   UNL d   1      28.896  16.325 -24.109  0.00  0.00     0.003 A 
ATOM     18  C   UNL d   1      28.399  17.530 -24.781  0.00  0.00     0.000 A 
ATOM     19  C   UNL d   1      28.279  16.753 -24.439  0.00  0.00     0.000 A 
ENDROOT
BRANCH   1  20
ATOM     20  C   UNL d   1      32.264  18.304 -24.344  0.00  0.00     0.302 C 
ATOM     21  O   UNL d   1      32.562  18.346 -25.095  0.00  0.00    -0.259 OA
BRANCH  20  22
ATOM     22  O   UNL d   1      32.323  18.976 -23.859  0.00  0.00    -0.273 OA
BRANCH  22  23
ATOM     23  C   UNL d   1      32.934  19.572 -23.975  0.00  0.00     0.103 C 
ATOM     24  C   UNL d   1      33.239  20.002 -23.300  0.00  0.00     0.027 C 
ATOM     25  C   UNL d   1      33.234  19.735 -24.756  0.00  0.00     0.027 C 
ENDBRANCH  22  23
ENDBRANCH  20  22
ENDBRANCH   1  20
TORSDOF 3
ENDMDL
MODEL 2
REMARK VINA RESULT:      -2.0      3.375      5.497
REMARK  3 active torsions:
REMARK  status: ('A' for Active; 'I' for Inactive)
REMARK    1  A    between atoms: C_8  and  C_1 
REMARK    2  A    between atoms: O_12  and  C_8 
REMARK    3  A    between atoms: C_21  and  O_12 
ROOT
ATOM      1  C   UNL d   1      32.766  21.797 -22.001  0.00  0.00     0.084 A 
ATOM      2  C   UNL d   1      32.862  21.093 -22.395  0.00  0.00     0.065 A 
ATOM      3  C   UNL d   1      32.993  21.268 -23.234  0.00  0.00     0.107 A 
ATOM      4  N   UNL d   1      32.976  22.067 -23.347  0.00  0.00    -0.302 N 
ATOM      5  C   UNL d   1      32.835  22.395 -22.581  0.00  0.00     0.070 A 
ATOM      6  C   UNL d   1      32.850  20.320 -22.116  0.00  0.00     0.197 A 
ATOM      7  C   UNL d   1      33.111  20.668 -23.788  0.00  0.00     0.212 A 
ATOM      8  C   UNL d   1      32.967  19.729 -22.663  0.00  0.00     0.042 A 
ATOM      9  C   UNL d   1      33.098  19.904 -23.502  0.00  0.00     0.043 A 
ATOM     10  C   UNL d   1      33.071  22.549 -24.051  0.00  0.00     0.080 A 
ATOM     11  C   UNL d   1      32.789  23.205 -22.523  0.00  0.00     0.018 A 
ATOM     12  O   UNL d   1      32.722  20.148 -21.291  0.00  0.00    -0.286 OA
ATOM     13  O   UNL d   1      33.240  20.835 -24.613  0.00  0.00    -0.285 OA
ATOM     14  C   UNL d   1      33.025  23.352 -23.989  0.00  0.00     0.019 A 
ATOM     15  C   UNL d   1      32.883  23.683 -23.217  0.00  0.00     0.003 A 
ATOM     16  C   UNL d   1      32.954  18.955 -22.379  0.00  0.00     0.003 A 
ATOM     17  C   UNL d   1      33.215  19.302 -24.046  0.00  0.00     0.003 A 
ATOM     18  C   UNL d   1      33.072  18.360 -22.931  0.00  0.00     0.000 A 
ATOM     19  C   UNL d   1      33.202  18.533 -23.761  0.00  0.00     0.000 A 
ENDROOT
BRANCH   1  20
ATOM     20  C   UNL d   1      32.623  21.882 -21.163  0.00  0.00     0.302 C 
ATOM     21  O   UNL d   1      31.863  21.882 -20.887  0.00  0.00    -0.259 OA
BRANCH  20  22
ATOM     22  O   UNL d   1      33.241  21.964 -20.613  0.00  0.00    -0.273 OA
BRANCH  22  23
ATOM     23  C   UNL d   1      33.117  22.309 -19.833  0.00  0.00     0.103 C 
ATOM     24  C   UNL d   1      33.207  23.154 -19.725  0.00  0.00     0.027 C 
ATOM     25  C   UNL d   1      32.907  21.814 -19.172  0.00  0.00     0.027 C 
ENDBRANCH  22  23
ENDBRANCH  20  22
ENDBRANCH   1  20
TORSDOF 3
ENDMDL
MODEL 3
REMARK VINA RESULT:       0.1      2.591      5.467
REMARK  3 active torsions:
REMARK  status: ('A' for Active; 'I' for Inactive)
REMARK    1  A    between atoms: C_8  and  C_1 
REMARK    2  A    between atoms: O_12  and  C_8 
REMARK    3  A    between atoms: C_21  and  O_12 
ROOT
ATOM      1  C   UNL d   1      32.938  20.247 -22.877  0.00  0.00     0.084 A 
ATOM      2  C   UNL d   1      32.855  20.833 -22.321  0.00  0.00     0.065 A 
ATOM      3  C   UNL d   1      32.908  21.599 -22.723  0.00  0.00     0.107 A 
ATOM      4  N   UNL d   1      33.022  21.479 -23.514  0.00  0.00    -0.302 N 
ATOM      5  C   UNL d   1      33.041  20.639 -23.608  0.00  0.00     0.070 A 
ATOM      6  C   UNL d   1      32.738  20.784 -21.508  0.00  0.00     0.197 A 
ATOM      7  C   UNL d   1      32.844  22.311 -22.311  0.00  0.00     0.212 A 
ATOM      8  C   UNL d   1      32.676  21.486 -21.102  0.00  0.00     0.042 A 
ATOM      9  C   UNL d   1      32.729  22.252 -21.505  0.00  0.00     0.043 A 
ATOM     10  C   UNL d   1      33.113  22.025 -24.169  0.00  0.00     0.080 A 
ATOM     11  C   UNL d   1      33.151  20.350 -24.360  0.00  0.00     0.018 A 
ATOM     12  O   UNL d   1      32.686  20.031 -21.112  0.00  0.00    -0.286 OA
ATOM     13  O   UNL d   1      32.896  23.065 -22.702  0.00  0.00    -0.285 OA
ATOM     14  C   UNL d   1      33.222  21.733 -24.914  0.00  0.00     0.019 A 
ATOM     15  C   UNL d   1      33.241  20.887 -25.010  0.00  0.00     0.003 A 
ATOM     16  C   UNL d   1      32.559  21.433 -20.287  0.00  0.00     0.003 A 
ATOM     17  C   UNL d   1      32.665  22.955 -21.088  0.00  0.00     0.003 A 
ATOM     18  C   UNL d   1      32.496  22.142 -19.879  0.00  0.00     0.000 A 
ATOM     19  C   UNL d   1      32.549  22.899 -20.277  0.00  0.00     0.000 A 
ENDROOT
BRANCH   1  20
ATOM     20  C   UNL d   1      32.921  19.407 -22.720  0.00  0.00     0.302 C 
ATOM     21  O   UNL d   1      33.241  19.125 -22.033  0.00  0.00    -0.259 OA
BRANCH  20  22
ATOM     22  O   UNL d   1      32.586  18.863 -23.251  0.00  0.00    -0.273 OA
BRANCH  22  23
ATOM     23  C   UNL d   1      32.540  18.020 -23.075  0.00  0.00     0.103 C 
ATOM     24  C   UNL d   1      33.191  17.636 -22.674  0.00  0.00     0.027 C 
ATOM     25  C   UNL d   1      31.851  17.571 -23.298  0.00  0.00     0.027 C 
ENDBRANCH  22  23
ENDBRANCH  20  22
ENDBRANCH   1  20
TORSDOF 3
ENDMDL
MODEL 4
REMARK VINA RESULT:       0.4      3.713      5.483
REMARK  3 active torsions:
REMARK  status: ('A' for Active; 'I' for Inactive)
REMARK    1  A    between atoms: C_8  and  C_1 
REMARK    2  A    between atoms: O_12  and  C_8 
REMARK    3  A    between atoms: C_21  and  O_12 
ROOT
ATOM      1  C   UNL d   1      32.748  21.252 -21.657  0.00  0.00     0.084 A 
ATOM      2  C   UNL d   1      32.794  21.651 -22.363  0.00  0.00     0.065 A 
ATOM      3  C   UNL d   1      32.977  21.077 -22.987  0.00  0.00     0.107 A 
ATOM      4  N   UNL d   1      33.040  20.340 -22.663  0.00  0.00    -0.302 N 
ATOM      5  C   UNL d   1      32.898  20.450 -21.837  0.00  0.00     0.070 A 
ATOM      6  C   UNL d   1      32.697  22.450 -22.531  0.00  0.00     0.197 A 
ATOM      7  C   UNL d   1      33.062  21.306 -23.775  0.00  0.00     0.212 A 
ATOM      8  C   UNL d   1      32.781  22.675 -23.309  0.00  0.00     0.042 A 
ATOM      9  C   UNL d   1      32.964  22.101 -23.933  0.00  0.00     0.043 A 
ATOM     10  C   UNL d   1      33.210  19.574 -23.009  0.00  0.00     0.080 A 
ATOM     11  C   UNL d   1      32.926  19.791 -21.361  0.00  0.00     0.018 A 
ATOM     12  O   UNL d   1      32.518  23.014 -21.919  0.00  0.00    -0.286 OA
ATOM     13  O   UNL d   1      33.241  20.747 -24.390  0.00  0.00    -0.285 OA
ATOM     14  C   UNL d   1      33.238  18.923 -22.534  0.00  0.00     0.019 A 
ATOM     15  C   UNL d   1      33.094  19.033 -21.701  0.00  0.00     0.003 A 
ATOM     16  C   UNL d   1      32.684  23.477 -23.474  0.00  0.00     0.003 A 
ATOM     17  C   UNL d   1      33.047  22.337 -24.713  0.00  0.00     0.003 A 
ATOM     18  C   UNL d   1      32.768  23.702 -24.258  0.00  0.00     0.000 A 
ATOM     19  C   UNL d   1      32.949  23.135 -24.875  0.00  0.00     0.000 A 
ENDROOT
BRANCH   1  20
ATOM     20  C   UNL d   1      32.578  21.605 -20.897  0.00  0.00     0.302 C 
ATOM     21  O   UNL d   1      31.811  21.654 -20.644  0.00  0.00    -0.259 OA
BRANCH  20  22
ATOM     22  O   UNL d   1      33.175  21.904 -20.403  0.00  0.00    -0.273 OA
BRANCH  22  23
ATOM     23  C   UNL d   1      33.002  22.247 -19.631  0.00  0.00     0.103 C 
ATOM     24  C   UNL d   1      33.231  21.826 -18.921  0.00  0.00     0.027 C 
ATOM     25  C   UNL d   1      32.606  22.999 -19.573  0.00  0.00     0.027 C 
ENDBRANCH  22  23
ENDBRANCH  20  22
ENDBRANCH   1  20
TORSDOF 3
ENDMDL
MODEL 5
REMARK VINA RESULT:       0.5      4.647      6.539
REMARK  3 active torsions:
REMARK  status: ('A' for Active; 'I' for Inactive)
REMARK    1  A    between atoms: C_8  and  C_1 
REMARK    2  A    between atoms: O_12  and  C_8 
REMARK    3  A    between atoms: C_21  and  O_12 
ROOT
ATOM      1  C   UNL d   1      32.545  22.120 -21.411  0.00  0.00     0.084 A 
ATOM      2  C   UNL d   1      32.616  22.292 -20.619  0.00  0.00     0.065 A 
ATOM      3  C   UNL d   1      32.869  21.571 -20.208  0.00  0.00     0.107 A 
ATOM      4  N   UNL d   1      32.949  20.971 -20.743  0.00  0.00    -0.302 N 
ATOM      5  C   UNL d   1      32.748  21.314 -21.489  0.00  0.00     0.070 A 
ATOM      6  C   UNL d   1      32.490  22.995 -20.213  0.00  0.00     0.197 A 
ATOM      7  C   UNL d   1      32.993  21.559 -19.393  0.00  0.00     0.212 A 
ATOM      8  C   UNL d   1      32.612  22.982 -19.409  0.00  0.00     0.042 A 
ATOM      9  C   UNL d   1      32.865  22.262 -18.997  0.00  0.00     0.043 A 
ATOM     10  C   UNL d   1      33.181  20.151 -20.653  0.00  0.00     0.080 A 
ATOM     11  C   UNL d   1      32.779  20.831 -22.142  0.00  0.00     0.018 A 
ATOM     12  O   UNL d   1      32.241  23.702 -20.617  0.00  0.00    -0.286 OA
ATOM     13  O   UNL d   1      33.241  20.855 -18.984  0.00  0.00    -0.285 OA
ATOM     14  C   UNL d   1      33.211  19.675 -21.303  0.00  0.00     0.019 A 
ATOM     15  C   UNL d   1      33.008  20.019 -22.056  0.00  0.00     0.003 A 
ATOM     16  C   UNL d   1      32.484  23.689 -19.004  0.00  0.00     0.003 A 
ATOM     17  C   UNL d   1      32.986  22.258 -18.186  0.00  0.00     0.003 A 
ATOM     18  C   UNL d   1      32.608  23.675 -18.193  0.00  0.00     0.000 A 
ATOM     19  C   UNL d   1      32.857  22.963 -17.786  0.00  0.00     0.000 A 
ENDROOT
BRANCH   1  20
ATOM     20  C   UNL d   1      32.308  22.672 -22.019  0.00  0.00     0.302 C 
ATOM     21  O   UNL d   1      31.542  22.931 -22.043  0.00  0.00    -0.259 OA
BRANCH  20  22
ATOM     22  O   UNL d   1      32.838  22.956 -22.592  0.00  0.00    -0.273 OA
BRANCH  22  23
ATOM     23  C   UNL d   1      32.590  23.134 -23.398  0.00  0.00     0.103 C 
ATOM     24  C   UNL d   1      31.859  23.560 -23.531  0.00  0.00     0.027 C 
ATOM     25  C   UNL d   1      33.068  22.887 -24.059  0.00  0.00     0.027 C 
ENDBRANCH  22  23
ENDBRANCH  20  22
ENDBRANCH   1  20
TORSDOF 3
ENDMDL
MODEL 6
REMARK VINA RESULT:       0.7      2.216      4.953
REMARK  3 active torsions:
REMARK  status: ('A' for Active; 'I' for Inactive)
REMARK    1  A    between atoms: C_8  and  C_1 
REMARK    2  A    between atoms: O_12  and  C_8 
REMARK    3  A    between atoms: C_21  and  O_12 
ROOT
ATOM      1  C   UNL d   1      32.895  19.843 -22.975  0.00  0.00     0.084 A 
ATOM      2  C   UNL d   1      32.969  20.592 -23.282  0.00  0.00     0.065 A 
ATOM      3  C   UNL d   1      33.059  21.148 -22.623  0.00  0.00     0.107 A 
ATOM      4  N   UNL d   1      33.040  20.741 -21.925  0.00  0.00    -0.302 N 
ATOM      5  C   UNL d   1      32.938  19.932 -22.146  0.00  0.00     0.070 A 
ATOM      6  C   UNL d   1      32.969  20.851 -24.063  0.00  0.00     0.197 A 
ATOM      7  C   UNL d   1      33.147  21.958 -22.749  0.00  0.00     0.212 A 
ATOM      8  C   UNL d   1      33.056  21.650 -24.186  0.00  0.00     0.042 A 
ATOM      9  C   UNL d   1      33.145  22.206 -23.526  0.00  0.00     0.043 A 
ATOM     10  C   UNL d   1      33.101  20.999 -21.110  0.00  0.00     0.080 A 
ATOM     11  C   UNL d   1      32.898  19.383 -21.547  0.00  0.00     0.018 A 
ATOM     12  O   UNL d   1      32.880  20.305 -24.711  0.00  0.00    -0.286 OA
ATOM     13  O   UNL d   1      33.236  22.508 -22.104  0.00  0.00    -0.285 OA
ATOM     14  C   UNL d   1      33.061  20.452 -20.518  0.00  0.00     0.019 A 
ATOM     15  C   UNL d   1      32.959  19.635 -20.739  0.00  0.00     0.003 A 
ATOM     16  C   UNL d   1      33.054  21.906 -24.970  0.00  0.00     0.003 A 
ATOM     17  C   UNL d   1      33.232  23.010 -23.660  0.00  0.00     0.003 A 
ATOM     18  C   UNL d   1      33.142  22.712 -25.092  0.00  0.00     0.000 A 
ATOM     19  C   UNL d   1      33.231  23.262 -24.441  0.00  0.00     0.000 A 
ENDROOT
BRANCH   1  20
ATOM     20  C   UNL d   1      32.795  19.128 -23.431  0.00  0.00     0.302 C 
ATOM     21  O   UNL d   1      33.240  19.016 -24.098  0.00  0.00    -0.259 OA
BRANCH  20  22
ATOM     22  O   UNL d   1      32.254  18.536 -23.216  0.00  0.00    -0.273 OA
BRANCH  22  23
ATOM     23  C   UNL d   1      32.101  17.850 -23.716  0.00  0.00     0.103 C 
ATOM     24  C   UNL d   1      31.420  17.849 -24.235  0.00  0.00     0.027 C 
ATOM     25  C   UNL d   1      32.623  17.177 -23.694  0.00  0.00     0.027 C 
ENDBRANCH  22  23
ENDBRANCH  20  22
ENDBRANCH   1  20
TORSDOF 3
ENDMDL
