MODEL 1
REMARK VINA RESULT:      51.9      0.000      0.000
REMARK  6 active torsions:
REMARK  status: ('A' for Active; 'I' for Inactive)
REMARK    1  A    between atoms: C_13  and  C_4 
REMARK    2  A    between atoms: C_20  and  C_7 
REMARK    3  A    between atoms: C_8  and  C_12 
REMARK       I    between atoms: N_9  and  C_8 
REMARK    4  A    between atoms: C_11  and  N_9 
REMARK       I    between atoms: C_12  and  N_19 
REMARK    5  A    between atoms: N_19  and  C_23 
REMARK    6  A    between atoms: C_23  and  C_20 
ROOT
ATOM      1  C   UNL d   1      13.048  14.228  -4.453  0.00  0.00     0.041 C 
ENDROOT
BRANCH   1   2
ATOM      2  C   UNL d   1      13.048  13.408  -4.359  0.00  0.00     0.093 A 
ATOM      3  N   UNL d   1      13.238  12.996  -3.674  0.00  0.00    -0.205 N 
ATOM      4  C   UNL d   1      13.166  12.186  -3.823  0.00  0.00     0.197 A 
ATOM      5  N   UNL d   1      13.477  13.087  -2.881  0.00  0.00    -0.144 NA
ATOM      6  N   UNL d   1      13.358  11.779  -3.129  0.00  0.00    -0.200 NA
ATOM      7  S   UNL d   1      12.929  12.097  -4.608  0.00  0.00    -0.046 SA
ATOM      8  C   UNL d   1      13.550  12.332  -2.549  0.00  0.00     0.184 A 
ATOM      9  C   UNL d   1      12.857  12.852  -4.939  0.00  0.00     0.058 A 
BRANCH   8  10
ATOM     10  C   UNL d   1      13.775  12.160  -1.775  0.00  0.00     0.038 A 
ATOM     11  C   UNL d   1      14.558  11.982  -1.605  0.00  0.00     0.003 A 
ATOM     12  C   UNL d   1      15.117  11.975  -2.206  0.00  0.00     0.000 C 
ATOM     13  C   UNL d   1      14.783  11.810  -0.826  0.00  0.00     0.000 A 
ATOM     14  C   UNL d   1      14.212  11.820  -0.225  0.00  0.00     0.000 A 
ATOM     15  C   UNL d   1      13.429  11.998  -0.395  0.00  0.00     0.000 A 
ATOM     16  C   UNL d   1      13.204  12.170  -1.174  0.00  0.00     0.003 A 
ENDBRANCH   8  10
ENDBRANCH   1   2
BRANCH   1  17
ATOM     17  C   UNL d   1      13.761  14.637  -4.507  0.00  0.00     0.104 C 
BRANCH  17  18
ATOM     18  N   UNL d   1      14.122  14.921  -3.832  0.00  0.00    -0.202 NA
ATOM     19  C   UNL d   1      14.561  15.617  -3.860  0.00  0.00     0.337 C 
ATOM     20  O   UNL d   1      14.637  16.025  -4.571  0.00  0.00    -0.260 OA
BRANCH  19  21
ATOM     21  C   UNL d   1      14.922  15.901  -3.184  0.00  0.00     0.337 C 
ATOM     22  N   UNL d   1      14.532  15.876  -2.452  0.00  0.00    -0.204 NA
ATOM     23  O   UNL d   1      15.695  16.223  -3.223  0.00  0.00    -0.260 OA
BRANCH  22  24
ATOM     24  C   UNL d   1      14.896  16.164  -1.769  0.00  0.00     0.085 A 
ATOM     25  C   UNL d   1      14.911  16.985  -1.625  0.00  0.00     0.018 A 
ATOM     26  C   UNL d   1      15.264  17.291  -0.959  0.00  0.00     0.002 A 
ATOM     27  C   UNL d   1      14.564  17.501  -2.162  0.00  0.00     0.002 C 
ATOM     28  C   UNL d   1      15.622  16.773  -0.404  0.00  0.00     0.000 A 
ATOM     29  C   UNL d   1      15.607  15.943  -0.549  0.00  0.00     0.002 A 
ATOM     30  C   UNL d   1      15.240  15.649  -1.238  0.00  0.00     0.019 A 
ATOM     31  C   UNL d   1      15.953  15.430  -0.015  0.00  0.00     0.000 C 
ENDBRANCH  22  24
ENDBRANCH  19  21
ENDBRANCH  17  18
ENDBRANCH   1  17
TORSDOF 6
ENDMDL
MODEL 2
REMARK VINA RESULT:      53.4      2.235      3.139
REMARK  6 active torsions:
REMARK  status: ('A' for Active; 'I' for Inactive)
REMARK    1  A    between atoms: C_13  and  C_4 
REMARK    2  A    between atoms: C_20  and  C_7 
REMARK    3  A    between atoms: C_8  and  C_12 
REMARK       I    between atoms: N_9  and  C_8 
REMARK    4  A    between atoms: C_11  and  N_9 
REMARK       I    between atoms: C_12  and  N_19 
REMARK    5  A    between atoms: N_19  and  C_23 
REMARK    6  A    between atoms: C_23  and  C_20 
ROOT
ATOM      1  C   UNL d   1      13.105  14.532  -4.261  0.00  0.00     0.041 C 
ENDROOT
BRANCH   1   2
ATOM      2  C   UNL d   1      13.183  13.713  -4.194  0.00  0.00     0.093 A 
ATOM      3  N   UNL d   1      13.413  13.299  -3.522  0.00  0.00    -0.205 N 
ATOM      4  C   UNL d   1      13.417  12.491  -3.697  0.00  0.00     0.197 A 
ATOM      5  N   UNL d   1      13.644  13.387  -2.727  0.00  0.00    -0.144 NA
ATOM      6  N   UNL d   1      13.649  12.082  -3.017  0.00  0.00    -0.200 NA
ATOM      7  S   UNL d   1      13.188  12.405  -4.484  0.00  0.00    -0.046 SA
ATOM      8  C   UNL d   1      13.789  12.631  -2.419  0.00  0.00     0.184 A 
ATOM      9  C   UNL d   1      13.043  13.160  -4.791  0.00  0.00     0.058 A 
BRANCH   8  10
ATOM     10  C   UNL d   1      14.031  12.457  -1.650  0.00  0.00     0.038 A 
ATOM     11  C   UNL d   1      14.726  12.781  -1.356  0.00  0.00     0.003 A 
ATOM     12  C   UNL d   1      15.180  13.277  -1.828  0.00  0.00     0.000 C 
ATOM     13  C   UNL d   1      14.969  12.606  -0.584  0.00  0.00     0.000 A 
ATOM     14  C   UNL d   1      14.505  12.103  -0.114  0.00  0.00     0.000 A 
ATOM     15  C   UNL d   1      13.810  11.780  -0.409  0.00  0.00     0.000 A 
ATOM     16  C   UNL d   1      13.568  11.956  -1.182  0.00  0.00     0.003 A 
ENDBRANCH   8  10
ENDBRANCH   1   2
BRANCH   1  17
ATOM     17  C   UNL d   1      13.771  15.001  -4.384  0.00  0.00     0.104 C 
BRANCH  17  18
ATOM     18  N   UNL d   1      13.689  15.757  -4.681  0.00  0.00    -0.202 NA
ATOM     19  C   UNL d   1      14.154  16.004  -5.314  0.00  0.00     0.337 C 
ATOM     20  O   UNL d   1      14.702  15.487  -5.647  0.00  0.00    -0.260 OA
BRANCH  19  21
ATOM     21  C   UNL d   1      14.072  16.761  -5.611  0.00  0.00     0.337 C 
ATOM     22  N   UNL d   1      14.368  17.415  -5.195  0.00  0.00    -0.204 NA
ATOM     23  O   UNL d   1      13.686  16.886  -6.345  0.00  0.00    -0.260 OA
BRANCH  22  24
ATOM     24  C   UNL d   1      14.285  18.179  -5.495  0.00  0.00     0.085 A 
ATOM     25  C   UNL d   1      14.941  18.695  -5.496  0.00  0.00     0.018 A 
ATOM     26  C   UNL d   1      14.884  19.452  -5.787  0.00  0.00     0.002 A 
ATOM     27  C   UNL d   1      15.663  18.439  -5.199  0.00  0.00     0.002 C 
ATOM     28  C   UNL d   1      14.151  19.725  -6.093  0.00  0.00     0.000 A 
ATOM     29  C   UNL d   1      13.488  19.204  -6.092  0.00  0.00     0.002 A 
ATOM     30  C   UNL d   1      13.567  18.431  -5.789  0.00  0.00     0.019 A 
ATOM     31  C   UNL d   1      12.770  19.460  -6.388  0.00  0.00     0.000 C 
ENDBRANCH  22  24
ENDBRANCH  19  21
ENDBRANCH  17  18
ENDBRANCH   1  17
TORSDOF 6
ENDMDL
