MODEL 1
REMARK VINA RESULT:      -7.9      0.000      0.000
REMARK  5 active torsions:
REMARK  status: ('A' for Active; 'I' for Inactive)
REMARK    1  A    between atoms: C_2  and  N_1 
REMARK    2  A    between atoms: C_5  and  C_18 
REMARK       I    between atoms: N_9  and  C_5 
REMARK    3  A    between atoms: O_15  and  C_7 
REMARK    4  A    between atoms: C_13  and  N_9 
REMARK    5  A    between atoms: C_18  and  O_15 
ROOT
ATOM      1  C   UNL d   1      51.442  34.098  52.797  0.00  0.00     0.304 C 
ATOM      2  N   UNL d   1      50.673  33.921  53.039  0.00  0.00    -0.206 NA
ATOM      3  O   UNL d   1      51.569  34.665  52.211  0.00  0.00    -0.263 OA
ENDROOT
BRANCH   1   4
ATOM      4  C   UNL d   1      52.083  33.709  53.142  0.00  0.00     0.185 C 
BRANCH   4   5
ATOM      5  O   UNL d   1      52.584  34.115  53.655  0.00  0.00    -0.298 OA
BRANCH   5   6
ATOM      6  C   UNL d   1      53.213  33.721  54.015  0.00  0.00     0.122 A 
ATOM      7  C   UNL d   1      53.667  34.111  54.596  0.00  0.00     0.149 A 
ATOM      8  C   UNL d   1      54.297  33.717  54.955  0.00  0.00     0.026 A 
ATOM      9  C   UNL d   1      54.472  32.932  54.734  0.00  0.00     0.002 A 
ATOM     10  C   UNL d   1      54.020  32.550  54.159  0.00  0.00     0.002 A 
ATOM     11  C   UNL d   1      53.391  32.945  53.800  0.00  0.00     0.026 A 
BRANCH   7  12
ATOM     12  N   UNL d   1      53.488  34.881  54.806  0.00  0.00    -0.112 N 
ATOM     13  O   UNL d   1      53.023  35.024  55.472  0.00  0.00    -0.532 OA
ATOM     14  O   UNL d   1      53.770  35.512  54.356  0.00  0.00    -0.532 OA
ENDBRANCH   7  12
ENDBRANCH   5   6
ENDBRANCH   4   5
ENDBRANCH   1   4
BRANCH   2  15
ATOM     15  C   UNL d   1      50.032  34.310  52.695  0.00  0.00     0.087 A 
ATOM     16  C   UNL d   1      49.595  34.855  53.135  0.00  0.00     0.045 A 
ATOM     17  C   UNL d   1      48.954  35.244  52.791  0.00  0.00     0.121 A 
ATOM     18  O   UNL d   1      48.427  35.804  53.087  0.00  0.00    -0.299 OA
ATOM     19  C   UNL d   1      48.751  35.089  52.006  0.00  0.00     0.119 A 
ATOM     20  C   UNL d   1      47.894  35.999  52.489  0.00  0.00     0.304 A 
ATOM     21  O   UNL d   1      48.096  35.554  51.818  0.00  0.00    -0.300 OA
ATOM     22  C   UNL d   1      49.187  34.549  51.573  0.00  0.00     0.028 A 
ATOM     23  C   UNL d   1      49.827  34.160  51.918  0.00  0.00     0.021 A 
ENDBRANCH   2  15
TORSDOF 5
ENDMDL
MODEL 2
REMARK VINA RESULT:      -7.7      1.391      5.140
REMARK  5 active torsions:
REMARK  status: ('A' for Active; 'I' for Inactive)
REMARK    1  A    between atoms: C_2  and  N_1 
REMARK    2  A    between atoms: C_5  and  C_18 
REMARK       I    between atoms: N_9  and  C_5 
REMARK    3  A    between atoms: O_15  and  C_7 
REMARK    4  A    between atoms: C_13  and  N_9 
REMARK    5  A    between atoms: C_18  and  O_15 
ROOT
ATOM      1  C   UNL d   1      50.371  34.302  52.875  0.00  0.00     0.304 C 
ATOM      2  N   UNL d   1      51.109  34.465  52.542  0.00  0.00    -0.206 NA
ATOM      3  O   UNL d   1      50.321  33.865  53.572  0.00  0.00    -0.263 OA
ENDROOT
BRANCH   1   4
ATOM      4  C   UNL d   1      49.684  34.578  52.510  0.00  0.00     0.185 C 
BRANCH   4   5
ATOM      5  O   UNL d   1      49.177  35.086  52.916  0.00  0.00    -0.298 OA
BRANCH   5   6
ATOM      6  C   UNL d   1      48.496  35.371  52.547  0.00  0.00     0.122 A 
ATOM      7  C   UNL d   1      47.993  35.895  52.957  0.00  0.00     0.149 A 
ATOM      8  C   UNL d   1      47.312  36.180  52.589  0.00  0.00     0.026 A 
ATOM      9  C   UNL d   1      47.135  35.940  51.810  0.00  0.00     0.002 A 
ATOM     10  C   UNL d   1      47.634  35.422  51.409  0.00  0.00     0.002 A 
ATOM     11  C   UNL d   1      48.315  35.137  51.777  0.00  0.00     0.026 A 
BRANCH   7  12
ATOM     12  N   UNL d   1      48.176  36.125  53.721  0.00  0.00    -0.112 N 
ATOM     13  O   UNL d   1      47.788  35.771  54.357  0.00  0.00    -0.532 OA
ATOM     14  O   UNL d   1      48.746  36.706  53.856  0.00  0.00    -0.532 OA
ENDBRANCH   7  12
ENDBRANCH   5   6
ENDBRANCH   4   5
ENDBRANCH   1   4
BRANCH   2  15
ATOM     15  C   UNL d   1      51.795  34.189  52.906  0.00  0.00     0.087 A 
ATOM     16  C   UNL d   1      52.054  33.417  52.768  0.00  0.00     0.045 A 
ATOM     17  C   UNL d   1      52.741  33.142  53.133  0.00  0.00     0.121 A 
ATOM     18  O   UNL d   1      53.126  32.414  53.101  0.00  0.00    -0.299 OA
ATOM     19  C   UNL d   1      53.169  33.637  53.635  0.00  0.00     0.119 A 
ATOM     20  C   UNL d   1      53.794  32.454  53.583  0.00  0.00     0.304 A 
ATOM     21  O   UNL d   1      53.819  33.214  53.914  0.00  0.00    -0.300 OA
ATOM     22  C   UNL d   1      52.909  34.401  53.769  0.00  0.00     0.028 A 
ATOM     23  C   UNL d   1      52.222  34.677  53.404  0.00  0.00     0.021 A 
ENDBRANCH   2  15
TORSDOF 5
ENDMDL
MODEL 3
REMARK VINA RESULT:      -7.6      1.378      1.853
REMARK  5 active torsions:
REMARK  status: ('A' for Active; 'I' for Inactive)
REMARK    1  A    between atoms: C_2  and  N_1 
REMARK    2  A    between atoms: C_5  and  C_18 
REMARK       I    between atoms: N_9  and  C_5 
REMARK    3  A    between atoms: O_15  and  C_7 
REMARK    4  A    between atoms: C_13  and  N_9 
REMARK    5  A    between atoms: C_18  and  O_15 
ROOT
ATOM      1  C   UNL d   1      50.929  33.778  53.192  0.00  0.00     0.304 C 
ATOM      2  N   UNL d   1      50.823  34.457  52.735  0.00  0.00    -0.206 NA
ATOM      3  O   UNL d   1      50.305  33.248  53.293  0.00  0.00    -0.263 OA
ENDROOT
BRANCH   1   4
ATOM      4  C   UNL d   1      51.659  33.629  53.547  0.00  0.00     0.185 C 
BRANCH   4   5
ATOM      5  O   UNL d   1      52.066  32.933  53.376  0.00  0.00    -0.298 OA
BRANCH   5   6
ATOM      6  C   UNL d   1      52.831  32.821  53.664  0.00  0.00     0.122 A 
ATOM      7  C   UNL d   1      53.242  32.118  53.482  0.00  0.00     0.149 A 
ATOM      8  C   UNL d   1      54.007  32.006  53.770  0.00  0.00     0.026 A 
ATOM      9  C   UNL d   1      54.361  32.597  54.240  0.00  0.00     0.002 A 
ATOM     10  C   UNL d   1      53.951  33.290  54.418  0.00  0.00     0.002 A 
ATOM     11  C   UNL d   1      53.186  33.402  54.130  0.00  0.00     0.026 A 
BRANCH   7  12
ATOM     12  N   UNL d   1      52.887  31.544  53.020  0.00  0.00    -0.112 N 
ATOM     13  O   UNL d   1      52.528  30.895  53.381  0.00  0.00    -0.532 OA
ATOM     14  O   UNL d   1      52.886  31.613  52.198  0.00  0.00    -0.532 OA
ENDBRANCH   7  12
ENDBRANCH   5   6
ENDBRANCH   4   5
ENDBRANCH   1   4
BRANCH   2  15
ATOM     15  C   UNL d   1      50.093  34.606  52.381  0.00  0.00     0.087 A 
ATOM     16  C   UNL d   1      49.533  35.072  52.769  0.00  0.00     0.045 A 
ATOM     17  C   UNL d   1      48.804  35.220  52.414  0.00  0.00     0.121 A 
ATOM     18  O   UNL d   1      48.149  35.656  52.663  0.00  0.00    -0.299 OA
ATOM     19  C   UNL d   1      48.633  34.903  51.671  0.00  0.00     0.119 A 
ATOM     20  C   UNL d   1      47.571  35.611  52.077  0.00  0.00     0.304 A 
ATOM     21  O   UNL d   1      47.873  35.144  51.462  0.00  0.00    -0.300 OA
ATOM     22  C   UNL d   1      49.191  34.442  51.290  0.00  0.00     0.028 A 
ATOM     23  C   UNL d   1      49.921  34.293  51.645  0.00  0.00     0.021 A 
ENDBRANCH   2  15
TORSDOF 5
ENDMDL
MODEL 4
REMARK VINA RESULT:      -6.9      2.968      4.966
REMARK  5 active torsions:
REMARK  status: ('A' for Active; 'I' for Inactive)
REMARK    1  A    between atoms: C_2  and  N_1 
REMARK    2  A    between atoms: C_5  and  C_18 
REMARK       I    between atoms: N_9  and  C_5 
REMARK    3  A    between atoms: O_15  and  C_7 
REMARK    4  A    between atoms: C_13  and  N_9 
REMARK    5  A    between atoms: C_18  and  O_15 
ROOT
ATOM      1  C   UNL d   1      53.549  32.000  53.385  0.00  0.00     0.304 C 
ATOM      2  N   UNL d   1      52.893  31.518  53.517  0.00  0.00    -0.206 NA
ATOM      3  O   UNL d   1      54.306  31.671  53.371  0.00  0.00    -0.263 OA
ENDROOT
BRANCH   1   4
ATOM      4  C   UNL d   1      53.449  32.811  53.266  0.00  0.00     0.185 C 
BRANCH   4   5
ATOM      5  O   UNL d   1      53.704  33.345  53.839  0.00  0.00    -0.298 OA
BRANCH   5   6
ATOM      6  C   UNL d   1      53.363  34.095  53.885  0.00  0.00     0.122 A 
ATOM      7  C   UNL d   1      53.568  34.605  54.513  0.00  0.00     0.149 A 
ATOM      8  C   UNL d   1      53.227  35.355  54.558  0.00  0.00     0.026 A 
ATOM      9  C   UNL d   1      52.680  35.594  53.976  0.00  0.00     0.002 A 
ATOM     10  C   UNL d   1      52.480  35.087  53.357  0.00  0.00     0.002 A 
ATOM     11  C   UNL d   1      52.821  34.338  53.312  0.00  0.00     0.026 A 
BRANCH   7  12
ATOM     12  N   UNL d   1      54.105  34.361  55.079  0.00  0.00    -0.112 N 
ATOM     13  O   UNL d   1      53.834  34.002  55.770  0.00  0.00    -0.532 OA
ATOM     14  O   UNL d   1      54.914  34.472  54.961  0.00  0.00    -0.532 OA
ENDBRANCH   7  12
ENDBRANCH   5   6
ENDBRANCH   4   5
ENDBRANCH   1   4
BRANCH   2  15
ATOM     15  C   UNL d   1      52.993  30.708  53.636  0.00  0.00     0.087 A 
ATOM     16  C   UNL d   1      53.123  30.416  54.397  0.00  0.00     0.045 A 
ATOM     17  C   UNL d   1      53.224  29.605  54.515  0.00  0.00     0.121 A 
ATOM     18  O   UNL d   1      53.360  29.162  55.197  0.00  0.00    -0.299 OA
ATOM     19  C   UNL d   1      53.193  29.087  53.873  0.00  0.00     0.119 A 
ATOM     20  C   UNL d   1      53.414  28.367  54.982  0.00  0.00     0.304 A 
ATOM     21  O   UNL d   1      53.311  28.323  54.160  0.00  0.00    -0.300 OA
ATOM     22  C   UNL d   1      53.064  29.382  53.121  0.00  0.00     0.028 A 
ATOM     23  C   UNL d   1      52.963  30.192  53.003  0.00  0.00     0.021 A 
ENDBRANCH   2  15
TORSDOF 5
ENDMDL
MODEL 5
REMARK VINA RESULT:      -5.7      9.911     10.888
REMARK  5 active torsions:
REMARK  status: ('A' for Active; 'I' for Inactive)
REMARK    1  A    between atoms: C_2  and  N_1 
REMARK    2  A    between atoms: C_5  and  C_18 
REMARK       I    between atoms: N_9  and  C_5 
REMARK    3  A    between atoms: O_15  and  C_7 
REMARK    4  A    between atoms: C_13  and  N_9 
REMARK    5  A    between atoms: C_18  and  O_15 
ROOT
ATOM      1  C   UNL d   1      44.992  27.578  56.655  0.00  0.00     0.304 C 
ATOM      2  N   UNL d   1      44.350  27.073  56.529  0.00  0.00    -0.206 NA
ATOM      3  O   UNL d   1      45.735  27.263  56.825  0.00  0.00    -0.263 OA
ENDROOT
BRANCH   1   4
ATOM      4  C   UNL d   1      44.889  28.395  56.611  0.00  0.00     0.185 C 
BRANCH   4   5
ATOM      5  O   UNL d   1      44.946  28.855  57.293  0.00  0.00    -0.298 OA
BRANCH   5   6
ATOM      6  C   UNL d   1      44.817  29.669  57.253  0.00  0.00     0.122 A 
ATOM      7  C   UNL d   1      44.841  30.125  57.951  0.00  0.00     0.149 A 
ATOM      8  C   UNL d   1      44.711  30.939  57.912  0.00  0.00     0.026 A 
ATOM      9  C   UNL d   1      44.557  31.296  57.175  0.00  0.00     0.002 A 
ATOM     10  C   UNL d   1      44.534  30.842  56.487  0.00  0.00     0.002 A 
ATOM     11  C   UNL d   1      44.664  30.028  56.527  0.00  0.00     0.026 A 
BRANCH   7  12
ATOM     12  N   UNL d   1      44.993  29.765  58.670  0.00  0.00    -0.112 N 
ATOM     13  O   UNL d   1      45.766  29.734  58.955  0.00  0.00    -0.532 OA
ATOM     14  O   UNL d   1      44.377  29.435  59.109  0.00  0.00    -0.532 OA
ENDBRANCH   7  12
ENDBRANCH   5   6
ENDBRANCH   4   5
ENDBRANCH   1   4
BRANCH   2  15
ATOM     15  C   UNL d   1      44.453  26.256  56.573  0.00  0.00     0.087 A 
ATOM     16  C   UNL d   1      44.654  25.829  55.896  0.00  0.00     0.045 A 
ATOM     17  C   UNL d   1      44.757  25.012  55.940  0.00  0.00     0.121 A 
ATOM     18  O   UNL d   1      44.953  24.451  55.369  0.00  0.00    -0.299 OA
ATOM     19  C   UNL d   1      44.658  24.621  56.661  0.00  0.00     0.119 A 
ATOM     20  C   UNL d   1      44.978  23.710  55.732  0.00  0.00     0.304 A 
ATOM     21  O   UNL d   1      44.795  23.818  56.534  0.00  0.00    -0.300 OA
ATOM     22  C   UNL d   1      44.459  25.049  57.329  0.00  0.00     0.028 A 
ATOM     23  C   UNL d   1      44.356  25.866  57.285  0.00  0.00     0.021 A 
ENDBRANCH   2  15
TORSDOF 5
ENDMDL
MODEL 6
REMARK VINA RESULT:      -5.1     10.227     11.090
REMARK  5 active torsions:
REMARK  status: ('A' for Active; 'I' for Inactive)
REMARK    1  A    between atoms: C_2  and  N_1 
REMARK    2  A    between atoms: C_5  and  C_18 
REMARK       I    between atoms: N_9  and  C_5 
REMARK    3  A    between atoms: O_15  and  C_7 
REMARK    4  A    between atoms: C_13  and  N_9 
REMARK    5  A    between atoms: C_18  and  O_15 
ROOT
ATOM      1  C   UNL d   1      45.053  28.873  58.357  0.00  0.00     0.304 C 
ATOM      2  N   UNL d   1      44.384  29.208  58.706  0.00  0.00    -0.206 NA
ATOM      3  O   UNL d   1      45.805  29.134  58.573  0.00  0.00    -0.263 OA
ENDROOT
BRANCH   1   4
ATOM      4  C   UNL d   1      44.970  28.278  57.791  0.00  0.00     0.185 C 
BRANCH   4   5
ATOM      5  O   UNL d   1      45.082  27.489  58.003  0.00  0.00    -0.298 OA
BRANCH   5   6
ATOM      6  C   UNL d   1      44.910  26.889  57.464  0.00  0.00     0.122 A 
ATOM      7  C   UNL d   1      44.850  26.100  57.730  0.00  0.00     0.149 A 
ATOM      8  C   UNL d   1      44.679  25.500  57.191  0.00  0.00     0.026 A 
ATOM      9  C   UNL d   1      44.566  25.688  56.386  0.00  0.00     0.002 A 
ATOM     10  C   UNL d   1      44.626  26.469  56.128  0.00  0.00     0.002 A 
ATOM     11  C   UNL d   1      44.798  27.069  56.667  0.00  0.00     0.026 A 
BRANCH   7  12
ATOM     12  N   UNL d   1      44.962  25.925  58.521  0.00  0.00    -0.112 N 
ATOM     13  O   UNL d   1      45.728  25.861  58.820  0.00  0.00    -0.532 OA
ATOM     14  O   UNL d   1      44.314  25.813  59.018  0.00  0.00    -0.532 OA
ENDBRANCH   7  12
ENDBRANCH   5   6
ENDBRANCH   4   5
ENDBRANCH   1   4
BRANCH   2  15
ATOM     15  C   UNL d   1      44.468  29.803  59.271  0.00  0.00     0.087 A 
ATOM     16  C   UNL d   1      44.477  29.610  60.074  0.00  0.00     0.045 A 
ATOM     17  C   UNL d   1      44.561  30.205  60.639  0.00  0.00     0.121 A 
ATOM     18  O   UNL d   1      44.589  30.181  61.463  0.00  0.00    -0.299 OA
ATOM     19  C   UNL d   1      44.636  30.992  60.402  0.00  0.00     0.119 A 
ATOM     20  C   UNL d   1      44.681  30.952  61.741  0.00  0.00     0.304 A 
ATOM     21  O   UNL d   1      44.710  31.455  61.081  0.00  0.00    -0.300 OA
ATOM     22  C   UNL d   1      44.626  31.178  59.606  0.00  0.00     0.028 A 
ATOM     23  C   UNL d   1      44.542  30.583  59.040  0.00  0.00     0.021 A 
ENDBRANCH   2  15
TORSDOF 5
ENDMDL
MODEL 7
REMARK VINA RESULT:      -5.0     11.154     11.950
REMARK  5 active torsions:
REMARK  status: ('A' for Active; 'I' for Inactive)
REMARK    1  A    between atoms: C_2  and  N_1 
REMARK    2  A    between atoms: C_5  and  C_18 
REMARK       I    between atoms: N_9  and  C_5 
REMARK    3  A    between atoms: O_15  and  C_7 
REMARK    4  A    between atoms: C_13  and  N_9 
REMARK    5  A    between atoms: C_18  and  O_15 
ROOT
ATOM      1  C   UNL d   1      44.764  25.765  56.340  0.00  0.00     0.304 C 
ATOM      2  N   UNL d   1      45.263  26.419  56.266  0.00  0.00    -0.206 NA
ATOM      3  O   UNL d   1      44.315  25.666  57.025  0.00  0.00    -0.263 OA
ENDROOT
BRANCH   1   4
ATOM      4  C   UNL d   1      44.715  25.212  55.730  0.00  0.00     0.185 C 
BRANCH   4   5
ATOM      5  O   UNL d   1      44.845  24.413  55.886  0.00  0.00    -0.298 OA
BRANCH   5   6
ATOM      6  C   UNL d   1      44.845  23.867  55.268  0.00  0.00     0.122 A 
ATOM      7  C   UNL d   1      44.947  23.056  55.434  0.00  0.00     0.149 A 
ATOM      8  C   UNL d   1      44.947  22.509  54.816  0.00  0.00     0.026 A 
ATOM      9  C   UNL d   1      44.846  22.774  54.032  0.00  0.00     0.002 A 
ATOM     10  C   UNL d   1      44.746  23.577  53.872  0.00  0.00     0.002 A 
ATOM     11  C   UNL d   1      44.745  24.123  54.490  0.00  0.00     0.026 A 
BRANCH   7  12
ATOM     12  N   UNL d   1      45.046  22.806  56.206  0.00  0.00    -0.112 N 
ATOM     13  O   UNL d   1      44.385  22.605  56.658  0.00  0.00    -0.532 OA
ATOM     14  O   UNL d   1      45.801  22.754  56.534  0.00  0.00    -0.532 OA
ENDBRANCH   7  12
ENDBRANCH   5   6
ENDBRANCH   4   5
ENDBRANCH   1   4
BRANCH   2  15
ATOM     15  C   UNL d   1      45.312  26.972  56.876  0.00  0.00     0.087 A 
ATOM     16  C   UNL d   1      44.986  27.724  56.778  0.00  0.00     0.045 A 
ATOM     17  C   UNL d   1      45.035  28.277  57.388  0.00  0.00     0.121 A 
ATOM     18  O   UNL d   1      44.767  29.054  57.449  0.00  0.00    -0.299 OA
ATOM     19  C   UNL d   1      45.410  28.078  58.096  0.00  0.00     0.119 A 
ATOM     20  C   UNL d   1      44.974  29.341  58.194  0.00  0.00     0.304 A 
ATOM     21  O   UNL d   1      45.373  28.734  58.595  0.00  0.00    -0.300 OA
ATOM     22  C   UNL d   1      45.732  27.331  58.189  0.00  0.00     0.028 A 
ATOM     23  C   UNL d   1      45.683  26.778  57.578  0.00  0.00     0.021 A 
ENDBRANCH   2  15
TORSDOF 5
ENDMDL
MODEL 8
REMARK VINA RESULT:      -4.9     10.085     11.164
REMARK  5 active torsions:
REMARK  status: ('A' for Active; 'I' for Inactive)
REMARK    1  A    between atoms: C_2  and  N_1 
REMARK    2  A    between atoms: C_5  and  C_18 
REMARK       I    between atoms: N_9  and  C_5 
REMARK    3  A    between atoms: O_15  and  C_7 
REMARK    4  A    between atoms: C_13  and  N_9 
REMARK    5  A    between atoms: C_18  and  O_15 
ROOT
ATOM      1  C   UNL d   1      44.817  30.167  59.984  0.00  0.00     0.304 C 
ATOM      2  N   UNL d   1      44.420  30.753  60.409  0.00  0.00    -0.206 NA
ATOM      3  O   UNL d   1      45.187  29.547  60.384  0.00  0.00    -0.263 OA
ENDROOT
BRANCH   1   4
ATOM      4  C   UNL d   1      44.844  30.200  59.160  0.00  0.00     0.185 C 
BRANCH   4   5
ATOM      5  O   UNL d   1      44.934  29.508  58.722  0.00  0.00    -0.298 OA
BRANCH   5   6
ATOM      6  C   UNL d   1      44.891  29.533  57.898  0.00  0.00     0.122 A 
ATOM      7  C   UNL d   1      44.977  28.828  57.459  0.00  0.00     0.149 A 
ATOM      8  C   UNL d   1      44.934  28.853  56.636  0.00  0.00     0.026 A 
ATOM      9  C   UNL d   1      44.807  29.582  56.251  0.00  0.00     0.002 A 
ATOM     10  C   UNL d   1      44.723  30.275  56.689  0.00  0.00     0.002 A 
ATOM     11  C   UNL d   1      44.765  30.251  57.513  0.00  0.00     0.026 A 
BRANCH   7  12
ATOM     12  N   UNL d   1      45.102  28.118  57.845  0.00  0.00    -0.112 N 
ATOM     13  O   UNL d   1      44.460  27.707  58.162  0.00  0.00    -0.532 OA
ATOM     14  O   UNL d   1      45.865  27.813  57.919  0.00  0.00    -0.532 OA
ENDBRANCH   7  12
ENDBRANCH   5   6
ENDBRANCH   4   5
ENDBRANCH   1   4
BRANCH   2  15
ATOM     15  C   UNL d   1      44.393  30.719  61.233  0.00  0.00     0.087 A 
ATOM     16  C   UNL d   1      44.384  31.416  61.673  0.00  0.00     0.045 A 
ATOM     17  C   UNL d   1      44.357  31.383  62.497  0.00  0.00     0.121 A 
ATOM     18  O   UNL d   1      44.343  31.973  63.072  0.00  0.00    -0.299 OA
ATOM     19  C   UNL d   1      44.339  30.651  62.880  0.00  0.00     0.119 A 
ATOM     20  C   UNL d   1      44.316  31.613  63.813  0.00  0.00     0.304 A 
ATOM     21  O   UNL d   1      44.314  30.792  63.692  0.00  0.00    -0.300 OA
ATOM     22  C   UNL d   1      44.349  29.963  62.439  0.00  0.00     0.028 A 
ATOM     23  C   UNL d   1      44.375  29.997  61.615  0.00  0.00     0.021 A 
ENDBRANCH   2  15
TORSDOF 5
ENDMDL
