MODEL 1
REMARK VINA RESULT:      42.1      0.000      0.000
REMARK  2 active torsions:
REMARK  status: ('A' for Active; 'I' for Inactive)
REMARK    1  A    between atoms: C_3  and  C_1 
REMARK       I    between atoms: N_6  and  C_3 
REMARK    2  A    between atoms: C_11  and  N_6 
ROOT
ATOM      1  C   UNL d   1     -54.837-101.822 -39.776  0.00  0.00     0.121 A 
ATOM      2  C   UNL d   1     -54.766-101.082 -39.902  0.00  0.00     0.305 A 
ATOM      3  C   UNL d   1     -54.873-102.352 -40.405  0.00  0.00     0.012 A 
ATOM      4  O   UNL d   1     -54.717-100.751 -40.725  0.00  0.00    -0.273 OA
ATOM      5  C   UNL d   1     -54.833-102.105 -41.188  0.00  0.00     0.023 A 
ATOM      6  C   UNL d   1     -54.754-101.294 -41.351  0.00  0.00     0.103 A 
ATOM      7  O   UNL d   1     -54.726-100.512 -39.273  0.00  0.00    -0.259 OA
ATOM      8  C   UNL d   1     -54.869-102.637 -41.799  0.00  0.00     0.002 A 
ATOM      9  C   UNL d   1     -54.713-101.031 -42.120  0.00  0.00     0.025 A 
ATOM     10  C   UNL d   1     -54.829-102.385 -42.584  0.00  0.00     0.000 A 
ATOM     11  C   UNL d   1     -54.750-101.574 -42.746  0.00  0.00     0.002 A 
ENDROOT
BRANCH   1  12
ATOM     12  C   UNL d   1     -54.879-102.091 -38.991  0.00  0.00     0.284 C 
ATOM     13  N   UNL d   1     -55.055-101.611 -38.456  0.00  0.00    -0.208 NA
ATOM     14  O   UNL d   1     -54.727-102.880 -38.813  0.00  0.00    -0.265 OA
BRANCH  13  15
ATOM     15  C   UNL d   1     -55.120-101.809 -37.615  0.00  0.00     0.087 A 
ATOM     16  C   UNL d   1     -54.889-101.334 -36.991  0.00  0.00     0.049 A 
ATOM     17  C   UNL d   1     -54.976-101.577 -36.210  0.00  0.00     0.142 A 
ATOM     18  F   UNL d   1     -54.743-101.100 -35.589  0.00  0.00    -0.204 F 
ATOM     19  C   UNL d   1     -55.309-102.329 -36.054  0.00  0.00     0.030 A 
ATOM     20  C   UNL d   1     -55.540-102.805 -36.687  0.00  0.00     0.004 A 
ATOM     21  C   UNL d   1     -55.454-102.564 -37.459  0.00  0.00     0.019 A 
ENDBRANCH  13  15
ENDBRANCH   1  12
TORSDOF 2
ENDMDL
MODEL 2
REMARK VINA RESULT:      42.2      2.532      5.080
REMARK  2 active torsions:
REMARK  status: ('A' for Active; 'I' for Inactive)
REMARK    1  A    between atoms: C_3  and  C_1 
REMARK       I    between atoms: N_6  and  C_3 
REMARK    2  A    between atoms: C_11  and  N_6 
ROOT
ATOM      1  C   UNL d   1     -54.775-101.454 -40.916  0.00  0.00     0.121 A 
ATOM      2  C   UNL d   1     -54.803-102.203 -40.999  0.00  0.00     0.305 A 
ATOM      3  C   UNL d   1     -54.764-101.115 -40.166  0.00  0.00     0.012 A 
ATOM      4  O   UNL d   1     -54.823-102.749 -40.298  0.00  0.00    -0.273 OA
ATOM      5  C   UNL d   1     -54.781-101.570 -39.481  0.00  0.00     0.023 A 
ATOM      6  C   UNL d   1     -54.811-102.397 -39.548  0.00  0.00     0.103 A 
ATOM      7  O   UNL d   1     -54.816-102.580 -41.760  0.00  0.00    -0.259 OA
ATOM      8  C   UNL d   1     -54.769-101.225 -38.747  0.00  0.00     0.002 A 
ATOM      9  C   UNL d   1     -54.829-102.863 -38.880  0.00  0.00     0.025 A 
ATOM     10  C   UNL d   1     -54.787-101.684 -38.062  0.00  0.00     0.000 A 
ATOM     11  C   UNL d   1     -54.817-102.512 -38.129  0.00  0.00     0.002 A 
ENDROOT
BRANCH   1  12
ATOM     12  C   UNL d   1     -54.757-100.978 -41.597  0.00  0.00     0.284 C 
ATOM     13  N   UNL d   1     -54.762-101.302 -42.262  0.00  0.00    -0.208 NA
ATOM     14  O   UNL d   1     -54.734-100.158 -41.531  0.00  0.00    -0.265 OA
BRANCH  13  15
ATOM     15  C   UNL d   1     -54.744-100.880 -43.019  0.00  0.00     0.087 A 
ATOM     16  C   UNL d   1     -54.738-101.225 -43.760  0.00  0.00     0.049 A 
ATOM     17  C   UNL d   1     -54.721-100.771 -44.446  0.00  0.00     0.142 A 
ATOM     18  F   UNL d   1     -54.715-101.119 -45.184  0.00  0.00    -0.204 F 
ATOM     19  C   UNL d   1     -54.711 -99.937 -44.379  0.00  0.00     0.030 A 
ATOM     20  C   UNL d   1     -54.718 -99.593 -43.629  0.00  0.00     0.004 A 
ATOM     21  C   UNL d   1     -54.734-100.043 -42.951  0.00  0.00     0.019 A 
ENDBRANCH  13  15
ENDBRANCH   1  12
TORSDOF 2
ENDMDL
