MODEL 1
REMARK VINA RESULT:       1.3      0.000      0.000
REMARK  5 active torsions:
REMARK  status: ('A' for Active; 'I' for Inactive)
REMARK    1  A    between atoms: C_6  and  C_1 
REMARK    2  A    between atoms: C_14  and  N_3 
REMARK    3  A    between atoms: O_9  and  C_6 
REMARK    4  A    between atoms: C_15  and  O_9 
REMARK    5  A    between atoms: C_16  and  C_14 
ROOT
ATOM      1  C   UNL d   1     -41.870-122.363 -51.268  0.00  0.00     0.120 A 
ATOM      2  C   UNL d   1     -41.622-121.588 -51.128  0.00  0.00     0.177 A 
ATOM      3  N   UNL d   1     -41.405-121.259 -51.852  0.00  0.00    -0.273 N 
ATOM      4  C   UNL d   1     -41.519-121.825 -52.440  0.00  0.00     0.167 A 
ATOM      5  C   UNL d   1     -41.805-122.504 -52.078  0.00  0.00     0.124 A 
ATOM      6  N   UNL d   1     -41.396-121.801 -53.250  0.00  0.00    -0.225 NA
ATOM      7  N   UNL d   1     -41.971-123.166 -52.534  0.00  0.00    -0.241 NA
ATOM      8  C   UNL d   1     -41.562-122.464 -53.705  0.00  0.00     0.101 A 
ATOM      9  C   UNL d   1     -41.850-123.149 -53.350  0.00  0.00     0.099 A 
ATOM     10  N   UNL d   1     -41.592-121.204 -50.397  0.00  0.00    -0.128 N 
ATOM     11  C   UNL d   1     -41.440-122.440 -54.515  0.00  0.00     0.021 A 
ATOM     12  C   UNL d   1     -42.014-123.808 -53.808  0.00  0.00     0.021 A 
ATOM     13  C   UNL d   1     -41.607-123.111 -54.979  0.00  0.00     0.002 A 
ATOM     14  C   UNL d   1     -41.892-123.785 -54.618  0.00  0.00     0.002 A 
ENDROOT
BRANCH   1  15
ATOM     15  C   UNL d   1     -42.136-122.894 -50.693  0.00  0.00     0.300 C 
ATOM     16  O   UNL d   1     -41.727-123.596 -50.569  0.00  0.00    -0.259 OA
BRANCH  15  17
ATOM     17  O   UNL d   1     -42.809-122.723 -50.242  0.00  0.00    -0.303 OA
BRANCH  17  18
ATOM     18  C   UNL d   1     -43.028-123.226 -49.641  0.00  0.00     0.102 C 
ATOM     19  C   UNL d   1     -42.766-122.684 -49.074  0.00  0.00     0.030 C 
ATOM     20  C   UNL d   1     -43.294-123.776 -50.199  0.00  0.00     0.030 C 
ATOM     21  C   UNL d   1     -43.257-123.751 -49.027  0.00  0.00     0.030 C 
ENDBRANCH  17  18
ENDBRANCH  15  17
ENDBRANCH   1  15
BRANCH   3  22
ATOM     22  C   UNL d   1     -41.124-120.496 -51.973  0.00  0.00     0.083 C 
BRANCH  22  23
ATOM     23  C   UNL d   1     -41.469-119.867 -51.564  0.00  0.00     0.019 C 
ATOM     24  C   UNL d   1     -41.129-119.113 -51.611  0.00  0.00     0.002 C 
ENDBRANCH  22  23
ENDBRANCH   3  22
TORSDOF 5
ENDMDL
MODEL 2
REMARK VINA RESULT:       3.1      1.174      3.513
REMARK  5 active torsions:
REMARK  status: ('A' for Active; 'I' for Inactive)
REMARK    1  A    between atoms: C_6  and  C_1 
REMARK    2  A    between atoms: C_14  and  N_3 
REMARK    3  A    between atoms: O_9  and  C_6 
REMARK    4  A    between atoms: C_15  and  O_9 
REMARK    5  A    between atoms: C_16  and  C_14 
ROOT
ATOM      1  C   UNL d   1     -41.705-122.006 -52.736  0.00  0.00     0.120 A 
ATOM      2  C   UNL d   1     -41.454-121.219 -52.743  0.00  0.00     0.177 A 
ATOM      3  N   UNL d   1     -41.365-120.978 -51.959  0.00  0.00    -0.273 N 
ATOM      4  C   UNL d   1     -41.559-121.610 -51.469  0.00  0.00     0.167 A 
ATOM      5  C   UNL d   1     -41.768-122.242 -51.949  0.00  0.00     0.124 A 
ATOM      6  N   UNL d   1     -41.569-121.682 -50.652  0.00  0.00    -0.225 NA
ATOM      7  N   UNL d   1     -41.989-122.954 -51.607  0.00  0.00    -0.241 NA
ATOM      8  C   UNL d   1     -41.791-122.395 -50.311  0.00  0.00     0.101 A 
ATOM      9  C   UNL d   1     -42.002-123.034 -50.786  0.00  0.00     0.099 A 
ATOM     10  N   UNL d   1     -41.315-120.751 -53.409  0.00  0.00    -0.128 N 
ATOM     11  C   UNL d   1     -41.801-122.467 -49.494  0.00  0.00     0.021 A 
ATOM     12  C   UNL d   1     -42.223-123.743 -50.441  0.00  0.00     0.021 A 
ATOM     13  C   UNL d   1     -42.026-123.189 -49.146  0.00  0.00     0.002 A 
ATOM     14  C   UNL d   1     -42.233-123.817 -49.625  0.00  0.00     0.002 A 
ENDROOT
BRANCH   1  15
ATOM     15  C   UNL d   1     -41.862-122.465 -53.405  0.00  0.00     0.300 C 
ATOM     16  O   UNL d   1     -42.610-122.788 -53.509  0.00  0.00    -0.259 OA
BRANCH  15  17
ATOM     17  O   UNL d   1     -41.271-122.601 -53.969  0.00  0.00    -0.303 OA
BRANCH  17  18
ATOM     18  C   UNL d   1     -41.392-123.157 -54.552  0.00  0.00     0.102 C 
ATOM     19  C   UNL d   1     -41.636-122.569 -55.079  0.00  0.00     0.030 C 
ATOM     20  C   UNL d   1     -41.149-123.754 -54.033  0.00  0.00     0.030 C 
ATOM     21  C   UNL d   1     -41.514-123.736 -55.147  0.00  0.00     0.030 C 
ENDBRANCH  17  18
ENDBRANCH  15  17
ENDBRANCH   1  15
BRANCH   3  22
ATOM     22  C   UNL d   1     -41.123-120.233 -51.706  0.00  0.00     0.083 C 
BRANCH  22  23
ATOM     23  C   UNL d   1     -41.313-119.570 -52.160  0.00  0.00     0.019 C 
ATOM     24  C   UNL d   1     -41.188-118.813 -51.848  0.00  0.00     0.002 C 
ENDBRANCH  22  23
ENDBRANCH   3  22
TORSDOF 5
ENDMDL
