MODEL 1
REMARK VINA RESULT:      -1.7      0.000      0.000
REMARK  4 active torsions:
REMARK  status: ('A' for Active; 'I' for Inactive)
REMARK    1  A    between atoms: C_13  and  N_3 
REMARK    2  A    between atoms: C_11  and  C_6 
REMARK    3  A    between atoms: O_22  and  C_11 
REMARK    4  A    between atoms: C_21  and  C_13 
ROOT
ATOM      1  C   UNL d   1      33.194  20.265 -22.908  0.00  0.00     0.155 A 
ATOM      2  C   UNL d   1      33.170  20.357 -23.726  0.00  0.00     0.091 A 
ATOM      3  N   UNL d   1      33.216  20.926 -22.420  0.00  0.00    -0.274 N 
ATOM      4  N   UNL d   1      33.196  19.509 -22.579  0.00  0.00    -0.210 NA
ATOM      5  N   UNL d   1      33.149  18.940 -23.888  0.00  0.00    -0.258 N 
ATOM      6  C   UNL d   1      33.191  21.777 -23.559  0.00  0.00     0.100 A 
ATOM      7  C   UNL d   1      33.173  18.840 -23.068  0.00  0.00     0.152 A 
ATOM      8  C   UNL d   1      33.215  21.677 -22.743  0.00  0.00     0.175 A 
ATOM      9  C   UNL d   1      33.147  19.698 -24.226  0.00  0.00     0.269 A 
ATOM     10  C   UNL d   1      33.168  21.118 -24.059  0.00  0.00     0.016 A 
ATOM     11  C   UNL d   1      33.174  18.088 -22.741  0.00  0.00     0.035 A 
ATOM     12  C   UNL d   1      33.126  18.273 -24.385  0.00  0.00     0.084 A 
ATOM     13  N   UNL d   1      33.238  22.345 -22.249  0.00  0.00    -0.128 N 
ATOM     14  O   UNL d   1      33.122  19.789 -25.044  0.00  0.00    -0.266 OA
ATOM     15  C   UNL d   1      33.128  17.519 -24.047  0.00  0.00     0.019 A 
ATOM     16  C   UNL d   1      33.152  17.427 -23.226  0.00  0.00     0.005 A 
ATOM     17  C   UNL d   1      33.199  18.004 -21.919  0.00  0.00     0.003 C 
ENDROOT
BRANCH   3  18
ATOM     18  C   UNL d   1      33.241  20.830 -21.603  0.00  0.00     0.084 C 
BRANCH  18  19
ATOM     19  C   UNL d   1      32.732  21.270 -21.119  0.00  0.00     0.037 A 
ATOM     20  C   UNL d   1      31.931  21.115 -21.129  0.00  0.00     0.100 A 
ATOM     21  N   UNL d   1      31.419  21.549 -20.649  0.00  0.00    -0.242 NA
ATOM     22  C   UNL d   1      31.726  22.138 -20.163  0.00  0.00     0.099 A 
ATOM     23  C   UNL d   1      32.537  22.294 -20.153  0.00  0.00     0.021 A 
ATOM     24  C   UNL d   1      33.038  21.855 -20.635  0.00  0.00     0.005 A 
ENDBRANCH  18  19
ENDBRANCH   3  18
BRANCH   6  25
ATOM     25  C   UNL d   1      33.189  22.533 -23.888  0.00  0.00     0.299 C 
ATOM     26  O   UNL d   1      33.135  23.205 -23.400  0.00  0.00    -0.259 OA
BRANCH  25  27
ATOM     27  O   UNL d   1      33.241  22.628 -24.702  0.00  0.00    -0.296 OA
ATOM     28  C   UNL d   1      33.200  23.381 -25.039  0.00  0.00     0.185 C 
ENDBRANCH  25  27
ENDBRANCH   6  25
TORSDOF 4
ENDMDL
MODEL 2
REMARK VINA RESULT:      -0.4      1.526      3.029
REMARK  4 active torsions:
REMARK  status: ('A' for Active; 'I' for Inactive)
REMARK    1  A    between atoms: C_13  and  N_3 
REMARK    2  A    between atoms: C_11  and  C_6 
REMARK    3  A    between atoms: O_22  and  C_11 
REMARK    4  A    between atoms: C_21  and  C_13 
ROOT
ATOM      1  C   UNL d   1      33.075  21.435 -22.746  0.00  0.00     0.155 A 
ATOM      2  C   UNL d   1      32.980  21.082 -22.008  0.00  0.00     0.091 A 
ATOM      3  N   UNL d   1      33.146  22.251 -22.806  0.00  0.00    -0.274 N 
ATOM      4  N   UNL d   1      33.099  20.968 -23.426  0.00  0.00    -0.210 NA
ATOM      5  N   UNL d   1      32.932  19.797 -22.624  0.00  0.00    -0.258 N 
ATOM      6  C   UNL d   1      33.029  22.373 -21.394  0.00  0.00     0.100 A 
ATOM      7  C   UNL d   1      33.027  20.144 -23.369  0.00  0.00     0.152 A 
ATOM      8  C   UNL d   1      33.123  22.718 -22.135  0.00  0.00     0.175 A 
ATOM      9  C   UNL d   1      32.908  20.261 -21.937  0.00  0.00     0.269 A 
ATOM     10  C   UNL d   1      32.956  21.551 -21.323  0.00  0.00     0.016 A 
ATOM     11  C   UNL d   1      33.051  19.679 -24.044  0.00  0.00     0.035 A 
ATOM     12  C   UNL d   1      32.860  18.970 -22.560  0.00  0.00     0.084 A 
ATOM     13  N   UNL d   1      33.195  23.543 -22.196  0.00  0.00    -0.128 N 
ATOM     14  O   UNL d   1      32.813  19.908 -21.200  0.00  0.00    -0.266 OA
ATOM     15  C   UNL d   1      32.884  18.510 -23.246  0.00  0.00     0.019 A 
ATOM     16  C   UNL d   1      32.980  18.864 -23.987  0.00  0.00     0.005 A 
ATOM     17  C   UNL d   1      33.146  20.040 -24.781  0.00  0.00     0.003 C 
ENDROOT
BRANCH   3  18
ATOM     18  C   UNL d   1      33.241  22.600 -23.546  0.00  0.00     0.084 C 
BRANCH  18  19
ATOM     19  C   UNL d   1      32.599  22.970 -23.915  0.00  0.00     0.037 A 
ATOM     20  C   UNL d   1      31.962  23.216 -23.467  0.00  0.00     0.100 A 
ATOM     21  N   UNL d   1      31.319  23.585 -23.828  0.00  0.00    -0.242 NA
ATOM     22  C   UNL d   1      31.328  23.702 -24.642  0.00  0.00     0.099 A 
ATOM     23  C   UNL d   1      31.972  23.454 -25.096  0.00  0.00     0.021 A 
ATOM     24  C   UNL d   1      32.607  23.087 -24.725  0.00  0.00     0.005 A 
ENDBRANCH  18  19
ENDBRANCH   3  18
BRANCH   6  25
ATOM     25  C   UNL d   1      33.005  22.840 -20.715  0.00  0.00     0.299 C 
ATOM     26  O   UNL d   1      32.952  23.668 -20.775  0.00  0.00    -0.259 OA
BRANCH  25  27
ATOM     27  O   UNL d   1      33.034  22.490 -19.973  0.00  0.00    -0.296 OA
ATOM     28  C   UNL d   1      33.040  22.955 -19.290  0.00  0.00     0.185 C 
ENDBRANCH  25  27
ENDBRANCH   6  25
TORSDOF 4
ENDMDL
MODEL 3
REMARK VINA RESULT:       1.0      1.357      3.998
REMARK  4 active torsions:
REMARK  status: ('A' for Active; 'I' for Inactive)
REMARK    1  A    between atoms: C_13  and  N_3 
REMARK    2  A    between atoms: C_11  and  C_6 
REMARK    3  A    between atoms: O_22  and  C_11 
REMARK    4  A    between atoms: C_21  and  C_13 
ROOT
ATOM      1  C   UNL d   1      32.809  21.697 -22.277  0.00  0.00     0.155 A 
ATOM      2  C   UNL d   1      32.591  20.965 -21.971  0.00  0.00     0.091 A 
ATOM      3  N   UNL d   1      33.024  21.766 -23.067  0.00  0.00    -0.274 N 
ATOM      4  N   UNL d   1      32.811  22.363 -21.790  0.00  0.00    -0.210 NA
ATOM      5  N   UNL d   1      32.377  21.558 -20.692  0.00  0.00    -0.258 N 
ATOM      6  C   UNL d   1      32.807  20.374 -23.255  0.00  0.00     0.100 A 
ATOM      7  C   UNL d   1      32.594  22.297 -20.992  0.00  0.00     0.152 A 
ATOM      8  C   UNL d   1      33.023  21.109 -23.554  0.00  0.00     0.175 A 
ATOM      9  C   UNL d   1      32.373  20.885 -21.177  0.00  0.00     0.269 A 
ATOM     10  C   UNL d   1      32.589  20.294 -22.461  0.00  0.00     0.016 A 
ATOM     11  C   UNL d   1      32.596  22.958 -20.507  0.00  0.00     0.035 A 
ATOM     12  C   UNL d   1      32.158  21.485 -19.892  0.00  0.00     0.084 A 
ATOM     13  N   UNL d   1      33.241  21.179 -24.353  0.00  0.00    -0.128 N 
ATOM     14  O   UNL d   1      32.155  20.152 -20.871  0.00  0.00    -0.266 OA
ATOM     15  C   UNL d   1      32.163  22.156 -19.411  0.00  0.00     0.019 A 
ATOM     16  C   UNL d   1      32.382  22.892 -19.718  0.00  0.00     0.005 A 
ATOM     17  C   UNL d   1      32.816  23.690 -20.821  0.00  0.00     0.003 C 
ENDROOT
BRANCH   3  18
ATOM     18  C   UNL d   1      33.241  22.501 -23.369  0.00  0.00     0.084 C 
BRANCH  18  19
ATOM     19  C   UNL d   1      32.733  22.903 -23.885  0.00  0.00     0.037 A 
ATOM     20  C   UNL d   1      31.934  22.938 -23.720  0.00  0.00     0.100 A 
ATOM     21  N   UNL d   1      31.423  23.337 -24.229  0.00  0.00    -0.242 NA
ATOM     22  C   UNL d   1      31.728  23.699 -24.903  0.00  0.00     0.099 A 
ATOM     23  C   UNL d   1      32.536  23.664 -25.069  0.00  0.00     0.021 A 
ATOM     24  C   UNL d   1      33.036  23.263 -24.555  0.00  0.00     0.005 A 
ENDBRANCH  18  19
ENDBRANCH   3  18
BRANCH   6  25
ATOM     25  C   UNL d   1      32.805  19.709 -23.743  0.00  0.00     0.299 C 
ATOM     26  O   UNL d   1      32.381  19.712 -24.459  0.00  0.00    -0.259 OA
BRANCH  25  27
ATOM     27  O   UNL d   1      33.223  19.037 -23.525  0.00  0.00    -0.296 OA
ATOM     28  C   UNL d   1      33.122  18.328 -23.937  0.00  0.00     0.185 C 
ENDBRANCH  25  27
ENDBRANCH   6  25
TORSDOF 4
ENDMDL
MODEL 4
REMARK VINA RESULT:       1.3      2.714      4.603
REMARK  4 active torsions:
REMARK  status: ('A' for Active; 'I' for Inactive)
REMARK    1  A    between atoms: C_13  and  N_3 
REMARK    2  A    between atoms: C_11  and  C_6 
REMARK    3  A    between atoms: O_22  and  C_11 
REMARK    4  A    between atoms: C_21  and  C_13 
ROOT
ATOM      1  C   UNL d   1      31.138  17.514 -24.646  0.00  0.00     0.155 A 
ATOM      2  C   UNL d   1      30.769  18.248 -24.699  0.00  0.00     0.091 A 
ATOM      3  N   UNL d   1      31.958  17.466 -24.613  0.00  0.00    -0.274 N 
ATOM      4  N   UNL d   1      30.684  16.825 -24.626  0.00  0.00    -0.210 NA
ATOM      5  N   UNL d   1      29.494  17.611 -24.712  0.00  0.00    -0.258 N 
ATOM      6  C   UNL d   1      32.051  18.883 -24.686  0.00  0.00     0.100 A 
ATOM      7  C   UNL d   1      29.857  16.870 -24.659  0.00  0.00     0.152 A 
ATOM      8  C   UNL d   1      32.412  18.145 -24.633  0.00  0.00     0.175 A 
ATOM      9  C   UNL d   1      29.944  18.307 -24.733  0.00  0.00     0.269 A 
ATOM     10  C   UNL d   1      31.226  18.942 -24.720  0.00  0.00     0.016 A 
ATOM     11  C   UNL d   1      29.404  16.187 -24.639  0.00  0.00     0.035 A 
ATOM     12  C   UNL d   1      28.663  17.663 -24.746  0.00  0.00     0.084 A 
ATOM     13  N   UNL d   1      33.241  18.097 -24.599  0.00  0.00    -0.128 N 
ATOM     14  O   UNL d   1      29.576  19.041 -24.787  0.00  0.00    -0.266 OA
ATOM     15  C   UNL d   1      28.216  16.969 -24.725  0.00  0.00     0.019 A 
ATOM     16  C   UNL d   1      28.586  16.231 -24.671  0.00  0.00     0.005 A 
ATOM     17  C   UNL d   1      29.782  15.453 -24.585  0.00  0.00     0.003 C 
ENDROOT
BRANCH   3  18
ATOM     18  C   UNL d   1      32.322  16.730 -24.560  0.00  0.00     0.084 C 
BRANCH  18  19
ATOM     19  C   UNL d   1      32.631  16.472 -23.836  0.00  0.00     0.037 A 
ATOM     20  C   UNL d   1      32.632  16.976 -23.194  0.00  0.00     0.100 A 
ATOM     21  N   UNL d   1      32.938  16.726 -22.471  0.00  0.00    -0.242 NA
ATOM     22  C   UNL d   1      33.241  15.963 -22.404  0.00  0.00     0.099 A 
ATOM     23  C   UNL d   1      33.240  15.453 -23.054  0.00  0.00     0.021 A 
ATOM     24  C   UNL d   1      32.933  15.713 -23.770  0.00  0.00     0.005 A 
ENDBRANCH  18  19
ENDBRANCH   3  18
BRANCH   6  25
ATOM     25  C   UNL d   1      32.505  19.571 -24.706  0.00  0.00     0.299 C 
ATOM     26  O   UNL d   1      33.240  19.579 -25.097  0.00  0.00    -0.259 OA
BRANCH  25  27
ATOM     27  O   UNL d   1      32.235  20.254 -24.340  0.00  0.00    -0.296 OA
ATOM     28  C   UNL d   1      32.709  20.930 -24.312  0.00  0.00     0.185 C 
ENDBRANCH  25  27
ENDBRANCH   6  25
TORSDOF 4
ENDMDL
