MODEL 1
REMARK VINA RESULT:      -3.4      0.000      0.000
REMARK  0 active torsions:
REMARK  status: ('A' for Active; 'I' for Inactive)
ROOT
ATOM      1  C   UNL d   1      30.546  17.327 -24.481  0.00  0.00     0.180 A 
ATOM      2  C   UNL d   1      31.017  16.857 -23.983  0.00  0.00     0.118 A 
ATOM      3  N   UNL d   1      30.677  16.275 -23.518  0.00  0.00    -0.241 NA
ATOM      4  N   UNL d   1      31.041  17.857 -24.875  0.00  0.00    -0.225 NA
ATOM      5  N   UNL d   1      29.732  17.202 -24.503  0.00  0.00    -0.224 NA
ATOM      6  C   UNL d   1      31.802  17.104 -24.075  0.00  0.00     0.038 A 
ATOM      7  C   UNL d   1      31.820  17.721 -24.625  0.00  0.00     0.085 A 
ATOM      8  C   UNL d   1      29.864  16.156 -23.545  0.00  0.00     0.099 A 
ATOM      9  C   UNL d   1      29.393  16.620 -24.038  0.00  0.00     0.101 A 
ATOM     10  C   UNL d   1      32.505  16.842 -23.726  0.00  0.00     0.003 A 
ATOM     11  C   UNL d   1      32.541  18.083 -24.831  0.00  0.00     0.019 A 
ATOM     12  C   UNL d   1      29.516  15.574 -23.080  0.00  0.00     0.021 A 
ATOM     13  C   UNL d   1      28.583  16.499 -24.062  0.00  0.00     0.021 A 
ATOM     14  C   UNL d   1      33.223  17.203 -23.931  0.00  0.00     0.000 A 
ATOM     15  C   UNL d   1      33.241  17.820 -24.481  0.00  0.00     0.002 A 
ATOM     16  C   UNL d   1      28.705  15.453 -23.105  0.00  0.00     0.002 A 
ATOM     17  C   UNL d   1      28.235  15.917 -23.597  0.00  0.00     0.002 A 
ENDROOT
TORSDOF 0
ENDMDL
MODEL 2
REMARK VINA RESULT:      -3.4      0.526      3.645
REMARK  0 active torsions:
REMARK  status: ('A' for Active; 'I' for Inactive)
ROOT
ATOM      1  C   UNL d   1      31.104  16.338 -23.599  0.00  0.00     0.180 A 
ATOM      2  C   UNL d   1      30.564  16.794 -24.035  0.00  0.00     0.118 A 
ATOM      3  N   UNL d   1      30.826  17.409 -24.508  0.00  0.00    -0.241 NA
ATOM      4  N   UNL d   1      30.679  15.766 -23.182  0.00  0.00    -0.225 NA
ATOM      5  N   UNL d   1      31.908  16.510 -23.645  0.00  0.00    -0.224 NA
ATOM      6  C   UNL d   1      29.806  16.497 -23.882  0.00  0.00     0.038 A 
ATOM      7  C   UNL d   1      29.874  15.863 -23.356  0.00  0.00     0.085 A 
ATOM      8  C   UNL d   1      31.631  17.576 -24.549  0.00  0.00     0.099 A 
ATOM      9  C   UNL d   1      32.170  17.126 -24.117  0.00  0.00     0.101 A 
ATOM     10  C   UNL d   1      29.060  16.727 -24.158  0.00  0.00     0.003 A 
ATOM     11  C   UNL d   1      29.196  15.453 -23.100  0.00  0.00     0.019 A 
ATOM     12  C   UNL d   1      31.901  18.192 -25.021  0.00  0.00     0.021 A 
ATOM     13  C   UNL d   1      32.971  17.295 -24.161  0.00  0.00     0.021 A 
ATOM     14  C   UNL d   1      28.386  16.318 -23.902  0.00  0.00     0.000 A 
ATOM     15  C   UNL d   1      28.453  15.684 -23.376  0.00  0.00     0.002 A 
ATOM     16  C   UNL d   1      32.702  18.361 -25.065  0.00  0.00     0.002 A 
ATOM     17  C   UNL d   1      33.241  17.911 -24.633  0.00  0.00     0.002 A 
ENDROOT
TORSDOF 0
ENDMDL
MODEL 3
REMARK VINA RESULT:      -3.2      7.487      8.211
REMARK  0 active torsions:
REMARK  status: ('A' for Active; 'I' for Inactive)
ROOT
ATOM      1  C   UNL d   1      32.537  23.324 -19.415  0.00  0.00     0.180 A 
ATOM      2  C   UNL d   1      32.872  22.564 -19.440  0.00  0.00     0.118 A 
ATOM      3  N   UNL d   1      33.105  22.190 -18.750  0.00  0.00    -0.241 NA
ATOM      4  N   UNL d   1      32.360  23.552 -20.189  0.00  0.00    -0.225 NA
ATOM      5  N   UNL d   1      32.443  23.700 -18.688  0.00  0.00    -0.224 NA
ATOM      6  C   UNL d   1      32.897  22.328 -20.233  0.00  0.00     0.038 A 
ATOM      7  C   UNL d   1      32.582  22.936 -20.698  0.00  0.00     0.085 A 
ATOM      8  C   UNL d   1      33.008  22.571 -18.028  0.00  0.00     0.099 A 
ATOM      9  C   UNL d   1      32.677  23.326 -17.998  0.00  0.00     0.101 A 
ATOM     10  C   UNL d   1      33.169  21.633 -20.592  0.00  0.00     0.003 A 
ATOM     11  C   UNL d   1      32.536  22.854 -21.525  0.00  0.00     0.019 A 
ATOM     12  C   UNL d   1      33.241  22.202 -17.332  0.00  0.00     0.021 A 
ATOM     13  C   UNL d   1      32.582  23.702 -17.277  0.00  0.00     0.021 A 
ATOM     14  C   UNL d   1      33.123  21.554 -21.416  0.00  0.00     0.000 A 
ATOM     15  C   UNL d   1      32.808  22.161 -21.880  0.00  0.00     0.002 A 
ATOM     16  C   UNL d   1      33.145  22.579 -16.609  0.00  0.00     0.002 A 
ATOM     17  C   UNL d   1      32.814  23.333 -16.581  0.00  0.00     0.002 A 
ENDROOT
TORSDOF 0
ENDMDL
MODEL 4
REMARK VINA RESULT:      -3.1      4.245      5.482
REMARK  0 active torsions:
REMARK  status: ('A' for Active; 'I' for Inactive)
ROOT
ATOM      1  C   UNL d   1      33.210  20.257 -21.386  0.00  0.00     0.180 A 
ATOM      2  C   UNL d   1      33.210  20.827 -21.991  0.00  0.00     0.118 A 
ATOM      3  N   UNL d   1      33.217  20.599 -22.777  0.00  0.00    -0.241 NA
ATOM      4  N   UNL d   1      33.202  20.653 -20.661  0.00  0.00    -0.225 NA
ATOM      5  N   UNL d   1      33.218  19.458 -21.584  0.00  0.00    -0.224 NA
ATOM      6  C   UNL d   1      33.202  21.573 -21.631  0.00  0.00     0.038 A 
ATOM      7  C   UNL d   1      33.197  21.468 -20.810  0.00  0.00     0.085 A 
ATOM      8  C   UNL d   1      33.225  19.798 -22.967  0.00  0.00     0.099 A 
ATOM      9  C   UNL d   1      33.225  19.229 -22.371  0.00  0.00     0.101 A 
ATOM     10  C   UNL d   1      33.198  22.337 -21.950  0.00  0.00     0.003 A 
ATOM     11  C   UNL d   1      33.188  22.127 -20.301  0.00  0.00     0.019 A 
ATOM     12  C   UNL d   1      33.232  19.562 -23.755  0.00  0.00     0.021 A 
ATOM     13  C   UNL d   1      33.233  18.434 -22.565  0.00  0.00     0.021 A 
ATOM     14  C   UNL d   1      33.189  22.992 -21.441  0.00  0.00     0.000 A 
ATOM     15  C   UNL d   1      33.184  22.888 -20.622  0.00  0.00     0.002 A 
ATOM     16  C   UNL d   1      33.240  18.765 -23.949  0.00  0.00     0.002 A 
ATOM     17  C   UNL d   1      33.240  18.197 -23.352  0.00  0.00     0.002 A 
ENDROOT
TORSDOF 0
ENDMDL
MODEL 5
REMARK VINA RESULT:      -3.1      4.536      5.966
REMARK  0 active torsions:
REMARK  status: ('A' for Active; 'I' for Inactive)
ROOT
ATOM      1  C   UNL d   1      33.223  20.435 -21.324  0.00  0.00     0.180 A 
ATOM      2  C   UNL d   1      33.219  20.703 -22.111  0.00  0.00     0.118 A 
ATOM      3  N   UNL d   1      33.210  21.505 -22.276  0.00  0.00    -0.241 NA
ATOM      4  N   UNL d   1      33.232  19.609 -21.336  0.00  0.00    -0.225 NA
ATOM      5  N   UNL d   1      33.218  20.983 -20.710  0.00  0.00    -0.224 NA
ATOM      6  C   UNL d   1      33.225  20.037 -22.602  0.00  0.00     0.038 A 
ATOM      7  C   UNL d   1      33.233  19.360 -22.126  0.00  0.00     0.085 A 
ATOM      8  C   UNL d   1      33.205  22.048 -21.657  0.00  0.00     0.099 A 
ATOM      9  C   UNL d   1      33.209  21.785 -20.875  0.00  0.00     0.101 A 
ATOM     10  C   UNL d   1      33.225  19.962 -23.427  0.00  0.00     0.003 A 
ATOM     11  C   UNL d   1      33.241  18.602 -22.471  0.00  0.00     0.019 A 
ATOM     12  C   UNL d   1      33.196  22.854 -21.815  0.00  0.00     0.021 A 
ATOM     13  C   UNL d   1      33.204  22.328 -20.262  0.00  0.00     0.021 A 
ATOM     14  C   UNL d   1      33.233  19.207 -23.768  0.00  0.00     0.000 A 
ATOM     15  C   UNL d   1      33.241  18.531 -23.294  0.00  0.00     0.002 A 
ATOM     16  C   UNL d   1      33.191  23.398 -21.201  0.00  0.00     0.002 A 
ATOM     17  C   UNL d   1      33.195  23.135 -20.420  0.00  0.00     0.002 A 
ENDROOT
TORSDOF 0
ENDMDL
MODEL 6
REMARK VINA RESULT:      -3.0      5.245      6.277
REMARK  0 active torsions:
REMARK  status: ('A' for Active; 'I' for Inactive)
ROOT
ATOM      1  C   UNL d   1      33.190  22.003 -21.923  0.00  0.00     0.180 A 
ATOM      2  C   UNL d   1      33.162  21.649 -21.171  0.00  0.00     0.118 A 
ATOM      3  N   UNL d   1      33.160  20.834 -21.096  0.00  0.00    -0.241 NA
ATOM      4  N   UNL d   1      33.185  22.822 -21.821  0.00  0.00    -0.225 NA
ATOM      5  N   UNL d   1      33.217  21.525 -22.593  0.00  0.00    -0.224 NA
ATOM      6  C   UNL d   1      33.140  22.258 -20.610  0.00  0.00     0.038 A 
ATOM      7  C   UNL d   1      33.154  22.983 -21.008  0.00  0.00     0.085 A 
ATOM      8  C   UNL d   1      33.187  20.363 -21.770  0.00  0.00     0.099 A 
ATOM      9  C   UNL d   1      33.215  20.710 -22.517  0.00  0.00     0.101 A 
ATOM     10  C   UNL d   1      33.108  22.241 -19.783  0.00  0.00     0.003 A 
ATOM     11  C   UNL d   1      33.137  23.698 -20.582  0.00  0.00     0.019 A 
ATOM     12  C   UNL d   1      33.185  19.544 -21.701  0.00  0.00     0.021 A 
ATOM     13  C   UNL d   1      33.241  20.238 -23.186  0.00  0.00     0.021 A 
ATOM     14  C   UNL d   1      33.091  22.955 -19.360  0.00  0.00     0.000 A 
ATOM     15  C   UNL d   1      33.105  23.679 -19.757  0.00  0.00     0.002 A 
ATOM     16  C   UNL d   1      33.211  19.071 -22.371  0.00  0.00     0.002 A 
ATOM     17  C   UNL d   1      33.239  19.419 -23.118  0.00  0.00     0.002 A 
ENDROOT
TORSDOF 0
ENDMDL
MODEL 7
REMARK VINA RESULT:      -3.0      5.308      6.446
REMARK  0 active torsions:
REMARK  status: ('A' for Active; 'I' for Inactive)
ROOT
ATOM      1  C   UNL d   1      33.142  21.815 -21.863  0.00  0.00     0.180 A 
ATOM      2  C   UNL d   1      33.145  21.197 -21.308  0.00  0.00     0.118 A 
ATOM      3  N   UNL d   1      33.120  21.358 -20.506  0.00  0.00    -0.241 NA
ATOM      4  N   UNL d   1      33.171  21.483 -22.618  0.00  0.00    -0.225 NA
ATOM      5  N   UNL d   1      33.113  22.595 -21.598  0.00  0.00    -0.224 NA
ATOM      6  C   UNL d   1      33.176  20.484 -21.729  0.00  0.00     0.038 A 
ATOM      7  C   UNL d   1      33.192  20.658 -22.538  0.00  0.00     0.085 A 
ATOM      8  C   UNL d   1      33.091  22.139 -20.249  0.00  0.00     0.099 A 
ATOM      9  C   UNL d   1      33.087  22.756 -20.795  0.00  0.00     0.101 A 
ATOM     10  C   UNL d   1      33.192  19.696 -21.475  0.00  0.00     0.003 A 
ATOM     11  C   UNL d   1      33.224  20.045 -23.100  0.00  0.00     0.019 A 
ATOM     12  C   UNL d   1      33.065  22.308 -19.445  0.00  0.00     0.021 A 
ATOM     13  C   UNL d   1      33.058  23.532 -20.535  0.00  0.00     0.021 A 
ATOM     14  C   UNL d   1      33.224  19.087 -22.037  0.00  0.00     0.000 A 
ATOM     15  C   UNL d   1      33.240  19.260 -22.845  0.00  0.00     0.002 A 
ATOM     16  C   UNL d   1      33.036  23.085 -19.184  0.00  0.00     0.002 A 
ATOM     17  C   UNL d   1      33.033  23.701 -19.731  0.00  0.00     0.002 A 
ENDROOT
TORSDOF 0
ENDMDL
MODEL 8
REMARK VINA RESULT:      -2.9      3.795      5.211
REMARK  0 active torsions:
REMARK  status: ('A' for Active; 'I' for Inactive)
ROOT
ATOM      1  C   UNL d   1      33.232  20.492 -22.975  0.00  0.00     0.180 A 
ATOM      2  C   UNL d   1      33.231  19.901 -22.390  0.00  0.00     0.118 A 
ATOM      3  N   UNL d   1      33.227  20.102 -21.596  0.00  0.00    -0.241 NA
ATOM      4  N   UNL d   1      33.236  20.122 -23.713  0.00  0.00    -0.225 NA
ATOM      5  N   UNL d   1      33.230  21.284 -22.748  0.00  0.00    -0.224 NA
ATOM      6  C   UNL d   1      33.234  19.169 -22.776  0.00  0.00     0.038 A 
ATOM      7  C   UNL d   1      33.237  19.302 -23.592  0.00  0.00     0.085 A 
ATOM      8  C   UNL d   1      33.224  20.895 -21.378  0.00  0.00     0.099 A 
ATOM      9  C   UNL d   1      33.226  21.485 -21.955  0.00  0.00     0.101 A 
ATOM     10  C   UNL d   1      33.234  18.393 -22.484  0.00  0.00     0.003 A 
ATOM     11  C   UNL d   1      33.241  18.661 -24.124  0.00  0.00     0.019 A 
ATOM     12  C   UNL d   1      33.221  21.104 -20.583  0.00  0.00     0.021 A 
ATOM     13  C   UNL d   1      33.223  22.273 -21.733  0.00  0.00     0.021 A 
ATOM     14  C   UNL d   1      33.238  17.757 -23.015  0.00  0.00     0.000 A 
ATOM     15  C   UNL d   1      33.241  17.890 -23.830  0.00  0.00     0.002 A 
ATOM     16  C   UNL d   1      33.218  21.894 -20.361  0.00  0.00     0.002 A 
ATOM     17  C   UNL d   1      33.219  22.482 -20.938  0.00  0.00     0.002 A 
ENDROOT
TORSDOF 0
ENDMDL
MODEL 9
REMARK VINA RESULT:      -2.9      3.331      4.561
REMARK  0 active torsions:
REMARK  status: ('A' for Active; 'I' for Inactive)
ROOT
ATOM      1  C   UNL d   1      33.240  20.105 -23.076  0.00  0.00     0.180 A 
ATOM      2  C   UNL d   1      33.239  19.752 -22.323  0.00  0.00     0.118 A 
ATOM      3  N   UNL d   1      33.238  18.937 -22.246  0.00  0.00    -0.241 NA
ATOM      4  N   UNL d   1      33.241  20.924 -22.975  0.00  0.00    -0.225 NA
ATOM      5  N   UNL d   1      33.240  19.626 -23.746  0.00  0.00    -0.224 NA
ATOM      6  C   UNL d   1      33.239  20.362 -21.763  0.00  0.00     0.038 A 
ATOM      7  C   UNL d   1      33.241  21.086 -22.162  0.00  0.00     0.085 A 
ATOM      8  C   UNL d   1      33.238  18.465 -22.920  0.00  0.00     0.099 A 
ATOM      9  C   UNL d   1      33.239  18.811 -23.669  0.00  0.00     0.101 A 
ATOM     10  C   UNL d   1      33.239  20.347 -20.935  0.00  0.00     0.003 A 
ATOM     11  C   UNL d   1      33.241  21.802 -21.737  0.00  0.00     0.019 A 
ATOM     12  C   UNL d   1      33.237  17.646 -22.850  0.00  0.00     0.021 A 
ATOM     13  C   UNL d   1      33.239  18.337 -24.337  0.00  0.00     0.021 A 
ATOM     14  C   UNL d   1      33.239  21.061 -20.513  0.00  0.00     0.000 A 
ATOM     15  C   UNL d   1      33.240  21.784 -20.912  0.00  0.00     0.002 A 
ATOM     16  C   UNL d   1      33.237  17.172 -23.519  0.00  0.00     0.002 A 
ATOM     17  C   UNL d   1      33.238  17.518 -24.267  0.00  0.00     0.002 A 
ENDROOT
TORSDOF 0
ENDMDL
