MODEL 1
REMARK VINA RESULT:      42.3      0.000      0.000
REMARK  3 active torsions:
REMARK  status: ('A' for Active; 'I' for Inactive)
REMARK    1  A    between atoms: S_10  and  C_7 
REMARK    2  A    between atoms: C_13  and  S_10 
REMARK    3  A    between atoms: C_12  and  C_13 
ROOT
ATOM      1  N   UNL d   1      57.698  49.331  50.271  0.00  0.00    -0.167 N 
ATOM      2  C   UNL d   1      57.283  49.379  50.976  0.00  0.00     0.220 A 
ATOM      3  C   UNL d   1      57.304  49.184  49.552  0.00  0.00     0.301 A 
ATOM      4  S   UNL d   1      57.823  49.526  51.578  0.00  0.00    -0.019 SA
ATOM      5  N   UNL d   1      58.490  49.447  50.435  0.00  0.00    -0.147 NA
ATOM      6  N   UNL d   1      56.459  49.280  50.970  0.00  0.00    -0.121 NA
ATOM      7  C   UNL d   1      58.568  49.568  51.237  0.00  0.00     0.163 A 
ATOM      8  N   UNL d   1      56.064  49.136  50.270  0.00  0.00    -0.141 NA
ATOM      9  C   UNL d   1      56.485  49.089  49.564  0.00  0.00     0.161 A 
ATOM     10  O   UNL d   1      57.723  49.137  48.849  0.00  0.00    -0.263 OA
ATOM     11  C   UNL d   1      56.092  48.943  48.851  0.00  0.00     0.028 C 
ENDROOT
BRANCH   7  12
ATOM     12  S   UNL d   1      59.277  49.708  51.640  0.00  0.00    -0.059 SA
BRANCH  12  13
ATOM     13  C   UNL d   1      59.992  49.657  51.237  0.00  0.00     0.038 C 
BRANCH  13  14
ATOM     14  C   UNL d   1      60.663  49.569  51.703  0.00  0.00     0.017 A 
ATOM     15  C   UNL d   1      61.407  49.488  51.349  0.00  0.00     0.058 A 
ATOM     16 CL   UNL d   1      61.474  49.496  50.529  0.00  0.00    -0.082 Cl
ATOM     17  C   UNL d   1      62.077  49.401  51.804  0.00  0.00     0.011 A 
ATOM     18  C   UNL d   1      62.019  49.392  52.633  0.00  0.00     0.001 A 
ATOM     19  C   UNL d   1      61.287  49.471  52.992  0.00  0.00     0.000 A 
ATOM     20  C   UNL d   1      60.605  49.560  52.534  0.00  0.00     0.001 A 
ENDBRANCH  13  14
ENDBRANCH  12  13
ENDBRANCH   7  12
TORSDOF 3
ENDMDL
