MODEL 1
REMARK VINA RESULT:      -5.3      0.000      0.000
REMARK  5 active torsions:
REMARK  status: ('A' for Active; 'I' for Inactive)
REMARK    1  A    between atoms: C_9  and  N_2 
REMARK    2  A    between atoms: C_7  and  O_10 
REMARK    3  A    between atoms: C_11  and  C_9 
REMARK    4  A    between atoms: O_10  and  C_14 
REMARK    5  A    between atoms: C_14  and  C_11 
ROOT
ATOM      1  C   UNL d   1     -41.697-122.325 -50.554  0.00  0.00     0.086 C 
ENDROOT
BRANCH   1   2
ATOM      2  N   UNL d   1     -42.193-122.623 -49.969  0.00  0.00    -0.268 N 
ATOM      3  C   UNL d   1     -43.017-122.606 -49.982  0.00  0.00     0.296 A 
ATOM      4  S   UNL d   1     -43.288-122.967 -49.282  0.00  0.00    -0.025 SA
ATOM      5  O   UNL d   1     -43.495-122.293 -50.576  0.00  0.00    -0.259 OA
ATOM      6  C   UNL d   1     -42.624-123.199 -48.850  0.00  0.00     0.050 A 
ATOM      7  C   UNL d   1     -42.548-123.583 -48.111  0.00  0.00     0.008 A 
ATOM      8  C   UNL d   1     -41.951-122.990 -49.267  0.00  0.00     0.073 A 
ATOM      9  C   UNL d   1     -41.799-123.747 -47.812  0.00  0.00     0.001 A 
ATOM     10  C   UNL d   1     -41.125-123.532 -48.242  0.00  0.00     0.002 A 
ATOM     11  C   UNL d   1     -41.199-123.153 -48.971  0.00  0.00     0.018 A 
ENDBRANCH   1   2
BRANCH   1  12
ATOM     12  C   UNL d   1     -41.701-122.657 -51.314  0.00  0.00     0.046 C 
BRANCH  12  13
ATOM     13  C   UNL d   1     -41.161-122.408 -51.883  0.00  0.00     0.124 C 
BRANCH  13  14
ATOM     14  O   UNL d   1     -41.359-122.432 -52.677  0.00  0.00    -0.305 OA
BRANCH  14  15
ATOM     15  C   UNL d   1     -41.562-122.456 -53.478  0.00  0.00     0.100 A 
ATOM     16  C   UNL d   1     -41.454-123.148 -53.911  0.00  0.00     0.023 A 
ATOM     17  C   UNL d   1     -41.142-123.817 -53.541  0.00  0.00     0.002 C 
ATOM     18  C   UNL d   1     -41.655-123.169 -54.703  0.00  0.00     0.002 A 
ATOM     19  C   UNL d   1     -41.966-122.499 -55.069  0.00  0.00     0.000 A 
ATOM     20  C   UNL d   1     -42.073-121.806 -54.632  0.00  0.00     0.002 A 
ATOM     21  C   UNL d   1     -41.867-121.792 -53.829  0.00  0.00     0.025 A 
ENDBRANCH  14  15
ENDBRANCH  13  14
ENDBRANCH  12  13
ENDBRANCH   1  12
TORSDOF 5
ENDMDL
MODEL 2
REMARK VINA RESULT:      -5.0      1.530      5.068
REMARK  5 active torsions:
REMARK  status: ('A' for Active; 'I' for Inactive)
REMARK    1  A    between atoms: C_9  and  N_2 
REMARK    2  A    between atoms: C_7  and  O_10 
REMARK    3  A    between atoms: C_11  and  C_9 
REMARK    4  A    between atoms: O_10  and  C_14 
REMARK    5  A    between atoms: C_14  and  C_11 
ROOT
ATOM      1  C   UNL d   1     -41.733-122.134 -52.584  0.00  0.00     0.086 C 
ENDROOT
BRANCH   1   2
ATOM      2  N   UNL d   1     -41.676-122.562 -53.285  0.00  0.00    -0.268 N 
ATOM      3  C   UNL d   1     -41.395-123.333 -53.355  0.00  0.00     0.296 A 
ATOM      4  S   UNL d   1     -41.435-123.544 -54.160  0.00  0.00    -0.025 SA
ATOM      5  O   UNL d   1     -41.123-123.817 -52.746  0.00  0.00    -0.259 OA
ATOM      6  C   UNL d   1     -41.740-122.896 -54.571  0.00  0.00     0.050 A 
ATOM      7  C   UNL d   1     -41.904-122.780 -55.382  0.00  0.00     0.008 A 
ATOM      8  C   UNL d   1     -41.889-122.292 -54.038  0.00  0.00     0.073 A 
ATOM      9  C   UNL d   1     -42.213-122.061 -55.636  0.00  0.00     0.001 A 
ATOM     10  C   UNL d   1     -42.360-121.456 -55.089  0.00  0.00     0.002 A 
ATOM     11  C   UNL d   1     -42.198-121.570 -54.288  0.00  0.00     0.018 A 
ENDBRANCH   1   2
BRANCH   1  12
ATOM     12  C   UNL d   1     -41.533-122.487 -51.861  0.00  0.00     0.046 C 
BRANCH  12  13
ATOM     13  C   UNL d   1     -41.611-122.070 -51.155  0.00  0.00     0.124 C 
BRANCH  13  14
ATOM     14  O   UNL d   1     -41.692-122.472 -50.447  0.00  0.00    -0.305 OA
BRANCH  14  15
ATOM     15  C   UNL d   1     -41.773-122.880 -49.732  0.00  0.00     0.100 A 
ATOM     16  C   UNL d   1     -42.495-122.882 -49.337  0.00  0.00     0.023 A 
ATOM     17  C   UNL d   1     -43.137-122.473 -49.658  0.00  0.00     0.002 C 
ATOM     18  C   UNL d   1     -42.573-123.286 -48.630  0.00  0.00     0.002 A 
ATOM     19  C   UNL d   1     -41.929-123.692 -48.314  0.00  0.00     0.000 A 
ATOM     20  C   UNL d   1     -41.205-123.689 -48.712  0.00  0.00     0.002 A 
ATOM     21  C   UNL d   1     -41.134-123.277 -49.429  0.00  0.00     0.025 A 
ENDBRANCH  14  15
ENDBRANCH  13  14
ENDBRANCH  12  13
ENDBRANCH   1  12
TORSDOF 5
ENDMDL
MODEL 3
REMARK VINA RESULT:      -3.1      1.047      1.569
REMARK  5 active torsions:
REMARK  status: ('A' for Active; 'I' for Inactive)
REMARK    1  A    between atoms: C_9  and  N_2 
REMARK    2  A    between atoms: C_7  and  O_10 
REMARK    3  A    between atoms: C_11  and  C_9 
REMARK    4  A    between atoms: O_10  and  C_14 
REMARK    5  A    between atoms: C_14  and  C_11 
ROOT
ATOM      1  C   UNL d   1     -42.307-122.345 -51.156  0.00  0.00     0.086 C 
ENDROOT
BRANCH   1   2
ATOM      2  N   UNL d   1     -42.070-122.845 -50.547  0.00  0.00    -0.268 N 
ATOM      3  C   UNL d   1     -41.527-123.461 -50.616  0.00  0.00     0.296 A 
ATOM      4  S   UNL d   1     -41.454-123.817 -49.866  0.00  0.00    -0.025 SA
ATOM      5  O   UNL d   1     -41.125-123.691 -51.297  0.00  0.00    -0.259 OA
ATOM      6  C   UNL d   1     -41.955-123.412 -49.349  0.00  0.00     0.050 A 
ATOM      7  C   UNL d   1     -42.115-123.516 -48.536  0.00  0.00     0.008 A 
ATOM      8  C   UNL d   1     -42.333-122.816 -49.763  0.00  0.00     0.073 A 
ATOM      9  C   UNL d   1     -42.651-123.018 -48.160  0.00  0.00     0.001 A 
ATOM     10  C   UNL d   1     -43.029-122.418 -48.586  0.00  0.00     0.002 A 
ATOM     11  C   UNL d   1     -42.872-122.314 -49.390  0.00  0.00     0.018 A 
ENDBRANCH   1   2
BRANCH   1  12
ATOM     12  C   UNL d   1     -41.901-122.343 -51.879  0.00  0.00     0.046 C 
BRANCH  12  13
ATOM     13  C   UNL d   1     -42.097-121.804 -52.469  0.00  0.00     0.124 C 
BRANCH  13  14
ATOM     14  O   UNL d   1     -41.965-121.988 -53.255  0.00  0.00    -0.305 OA
BRANCH  14  15
ATOM     15  C   UNL d   1     -41.833-122.177 -54.050  0.00  0.00     0.100 A 
ATOM     16  C   UNL d   1     -42.258-121.795 -54.641  0.00  0.00     0.023 A 
ATOM     17  C   UNL d   1     -42.817-121.222 -54.438  0.00  0.00     0.002 C 
ATOM     18  C   UNL d   1     -42.126-121.983 -55.426  0.00  0.00     0.002 A 
ATOM     19  C   UNL d   1     -41.567-122.556 -55.625  0.00  0.00     0.000 A 
ATOM     20  C   UNL d   1     -41.142-122.939 -55.029  0.00  0.00     0.002 A 
ATOM     21  C   UNL d   1     -41.281-122.742 -54.235  0.00  0.00     0.025 A 
ENDBRANCH  14  15
ENDBRANCH  13  14
ENDBRANCH  12  13
ENDBRANCH   1  12
TORSDOF 5
ENDMDL
