MODEL 1
REMARK VINA RESULT:     110.3      0.000      0.000
REMARK  6 active torsions:
REMARK  status: ('A' for Active; 'I' for Inactive)
REMARK    1  A    between atoms: C_9  and  N_2 
REMARK       I    between atoms: N_5  and  C_6 
REMARK    2  A    between atoms: C_6  and  C_10 
REMARK    3  A    between atoms: C_11  and  N_7 
REMARK    4  A    between atoms: C_10  and  C_9 
REMARK    5  A    between atoms: C_18  and  C_11 
REMARK    6  A    between atoms: C_19  and  C_11 
ROOT
ATOM      1  N   UNL d   1     -55.711-101.216 -41.559  0.00  0.00    -0.269 N 
ATOM      2  C   UNL d   1     -55.495-101.688 -40.921  0.00  0.00     0.266 C 
ATOM      3  N   UNL d   1     -56.142-100.259 -42.844  0.00  0.00    -0.301 N 
ATOM      4  C   UNL d   1     -55.290-100.516 -41.714  0.00  0.00     0.102 A 
ATOM      5  C   UNL d   1     -56.337-101.431 -42.041  0.00  0.00     0.102 A 
ATOM      6  C   UNL d   1     -56.553-100.953 -42.684  0.00  0.00     0.100 A 
ATOM      7  C   UNL d   1     -55.502-100.041 -42.349  0.00  0.00     0.100 A 
ATOM      8  O   UNL d   1     -55.914-102.383 -40.768  0.00  0.00    -0.267 OA
ENDROOT
BRANCH   2   9
ATOM      9  C   UNL d   1     -54.866-101.473 -40.435  0.00  0.00     0.080 C 
BRANCH   9  10
ATOM     10  C   UNL d   1     -54.711-101.889 -39.744  0.00  0.00     0.090 C 
BRANCH  10  11
ATOM     11  N   UNL d   1     -54.718-101.504 -39.016  0.00  0.00    -0.251 N 
ATOM     12  C   UNL d   1     -54.718-100.690 -38.898  0.00  0.00     0.378 A 
ATOM     13  O   UNL d   1     -54.726-100.620 -38.079  0.00  0.00    -0.258 OA
ATOM     14  O   UNL d   1     -54.712-100.116 -39.491  0.00  0.00    -0.237 OA
ATOM     15  C   UNL d   1     -54.730-101.279 -37.702  0.00  0.00     0.121 A 
ATOM     16  C   UNL d   1     -54.738-101.482 -36.898  0.00  0.00     0.026 A 
ATOM     17  C   UNL d   1     -54.725-101.871 -38.276  0.00  0.00     0.092 A 
ATOM     18  C   UNL d   1     -54.741-102.280 -36.670  0.00  0.00     0.002 A 
ATOM     19  C   UNL d   1     -54.736-102.864 -37.254  0.00  0.00     0.002 A 
ATOM     20  C   UNL d   1     -54.728-102.658 -38.055  0.00  0.00     0.020 A 
ENDBRANCH  10  11
ENDBRANCH   9  10
ENDBRANCH   2   9
BRANCH   3  21
ATOM     21  C   UNL d   1     -56.348 -99.771 -43.486  0.00  0.00     0.064 C 
BRANCH  21  22
ATOM     22  C   UNL d   1     -55.803 -99.592 -44.074  0.00  0.00     0.016 A 
ATOM     23  C   UNL d   1     -55.271 -98.971 -43.964  0.00  0.00     0.001 A 
ATOM     24  C   UNL d   1     -54.725 -98.793 -44.554  0.00  0.00     0.000 A 
ATOM     25  C   UNL d   1     -54.711 -99.234 -45.251  0.00  0.00     0.000 A 
ATOM     26  C   UNL d   1     -55.243 -99.852 -45.357  0.00  0.00     0.000 A 
ATOM     27  C   UNL d   1     -55.789-100.031 -44.768  0.00  0.00     0.001 A 
ENDBRANCH  21  22
BRANCH  21  28
ATOM     28  C   UNL d   1     -57.120 -99.465 -43.523  0.00  0.00     0.016 A 
ATOM     29  C   UNL d   1     -57.504 -99.439 -44.259  0.00  0.00     0.001 A 
ATOM     30  C   UNL d   1     -58.276 -99.133 -44.296  0.00  0.00     0.000 A 
ATOM     31  C   UNL d   1     -58.648 -98.863 -43.615  0.00  0.00     0.000 A 
ATOM     32  C   UNL d   1     -58.254 -98.895 -42.890  0.00  0.00     0.000 A 
ATOM     33  C   UNL d   1     -57.488 -99.197 -42.842  0.00  0.00     0.001 A 
ENDBRANCH  21  28
ENDBRANCH   3  21
TORSDOF 6
ENDMDL
