MODEL 1
REMARK VINA RESULT:      -0.8      0.000      0.000
REMARK  5 active torsions:
REMARK  status: ('A' for Active; 'I' for Inactive)
REMARK    1  A    between atoms: N_8  and  C_1 
REMARK    2  A    between atoms: S_2  and  C_7 
REMARK    3  A    between atoms: N_9  and  S_2 
REMARK    4  A    between atoms: C_17  and  N_5 
REMARK       I    between atoms: C_10  and  N_8 
REMARK    5  A    between atoms: C_12  and  C_10 
ROOT
ATOM      1  N   UNL d   1      32.172  19.178 -23.528  0.00  0.00    -0.202 NA
ATOM      2  C   UNL d   1      32.571  18.467 -23.357  0.00  0.00     0.279 C 
ATOM      3  O   UNL d   1      33.198  18.466 -22.819  0.00  0.00    -0.265 OA
ENDROOT
BRANCH   2   4
ATOM      4  C   UNL d   1      32.338  17.774 -23.723  0.00  0.00     0.059 A 
ATOM      5  C   UNL d   1      31.560  17.501 -23.649  0.00  0.00     0.019 A 
ATOM      6  C   UNL d   1      31.329  16.802 -24.020  0.00  0.00     0.115 A 
ATOM      7  C   UNL d   1      31.877  16.374 -24.464  0.00  0.00     0.070 A 
ATOM      8  C   UNL d   1      32.646  16.643 -24.537  0.00  0.00     0.012 A 
ATOM      9 CL   UNL d   1      31.647  15.674 -24.835  0.00  0.00    -0.082 Cl
ATOM     10  C   UNL d   1      32.886  17.346 -24.167  0.00  0.00     0.006 A 
BRANCH   6  11
ATOM     11  S   UNL d   1      30.549  16.533 -23.944  0.00  0.00     0.272 S 
ATOM     12  O   UNL d   1      30.331  17.001 -24.591  0.00  0.00    -0.200 OA
ATOM     13  O   UNL d   1      30.767  16.069 -23.300  0.00  0.00    -0.200 OA
BRANCH  11  14
ATOM     14  N   UNL d   1      29.773  16.270 -23.872  0.00  0.00    -0.229 N 
ATOM     15  C   UNL d   1      29.208  16.540 -24.397  0.00  0.00     0.092 A 
ATOM     16  C   UNL d   1      28.428  16.275 -24.325  0.00  0.00     0.020 A 
ATOM     17  C   UNL d   1      28.225  15.743 -23.728  0.00  0.00     0.003 A 
ATOM     18  C   UNL d   1      28.804  15.476 -23.203  0.00  0.00     0.020 A 
ATOM     19  C   UNL d   1      29.579  15.740 -23.275  0.00  0.00     0.092 A 
ENDBRANCH  11  14
ENDBRANCH   6  11
ENDBRANCH   2   4
BRANCH   1  20
ATOM     20  C   UNL d   1      32.408  19.871 -23.160  0.00  0.00     0.160 A 
ATOM     21  C   UNL d   1      32.345  20.048 -22.354  0.00  0.00     0.298 A 
ATOM     22  N   UNL d   1      32.648  20.797 -22.234  0.00  0.00    -0.209 N 
ATOM     23  O   UNL d   1      32.031  19.553 -21.780  0.00  0.00    -0.263 OA
ATOM     24  N   UNL d   1      32.901  21.089 -22.963  0.00  0.00    -0.238 N 
ATOM     25  C   UNL d   1      32.754  20.521 -23.535  0.00  0.00     0.104 A 
ATOM     26  C   UNL d   1      33.240  21.821 -23.094  0.00  0.00     0.120 C 
ATOM     27  C   UNL d   1      32.919  20.581 -24.333  0.00  0.00     0.022 C 
BRANCH  22  28
ATOM     28  C   UNL d   1      32.692  21.186 -21.518  0.00  0.00     0.085 A 
ATOM     29  C   UNL d   1      32.231  21.850 -21.388  0.00  0.00     0.019 A 
ATOM     30  C   UNL d   1      32.276  22.239 -20.668  0.00  0.00     0.002 A 
ATOM     31  C   UNL d   1      32.775  21.972 -20.082  0.00  0.00     0.000 A 
ATOM     32  C   UNL d   1      33.240  21.301 -20.217  0.00  0.00     0.002 A 
ATOM     33  C   UNL d   1      33.194  20.911 -20.937  0.00  0.00     0.019 A 
ENDBRANCH  22  28
ENDBRANCH   1  20
TORSDOF 5
ENDMDL
MODEL 2
REMARK VINA RESULT:      -0.1      1.342      2.116
REMARK  5 active torsions:
REMARK  status: ('A' for Active; 'I' for Inactive)
REMARK    1  A    between atoms: N_8  and  C_1 
REMARK    2  A    between atoms: S_2  and  C_7 
REMARK    3  A    between atoms: N_9  and  S_2 
REMARK    4  A    between atoms: C_17  and  N_5 
REMARK       I    between atoms: C_10  and  N_8 
REMARK    5  A    between atoms: C_12  and  C_10 
ROOT
ATOM      1  N   UNL d   1      32.683  21.039 -22.974  0.00  0.00    -0.202 NA
ATOM      2  C   UNL d   1      32.935  20.264 -22.798  0.00  0.00     0.279 C 
ATOM      3  O   UNL d   1      33.241  20.092 -22.049  0.00  0.00    -0.265 OA
ENDROOT
BRANCH   2   4
ATOM      4  C   UNL d   1      32.880  19.680 -23.367  0.00  0.00     0.059 A 
ATOM      5  C   UNL d   1      32.467  18.979 -23.209  0.00  0.00     0.019 A 
ATOM      6  C   UNL d   1      32.413  18.392 -23.785  0.00  0.00     0.115 A 
ATOM      7  C   UNL d   1      32.772  18.505 -24.520  0.00  0.00     0.070 A 
ATOM      8  C   UNL d   1      33.179  19.197 -24.676  0.00  0.00     0.012 A 
ATOM      9 CL   UNL d   1      32.718  17.918 -25.097  0.00  0.00    -0.082 Cl
ATOM     10  C   UNL d   1      33.238  19.793 -24.101  0.00  0.00     0.006 A 
BRANCH   6  11
ATOM     11  S   UNL d   1      32.000  17.693 -23.623  0.00  0.00     0.272 S 
ATOM     12  O   UNL d   1      32.685  17.372 -23.286  0.00  0.00    -0.200 OA
ATOM     13  O   UNL d   1      31.319  18.012 -23.959  0.00  0.00    -0.200 OA
BRANCH  11  14
ATOM     14  N   UNL d   1      31.593  16.997 -23.460  0.00  0.00    -0.229 N 
ATOM     15  C   UNL d   1      31.975  16.395 -23.059  0.00  0.00     0.092 A 
ATOM     16  C   UNL d   1      31.566  15.695 -22.895  0.00  0.00     0.020 A 
ATOM     17  C   UNL d   1      30.782  15.608 -23.135  0.00  0.00     0.003 A 
ATOM     18  C   UNL d   1      30.406  16.222 -23.539  0.00  0.00     0.020 A 
ATOM     19  C   UNL d   1      30.813  16.917 -23.702  0.00  0.00     0.092 A 
ENDBRANCH  11  14
ENDBRANCH   6  11
ENDBRANCH   2   4
BRANCH   1  20
ATOM     20  C   UNL d   1      32.740  21.621 -22.402  0.00  0.00     0.160 A 
ATOM     21  C   UNL d   1      32.570  21.541 -21.596  0.00  0.00     0.298 A 
ATOM     22  N   UNL d   1      32.704  22.262 -21.235  0.00  0.00    -0.209 N 
ATOM     23  O   UNL d   1      32.311  20.855 -21.230  0.00  0.00    -0.263 OA
ATOM     24  N   UNL d   1      32.959  22.793 -21.813  0.00  0.00    -0.238 N 
ATOM     25  C   UNL d   1      32.982  22.401 -22.532  0.00  0.00     0.104 A 
ATOM     26  C   UNL d   1      33.154  23.576 -21.690  0.00  0.00     0.120 C 
ATOM     27  C   UNL d   1      33.203  22.720 -23.252  0.00  0.00     0.022 C 
BRANCH  22  28
ATOM     28  C   UNL d   1      32.604  22.425 -20.442  0.00  0.00     0.085 A 
ATOM     29  C   UNL d   1      31.865  22.639 -20.162  0.00  0.00     0.019 A 
ATOM     30  C   UNL d   1      31.766  22.803 -19.365  0.00  0.00     0.002 A 
ATOM     31  C   UNL d   1      32.395  22.754 -18.849  0.00  0.00     0.000 A 
ATOM     32  C   UNL d   1      33.141  22.537 -19.136  0.00  0.00     0.002 A 
ATOM     33  C   UNL d   1      33.240  22.374 -19.933  0.00  0.00     0.019 A 
ENDBRANCH  22  28
ENDBRANCH   1  20
TORSDOF 5
ENDMDL
