MODEL 1
REMARK VINA RESULT:      65.5      0.000      0.000
REMARK  7 active torsions:
REMARK  status: ('A' for Active; 'I' for Inactive)
REMARK    1  A    between atoms: C_9  and  N_1 
REMARK    2  A    between atoms: O_18  and  C_6 
REMARK    3  A    between atoms: C_7  and  C_8 
REMARK    4  A    between atoms: C_8  and  O_12 
REMARK    5  A    between atoms: O_12  and  C_9 
REMARK    6  A    between atoms: O_20  and  C_10 
REMARK    7  A    between atoms: O_19  and  C_11 
ROOT
ATOM      1  C   UNL d   1      60.857  48.628  50.594  0.00  0.00     0.302 C 
ATOM      2  O   UNL d   1      60.968  49.068  51.286  0.00  0.00    -0.259 OA
ENDROOT
BRANCH   1   3
ATOM      3  C   UNL d   1      61.019  47.818  50.589  0.00  0.00     0.068 A 
ATOM      4  C   UNL d   1      60.738  47.334  51.219  0.00  0.00     0.032 A 
ATOM      5  C   UNL d   1      60.908  46.535  51.197  0.00  0.00     0.118 A 
ATOM      6  C   UNL d   1      61.339  46.201  50.581  0.00  0.00     0.138 A 
ATOM      7  C   UNL d   1      61.608  46.685  49.971  0.00  0.00     0.118 A 
ATOM      8  C   UNL d   1      61.446  47.491  49.977  0.00  0.00     0.032 A 
BRANCH   5   9
ATOM      9  O   UNL d   1      60.633  46.043  51.820  0.00  0.00    -0.326 OA
ATOM     10  C   UNL d   1      59.929  45.620  51.726  0.00  0.00     0.181 C 
ENDBRANCH   5   9
BRANCH   6  11
ATOM     11  O   UNL d   1      61.500  45.384  50.580  0.00  0.00    -0.324 OA
ATOM     12  C   UNL d   1      60.912  44.833  50.425  0.00  0.00     0.182 C 
ENDBRANCH   6  11
BRANCH   7  13
ATOM     13  O   UNL d   1      62.047  46.350  49.343  0.00  0.00    -0.326 OA
ATOM     14  C   UNL d   1      62.681  46.748  49.018  0.00  0.00     0.181 C 
ENDBRANCH   7  13
ENDBRANCH   1   3
BRANCH   1  15
ATOM     15  O   UNL d   1      60.585  48.997  49.908  0.00  0.00    -0.251 OA
BRANCH  15  16
ATOM     16  C   UNL d   1      60.166  49.707  49.961  0.00  0.00     0.233 C 
BRANCH  16  17
ATOM     17  N   UNL d   1      59.379  49.704  50.222  0.00  0.00    -0.150 N 
ATOM     18  N   UNL d   1      59.213  49.700  51.032  0.00  0.00    -0.055 NA
ATOM     19  N   UNL d   1      58.430  49.697  51.289  0.00  0.00    -0.130 NA
ATOM     20  C   UNL d   1      57.817  49.698  50.745  0.00  0.00     0.109 A 
ATOM     21  C   UNL d   1      57.983  49.701  49.935  0.00  0.00     0.077 A 
ATOM     22  C   UNL d   1      57.035  49.695  51.002  0.00  0.00     0.021 A 
ATOM     23  C   UNL d   1      58.764  49.704  49.661  0.00  0.00     0.285 A 
ATOM     24  C   UNL d   1      57.367  49.702  49.386  0.00  0.00     0.006 A 
ATOM     25  O   UNL d   1      58.929  49.708  48.859  0.00  0.00    -0.265 OA
ATOM     26  C   UNL d   1      56.585  49.699  49.644  0.00  0.00     0.000 A 
ATOM     27  C   UNL d   1      56.418  49.695  50.458  0.00  0.00     0.002 A 
ENDBRANCH  16  17
ENDBRANCH  15  16
ENDBRANCH   1  15
TORSDOF 7
ENDMDL
MODEL 2
REMARK VINA RESULT:      66.7      1.639      4.546
REMARK  7 active torsions:
REMARK  status: ('A' for Active; 'I' for Inactive)
REMARK    1  A    between atoms: C_9  and  N_1 
REMARK    2  A    between atoms: O_18  and  C_6 
REMARK    3  A    between atoms: C_7  and  C_8 
REMARK    4  A    between atoms: C_8  and  O_12 
REMARK    5  A    between atoms: O_12  and  C_9 
REMARK    6  A    between atoms: O_20  and  C_10 
REMARK    7  A    between atoms: O_19  and  C_11 
ROOT
ATOM      1  C   UNL d   1      59.946  49.284  51.280  0.00  0.00     0.302 C 
ATOM      2  O   UNL d   1      60.223  49.412  52.048  0.00  0.00    -0.259 OA
ENDROOT
BRANCH   1   3
ATOM      3  C   UNL d   1      59.142  49.369  51.110  0.00  0.00     0.068 A 
ATOM      4  C   UNL d   1      58.578  49.327  51.735  0.00  0.00     0.032 A 
ATOM      5  C   UNL d   1      57.788  49.414  51.549  0.00  0.00     0.118 A 
ATOM      6  C   UNL d   1      57.537  49.538  50.775  0.00  0.00     0.138 A 
ATOM      7  C   UNL d   1      58.098  49.577  50.172  0.00  0.00     0.118 A 
ATOM      8  C   UNL d   1      58.897  49.492  50.343  0.00  0.00     0.032 A 
BRANCH   5   9
ATOM      9  O   UNL d   1      57.217  49.374  52.164  0.00  0.00    -0.326 OA
ATOM     10  C   UNL d   1      57.394  49.694  52.906  0.00  0.00     0.181 C 
ENDBRANCH   5   9
BRANCH   6  11
ATOM     11  O   UNL d   1      56.726  49.624  50.609  0.00  0.00    -0.324 OA
ATOM     12  C   UNL d   1      56.337  49.110  50.099  0.00  0.00     0.182 C 
ENDBRANCH   6  11
BRANCH   7  13
ATOM     13  O   UNL d   1      57.847  49.703  49.385  0.00  0.00    -0.326 OA
ATOM     14  C   UNL d   1      57.525  49.094  48.947  0.00  0.00     0.181 C 
ENDBRANCH   7  13
ENDBRANCH   1   3
BRANCH   1  15
ATOM     15  O   UNL d   1      60.472  49.071  50.680  0.00  0.00    -0.251 OA
BRANCH  15  16
ATOM     16  C   UNL d   1      61.151  48.638  50.864  0.00  0.00     0.233 C 
BRANCH  16  17
ATOM     17  N   UNL d   1      61.193  47.833  50.671  0.00  0.00    -0.150 N 
ATOM     18  N   UNL d   1      60.760  47.280  51.107  0.00  0.00    -0.055 NA
ATOM     19  N   UNL d   1      60.804  46.480  50.913  0.00  0.00    -0.130 NA
ATOM     20  C   UNL d   1      61.275  46.232  50.290  0.00  0.00     0.109 A 
ATOM     21  C   UNL d   1      61.708  46.785  49.854  0.00  0.00     0.077 A 
ATOM     22  C   UNL d   1      61.319  45.433  50.097  0.00  0.00     0.021 A 
ATOM     23  C   UNL d   1      61.675  47.592  50.037  0.00  0.00     0.285 A 
ATOM     24  C   UNL d   1      62.184  46.537  49.227  0.00  0.00     0.006 A 
ATOM     25  O   UNL d   1      62.105  48.139  49.605  0.00  0.00    -0.265 OA
ATOM     26  C   UNL d   1      62.227  45.737  49.034  0.00  0.00     0.000 A 
ATOM     27  C   UNL d   1      61.791  45.182  49.472  0.00  0.00     0.002 A 
ENDBRANCH  16  17
ENDBRANCH  15  16
ENDBRANCH   1  15
TORSDOF 7
ENDMDL
