MODEL 1
REMARK VINA RESULT:      64.0      0.000      0.000
REMARK  5 active torsions:
REMARK  status: ('A' for Active; 'I' for Inactive)
REMARK       I    between atoms: C_3  and  N_1 
REMARK    1  A    between atoms: C_12  and  C_3 
REMARK    2  A    between atoms: C_7  and  O_10 
REMARK    3  A    between atoms: O_10  and  C_21 
REMARK    4  A    between atoms: C_22  and  C_12 
REMARK    5  A    between atoms: C_21  and  C_22 
ROOT
ATOM      1  N   UNL d   1     -55.002-100.509 -42.670  0.00  0.00    -0.273 N 
ATOM      2  C   UNL d   1     -55.134-100.228 -43.435  0.00  0.00     0.067 A 
ATOM      3  C   UNL d   1     -54.843-101.309 -42.546  0.00  0.00     0.265 C 
ATOM      4  C   UNL d   1     -55.294 -99.428 -43.560  0.00  0.00     0.016 A 
ATOM      5  O   UNL d   1     -54.815-101.827 -43.186  0.00  0.00    -0.267 OA
ATOM      6  C   UNL d   1     -55.030 -99.990 -42.030  0.00  0.00     0.083 A 
ATOM      7  C   UNL d   1     -55.106-100.747 -44.075  0.00  0.00     0.018 A 
ATOM      8  C   UNL d   1     -55.190 -99.190 -42.156  0.00  0.00     0.019 A 
ATOM      9  C   UNL d   1     -55.321 -98.909 -42.920  0.00  0.00     0.003 A 
ATOM     10  C   UNL d   1     -55.425 -99.148 -44.324  0.00  0.00     0.001 A 
ATOM     11  C   UNL d   1     -55.238-100.467 -44.840  0.00  0.00     0.002 A 
ATOM     12  C   UNL d   1     -55.398 -99.667 -44.964  0.00  0.00     0.000 A 
ENDROOT
BRANCH   3  13
ATOM     13  C   UNL d   1     -54.711-101.589 -41.781  0.00  0.00     0.063 C 
BRANCH  13  14
ATOM     14  C   UNL d   1     -54.727-102.401 -41.630  0.00  0.00     0.032 C 
BRANCH  14  15
ATOM     15  C   UNL d   1     -55.216-102.700 -41.038  0.00  0.00     0.123 C 
BRANCH  15  16
ATOM     16  O   UNL d   1     -55.188-102.378 -40.278  0.00  0.00    -0.305 OA
BRANCH  16  17
ATOM     17  C   UNL d   1     -55.793-102.538 -39.741  0.00  0.00     0.100 A 
ATOM     18  C   UNL d   1     -55.634-102.547 -38.931  0.00  0.00     0.023 A 
ATOM     19  C   UNL d   1     -56.239-102.706 -38.394  0.00  0.00     0.002 A 
ATOM     20  C   UNL d   1     -54.870-102.397 -38.660  0.00  0.00     0.002 C 
ATOM     21  C   UNL d   1     -56.076-102.714 -37.592  0.00  0.00     0.000 C 
ATOM     22  C   UNL d   1     -57.002-102.856 -38.665  0.00  0.00     0.000 A 
ATOM     23  C   UNL d   1     -57.162-102.847 -39.473  0.00  0.00     0.002 A 
ATOM     24  C   UNL d   1     -56.557-102.687 -40.012  0.00  0.00     0.025 A 
ENDBRANCH  16  17
ENDBRANCH  15  16
ENDBRANCH  14  15
ENDBRANCH  13  14
ENDBRANCH   3  13
TORSDOF 5
ENDMDL
