MODEL 1
REMARK VINA RESULT:      -6.4      0.000      0.000
REMARK  5 active torsions:
REMARK  status: ('A' for Active; 'I' for Inactive)
REMARK    1  A    between atoms: C_2  and  C_4 
REMARK    2  A    between atoms: C_4  and  C_10 
REMARK    3  A    between atoms: S_8  and  C_6 
REMARK    4  A    between atoms: C_14  and  C_7 
REMARK    5  A    between atoms: C_10  and  S_8 
ROOT
ATOM      1  N   UNL d   1     -45.533  12.477  22.958  0.00  0.00    -0.148 NA
ATOM      2  N   UNL d   1     -46.175  12.995  22.944  0.00  0.00    -0.141 NA
ATOM      3  C   UNL d   1     -46.898  12.771  23.271  0.00  0.00     0.133 A 
ATOM      4  C   UNL d   1     -45.618  11.730  23.301  0.00  0.00     0.103 A 
ATOM      5  C   UNL d   1     -46.334  11.501  23.628  0.00  0.00     0.023 A 
ATOM      6  C   UNL d   1     -46.975  12.014  23.616  0.00  0.00     0.029 A 
ENDROOT
BRANCH   3   7
ATOM      7  S   UNL d   1     -47.531  13.286  23.256  0.00  0.00    -0.062 SA
BRANCH   7   8
ATOM      8  C   UNL d   1     -48.166  13.146  22.750  0.00  0.00     0.079 C 
BRANCH   8   9
ATOM      9  C   UNL d   1     -48.778  13.686  22.694  0.00  0.00     0.208 C 
ATOM     10  O   UNL d   1     -48.671  14.453  22.981  0.00  0.00    -0.285 OA
BRANCH   9  11
ATOM     11  C   UNL d   1     -49.495  13.477  22.357  0.00  0.00     0.069 A 
ATOM     12  S   UNL d   1     -49.699  13.575  21.568  0.00  0.00    -0.083 SA
ATOM     13  C   UNL d   1     -50.466  13.293  21.466  0.00  0.00     0.035 A 
ATOM     14  C   UNL d   1     -50.727  13.021  22.201  0.00  0.00     0.008 A 
ATOM     15  C   UNL d   1     -50.129  13.135  22.747  0.00  0.00     0.010 A 
ENDBRANCH   9  11
ENDBRANCH   8   9
ENDBRANCH   7   8
ENDBRANCH   3   7
BRANCH   4  16
ATOM     16  C   UNL d   1     -44.976  11.213  23.314  0.00  0.00     0.019 A 
ATOM     17  C   UNL d   1     -45.045  10.471  23.684  0.00  0.00     0.002 A 
ATOM     18  C   UNL d   1     -44.400   9.950  23.698  0.00  0.00     0.000 A 
ATOM     19  C   UNL d   1     -43.682  10.168  23.341  0.00  0.00     0.000 A 
ATOM     20  C   UNL d   1     -43.613  10.896  22.979  0.00  0.00     0.000 A 
ATOM     21  C   UNL d   1     -44.252  11.425  22.959  0.00  0.00     0.002 A 
ENDBRANCH   4  16
TORSDOF 5
ENDMDL
MODEL 2
REMARK VINA RESULT:      -5.9      1.855      5.205
REMARK  5 active torsions:
REMARK  status: ('A' for Active; 'I' for Inactive)
REMARK    1  A    between atoms: C_2  and  C_4 
REMARK    2  A    between atoms: C_4  and  C_10 
REMARK    3  A    between atoms: S_8  and  C_6 
REMARK    4  A    between atoms: C_14  and  C_7 
REMARK    5  A    between atoms: C_10  and  S_8 
ROOT
ATOM      1  N   UNL d   1     -47.857  13.297  22.279  0.00  0.00    -0.148 NA
ATOM      2  N   UNL d   1     -47.105  12.971  22.188  0.00  0.00    -0.141 NA
ATOM      3  C   UNL d   1     -46.447  13.346  22.512  0.00  0.00     0.133 A 
ATOM      4  C   UNL d   1     -47.948  14.004  22.697  0.00  0.00     0.103 A 
ATOM      5  C   UNL d   1     -47.299  14.382  23.022  0.00  0.00     0.023 A 
ATOM      6  C   UNL d   1     -46.548  14.061  22.933  0.00  0.00     0.029 A 
ENDROOT
BRANCH   3   7
ATOM      7  S   UNL d   1     -45.704  13.021  22.420  0.00  0.00    -0.062 SA
BRANCH   7   8
ATOM      8  C   UNL d   1     -45.517  12.308  22.788  0.00  0.00     0.079 C 
BRANCH   8   9
ATOM      9  C   UNL d   1     -44.793  11.950  22.653  0.00  0.00     0.208 C 
ATOM     10  O   UNL d   1     -44.258  12.297  22.130  0.00  0.00    -0.285 OA
BRANCH   9  11
ATOM     11  C   UNL d   1     -44.593  11.250  23.029  0.00  0.00     0.069 A 
ATOM     12  S   UNL d   1     -43.834  10.946  23.102  0.00  0.00    -0.083 SA
ATOM     13  C   UNL d   1     -43.881  10.237  23.517  0.00  0.00     0.035 A 
ATOM     14  C   UNL d   1     -44.677  10.111  23.698  0.00  0.00     0.008 A 
ATOM     15  C   UNL d   1     -45.113  10.734  23.397  0.00  0.00     0.010 A 
ENDBRANCH   9  11
ENDBRANCH   8   9
ENDBRANCH   7   8
ENDBRANCH   3   7
BRANCH   4  16
ATOM     16  C   UNL d   1     -48.701  14.329  22.788  0.00  0.00     0.019 A 
ATOM     17  C   UNL d   1     -48.869  15.083  22.479  0.00  0.00     0.002 A 
ATOM     18  C   UNL d   1     -49.625  15.410  22.569  0.00  0.00     0.000 A 
ATOM     19  C   UNL d   1     -50.218  14.986  22.968  0.00  0.00     0.000 A 
ATOM     20  C   UNL d   1     -50.053  14.247  23.271  0.00  0.00     0.000 A 
ATOM     21  C   UNL d   1     -49.301  13.909  23.187  0.00  0.00     0.002 A 
ENDBRANCH   4  16
TORSDOF 5
ENDMDL
MODEL 3
REMARK VINA RESULT:      -5.8      1.348      1.685
REMARK  5 active torsions:
REMARK  status: ('A' for Active; 'I' for Inactive)
REMARK    1  A    between atoms: C_2  and  C_4 
REMARK    2  A    between atoms: C_4  and  C_10 
REMARK    3  A    between atoms: S_8  and  C_6 
REMARK    4  A    between atoms: C_14  and  C_7 
REMARK    5  A    between atoms: C_10  and  S_8 
ROOT
ATOM      1  N   UNL d   1     -45.674  13.233  23.173  0.00  0.00    -0.148 NA
ATOM      2  N   UNL d   1     -46.431  13.488  23.378  0.00  0.00    -0.141 NA
ATOM      3  C   UNL d   1     -47.022  13.541  22.806  0.00  0.00     0.133 A 
ATOM      4  C   UNL d   1     -45.509  13.032  22.389  0.00  0.00     0.103 A 
ATOM      5  C   UNL d   1     -46.090  13.082  21.815  0.00  0.00     0.023 A 
ATOM      6  C   UNL d   1     -46.846  13.335  22.015  0.00  0.00     0.029 A 
ENDROOT
BRANCH   3   7
ATOM      7  S   UNL d   1     -47.770  13.793  23.012  0.00  0.00    -0.062 SA
BRANCH   7   8
ATOM      8  C   UNL d   1     -48.403  13.266  22.993  0.00  0.00     0.079 C 
BRANCH   8   9
ATOM      9  C   UNL d   1     -49.155  13.515  23.200  0.00  0.00     0.208 C 
ATOM     10  O   UNL d   1     -49.281  14.305  23.402  0.00  0.00    -0.285 OA
BRANCH   9  11
ATOM     11  C   UNL d   1     -49.784  12.990  23.210  0.00  0.00     0.069 A 
ATOM     12  S   UNL d   1     -50.449  13.031  22.729  0.00  0.00    -0.083 SA
ATOM     13  C   UNL d   1     -50.941  12.400  22.919  0.00  0.00     0.035 A 
ATOM     14  C   UNL d   1     -50.570  11.972  23.521  0.00  0.00     0.008 A 
ATOM     15  C   UNL d   1     -49.860  12.337  23.698  0.00  0.00     0.010 A 
ENDBRANCH   9  11
ENDBRANCH   8   9
ENDBRANCH   7   8
ENDBRANCH   3   7
BRANCH   4  16
ATOM     16  C   UNL d   1     -44.751  12.777  22.185  0.00  0.00     0.019 A 
ATOM     17  C   UNL d   1     -44.434  12.092  22.532  0.00  0.00     0.002 A 
ATOM     18  C   UNL d   1     -43.672  11.835  22.328  0.00  0.00     0.000 A 
ATOM     19  C   UNL d   1     -43.223  12.263  21.775  0.00  0.00     0.000 A 
ATOM     20  C   UNL d   1     -43.534  12.936  21.434  0.00  0.00     0.000 A 
ATOM     21  C   UNL d   1     -44.294  13.202  21.631  0.00  0.00     0.002 A 
ENDBRANCH   4  16
TORSDOF 5
ENDMDL
MODEL 4
REMARK VINA RESULT:      -5.7      7.924      8.945
REMARK  5 active torsions:
REMARK  status: ('A' for Active; 'I' for Inactive)
REMARK    1  A    between atoms: C_2  and  C_4 
REMARK    2  A    between atoms: C_4  and  C_10 
REMARK    3  A    between atoms: S_8  and  C_6 
REMARK    4  A    between atoms: C_14  and  C_7 
REMARK    5  A    between atoms: C_10  and  S_8 
ROOT
ATOM      1  N   UNL d   1     -38.971  13.959  20.768  0.00  0.00    -0.148 NA
ATOM      2  N   UNL d   1     -39.293  13.991  20.009  0.00  0.00    -0.141 NA
ATOM      3  C   UNL d   1     -40.049  14.296  19.889  0.00  0.00     0.133 A 
ATOM      4  C   UNL d   1     -39.412  14.236  21.410  0.00  0.00     0.103 A 
ATOM      5  C   UNL d   1     -40.164  14.541  21.298  0.00  0.00     0.023 A 
ATOM      6  C   UNL d   1     -40.487  14.574  20.544  0.00  0.00     0.029 A 
ENDROOT
BRANCH   3   7
ATOM      7  S   UNL d   1     -40.364  14.325  19.137  0.00  0.00    -0.062 SA
BRANCH   7   8
ATOM      8  C   UNL d   1     -39.909  14.605  18.509  0.00  0.00     0.079 C 
BRANCH   8   9
ATOM      9  C   UNL d   1     -40.221  14.635  17.753  0.00  0.00     0.208 C 
ATOM     10  O   UNL d   1     -40.955  14.289  17.602  0.00  0.00    -0.285 OA
BRANCH   9  11
ATOM     11  C   UNL d   1     -39.815  15.003  17.144  0.00  0.00     0.069 A 
ATOM     12  S   UNL d   1     -39.936  15.773  16.885  0.00  0.00    -0.083 SA
ATOM     13  C   UNL d   1     -39.414  15.920  16.266  0.00  0.00     0.035 A 
ATOM     14  C   UNL d   1     -38.972  15.231  16.150  0.00  0.00     0.008 A 
ATOM     15  C   UNL d   1     -39.220  14.669  16.690  0.00  0.00     0.010 A 
ENDBRANCH   9  11
ENDBRANCH   8   9
ENDBRANCH   7   8
ENDBRANCH   3   7
BRANCH   4  16
ATOM     16  C   UNL d   1     -39.090  14.205  22.169  0.00  0.00     0.019 A 
ATOM     17  C   UNL d   1     -38.869  14.906  22.557  0.00  0.00     0.002 A 
ATOM     18  C   UNL d   1     -38.545  14.875  23.320  0.00  0.00     0.000 A 
ATOM     19  C   UNL d   1     -38.439  14.143  23.698  0.00  0.00     0.000 A 
ATOM     20  C   UNL d   1     -38.655  13.454  23.317  0.00  0.00     0.000 A 
ATOM     21  C   UNL d   1     -38.981  13.473  22.554  0.00  0.00     0.002 A 
ENDBRANCH   4  16
TORSDOF 5
ENDMDL
MODEL 5
REMARK VINA RESULT:      -5.0      8.273      9.492
REMARK  5 active torsions:
REMARK  status: ('A' for Active; 'I' for Inactive)
REMARK    1  A    between atoms: C_2  and  C_4 
REMARK    2  A    between atoms: C_4  and  C_10 
REMARK    3  A    between atoms: S_8  and  C_6 
REMARK    4  A    between atoms: C_14  and  C_7 
REMARK    5  A    between atoms: C_10  and  S_8 
ROOT
ATOM      1  N   UNL d   1     -39.363  15.557  19.037  0.00  0.00    -0.148 NA
ATOM      2  N   UNL d   1     -39.114  15.584  19.823  0.00  0.00    -0.141 NA
ATOM      3  C   UNL d   1     -39.665  15.651  20.432  0.00  0.00     0.133 A 
ATOM      4  C   UNL d   1     -40.170  15.596  18.862  0.00  0.00     0.103 A 
ATOM      5  C   UNL d   1     -40.723  15.663  19.463  0.00  0.00     0.023 A 
ATOM      6  C   UNL d   1     -40.479  15.690  20.246  0.00  0.00     0.029 A 
ENDROOT
BRANCH   3   7
ATOM      7  S   UNL d   1     -39.415  15.678  21.208  0.00  0.00    -0.062 SA
BRANCH   7   8
ATOM      8  C   UNL d   1     -39.136  14.996  21.576  0.00  0.00     0.079 C 
BRANCH   8   9
ATOM      9  C   UNL d   1     -38.882  15.020  22.354  0.00  0.00     0.208 C 
ATOM     10  O   UNL d   1     -38.853  15.742  22.751  0.00  0.00    -0.285 OA
BRANCH   9  11
ATOM     11  C   UNL d   1     -38.657  14.335  22.745  0.00  0.00     0.069 A 
ATOM     12  S   UNL d   1     -37.940  13.946  22.653  0.00  0.00    -0.083 SA
ATOM     13  C   UNL d   1     -37.942  13.286  23.146  0.00  0.00     0.035 A 
ATOM     14  C   UNL d   1     -38.668  13.277  23.539  0.00  0.00     0.008 A 
ATOM     15  C   UNL d   1     -39.106  13.922  23.292  0.00  0.00     0.010 A 
ENDBRANCH   9  11
ENDBRANCH   8   9
ENDBRANCH   7   8
ENDBRANCH   3   7
BRANCH   4  16
ATOM     16  C   UNL d   1     -40.418  15.569  18.076  0.00  0.00     0.019 A 
ATOM     17  C   UNL d   1     -41.138  15.921  17.853  0.00  0.00     0.002 A 
ATOM     18  C   UNL d   1     -41.388  15.894  17.063  0.00  0.00     0.000 A 
ATOM     19  C   UNL d   1     -40.920  15.514  16.491  0.00  0.00     0.000 A 
ATOM     20  C   UNL d   1     -40.213  15.168  16.710  0.00  0.00     0.000 A 
ATOM     21  C   UNL d   1     -39.954  15.189  17.497  0.00  0.00     0.002 A 
ENDBRANCH   4  16
TORSDOF 5
ENDMDL
