MODEL 1
REMARK VINA RESULT:     103.9      0.000      0.000
REMARK  8 active torsions:
REMARK  status: ('A' for Active; 'I' for Inactive)
REMARK    1  A    between atoms: C_8  and  N_1 
REMARK    2  A    between atoms: C_7  and  N_3 
REMARK    3  A    between atoms: C_11  and  C_7 
REMARK    4  A    between atoms: C_20  and  C_8 
REMARK    5  A    between atoms: C_9  and  C_13 
REMARK       I    between atoms: N_16  and  C_9 
REMARK    6  A    between atoms: C_24  and  N_16 
REMARK    7  A    between atoms: C_27  and  C_24 
REMARK    8  A    between atoms: C_25  and  C_27 
ROOT
ATOM      1  N   UNL d   1     -47.526  29.527  34.883  0.00  0.00    -0.226 N 
ATOM      2  C   UNL d   1     -47.434  30.323  34.687  0.00  0.00     0.342 A 
ATOM      3  N   UNL d   1     -47.324  30.884  35.280  0.00  0.00    -0.259 N 
ATOM      4  C   UNL d   1     -47.509  29.284  35.675  0.00  0.00     0.270 A 
ATOM      5  C   UNL d   1     -47.398  29.854  36.265  0.00  0.00     0.073 A 
ATOM      6  C   UNL d   1     -47.306  30.650  36.068  0.00  0.00     0.073 A 
ATOM      7  O   UNL d   1     -47.453  30.559  33.885  0.00  0.00    -0.245 OA
ATOM      8  O   UNL d   1     -47.599  28.496  35.870  0.00  0.00    -0.266 OA
ATOM      9  C   UNL d   1     -47.380  29.611  37.056  0.00  0.00     0.006 A 
ATOM     10  C   UNL d   1     -47.196  31.210  36.661  0.00  0.00     0.018 A 
ATOM     11  C   UNL d   1     -47.269  30.181  37.651  0.00  0.00     0.000 A 
ATOM     12  C   UNL d   1     -47.177  30.977  37.454  0.00  0.00     0.002 A 
ENDROOT
BRANCH   1  13
ATOM     13  C   UNL d   1     -47.638  28.955  34.281  0.00  0.00     0.087 C 
BRANCH  13  14
ATOM     14  C   UNL d   1     -48.246  28.412  34.339  0.00  0.00     0.018 A 
ATOM     15  C   UNL d   1     -48.093  27.649  34.606  0.00  0.00     0.002 A 
ATOM     16  C   UNL d   1     -48.712  27.095  34.665  0.00  0.00     0.005 A 
ATOM     17  C   UNL d   1     -49.480  27.311  34.456  0.00  0.00     0.058 A 
ATOM     18  C   UNL d   1     -49.637  28.080  34.186  0.00  0.00     0.005 A 
ATOM     19  C   UNL d   1     -49.017  28.633  34.127  0.00  0.00     0.002 A 
BRANCH  17  20
ATOM     20  C   UNL d   1     -50.094  26.763  34.514  0.00  0.00     0.279 C 
ATOM     21  O   UNL d   1     -50.490  26.662  35.229  0.00  0.00    -0.265 OA
ATOM     22  N   UNL d   1     -50.311  26.316  33.858  0.00  0.00    -0.206 NA
BRANCH  22  23
ATOM     23  C   UNL d   1     -50.925  25.768  33.916  0.00  0.00     0.102 C 
BRANCH  23  24
ATOM     24  C   UNL d   1     -51.016  25.188  33.339  0.00  0.00     0.021 C 
BRANCH  24  25
ATOM     25  C   UNL d   1     -51.639  24.643  33.392  0.00  0.00     0.002 A 
ATOM     26  C   UNL d   1     -51.475  23.841  33.522  0.00  0.00     0.000 A 
ATOM     27  C   UNL d   1     -52.102  23.293  33.575  0.00  0.00     0.000 A 
ATOM     28  C   UNL d   1     -52.885  23.555  33.498  0.00  0.00     0.000 A 
ATOM     29  C   UNL d   1     -53.045  24.352  33.368  0.00  0.00     0.000 A 
ATOM     30  C   UNL d   1     -52.418  24.900  33.315  0.00  0.00     0.000 A 
ENDBRANCH  24  25
ENDBRANCH  23  24
ENDBRANCH  22  23
ENDBRANCH  17  20
ENDBRANCH  13  14
ENDBRANCH   1  13
BRANCH   3  31
ATOM     31  C   UNL d   1     -47.233  31.680  35.083  0.00  0.00     0.084 C 
BRANCH  31  32
ATOM     32  C   UNL d   1     -47.822  32.072  34.661  0.00  0.00     0.018 A 
ATOM     33  C   UNL d   1     -47.623  32.691  34.147  0.00  0.00     0.001 A 
ATOM     34  C   UNL d   1     -46.821  32.925  34.053  0.00  0.00     0.000 C 
ATOM     35  C   UNL d   1     -48.212  33.083  33.726  0.00  0.00     0.000 A 
ATOM     36  C   UNL d   1     -48.999  32.857  33.815  0.00  0.00     0.000 A 
ATOM     37  C   UNL d   1     -49.198  32.237  34.328  0.00  0.00     0.000 A 
ATOM     38  C   UNL d   1     -48.608  31.846  34.751  0.00  0.00     0.002 A 
ENDBRANCH  31  32
ENDBRANCH   3  31
TORSDOF 8
ENDMDL
