MODEL 1
REMARK VINA RESULT:      99.8      0.000      0.000
REMARK  7 active torsions:
REMARK  status: ('A' for Active; 'I' for Inactive)
REMARK    1  A    between atoms: C_12  and  C_1 
REMARK    2  A    between atoms: C_14  and  C_4 
REMARK       I    between atoms: C_10  and  N_9 
REMARK    3  A    between atoms: O_22  and  C_10 
REMARK    4  A    between atoms: O_23  and  C_12 
REMARK    5  A    between atoms: N_13  and  C_14 
REMARK    6  A    between atoms: C_27  and  O_22 
REMARK    7  A    between atoms: C_28  and  O_23 
ROOT
ATOM      1  C   UNL d   1     -55.266-101.112 -42.760  0.00  0.00     0.088 A 
ATOM      2  C   UNL d   1     -55.277-101.100 -43.579  0.00  0.00     0.034 A 
ATOM      3  C   UNL d   1     -55.034-101.842 -43.860  0.00  0.00     0.100 A 
ATOM      4  C   UNL d   1     -55.480-100.503 -44.121  0.00  0.00     0.059 A 
ATOM      5  C   UNL d   1     -55.011-101.876 -42.521  0.00  0.00     0.105 A 
ATOM      6  O   UNL d   1     -54.871-102.316 -43.197  0.00  0.00    -0.307 OA
ATOM      7  C   UNL d   1     -55.439-100.648 -44.925  0.00  0.00     0.197 A 
ATOM      8  C   UNL d   1     -54.996-101.978 -44.671  0.00  0.00     0.026 A 
ATOM      9  C   UNL d   1     -55.197-101.385 -45.200  0.00  0.00     0.041 A 
ATOM     10  O   UNL d   1     -55.640-100.053 -45.470  0.00  0.00    -0.286 OA
ATOM     11  C   UNL d   1     -54.922-102.126 -41.747  0.00  0.00     0.027 C 
ATOM     12  C   UNL d   1     -54.754-102.719 -44.949  0.00  0.00     0.002 A 
ATOM     13  C   UNL d   1     -55.157-101.527 -46.011  0.00  0.00     0.003 A 
ATOM     14  C   UNL d   1     -54.918-102.259 -46.285  0.00  0.00     0.000 A 
ATOM     15  C   UNL d   1     -54.714-102.860 -45.749  0.00  0.00     0.000 A 
ENDROOT
BRANCH   4  16
ATOM     16  C   UNL d   1     -55.723 -99.760 -43.840  0.00  0.00     0.084 C 
BRANCH  16  17
ATOM     17  N   UNL d   1     -56.522 -99.541 -43.911  0.00  0.00    -0.300 N 
ATOM     18  C   UNL d   1     -56.842 -99.413 -44.659  0.00  0.00     0.100 A 
ATOM     19  C   UNL d   1     -57.641 -99.194 -44.729  0.00  0.00     0.104 A 
ATOM     20  N   UNL d   1     -58.104 -99.107 -44.055  0.00  0.00    -0.249 N 
ATOM     21  C   UNL d   1     -57.776 -99.237 -43.306  0.00  0.00     0.104 A 
ATOM     22  C   UNL d   1     -58.874 -98.895 -44.124  0.00  0.00     0.378 C 
ATOM     23  C   UNL d   1     -56.989 -99.452 -43.237  0.00  0.00     0.100 A 
ATOM     24  O   UNL d   1     -59.349 -98.804 -43.453  0.00  0.00    -0.237 OA
BRANCH  22  25
ATOM     25  O   UNL d   1     -59.210 -98.763 -44.872  0.00  0.00    -0.257 OA
BRANCH  25  26
ATOM     26  C   UNL d   1     -58.982 -99.247 -45.505  0.00  0.00     0.128 C 
ATOM     27  C   UNL d   1     -59.132 -99.000 -46.280  0.00  0.00     0.029 C 
ENDBRANCH  25  26
ENDBRANCH  22  25
ENDBRANCH  16  17
ENDBRANCH   4  16
BRANCH   1  28
ATOM     28  C   UNL d   1     -55.470-100.483 -42.273  0.00  0.00     0.302 C 
ATOM     29  O   UNL d   1     -56.047 -99.945 -42.495  0.00  0.00    -0.259 OA
BRANCH  28  30
ATOM     30  O   UNL d   1     -55.083-100.395 -41.545  0.00  0.00    -0.271 OA
BRANCH  30  31
ATOM     31  C   UNL d   1     -55.104 -99.670 -41.153  0.00  0.00     0.126 C 
ATOM     32  C   UNL d   1     -54.716 -99.013 -41.480  0.00  0.00     0.029 C 
ENDBRANCH  30  31
ENDBRANCH  28  30
ENDBRANCH   1  28
TORSDOF 7
ENDMDL
