MODEL 1
REMARK VINA RESULT:      -3.4      0.000      0.000
REMARK  5 active torsions:
REMARK  status: ('A' for Active; 'I' for Inactive)
REMARK    1  A    between atoms: N_4  and  C_1 
REMARK    2  A    between atoms: C_10  and  C_3 
REMARK       I    between atoms: C_7  and  N_4 
REMARK    3  A    between atoms: C_8  and  C_7 
REMARK    4  A    between atoms: C_9  and  C_8 
REMARK    5  A    between atoms: C_12  and  C_9 
ROOT
ATOM      1  C   UNL d   1      32.678  18.650 -23.473  0.00  0.00     0.197 A 
ATOM      2  N   UNL d   1      31.942  18.291 -23.535  0.00  0.00    -0.221 NA
ATOM      3  C   UNL d   1      32.037  17.557 -23.876  0.00  0.00     0.090 A 
ATOM      4  S   UNL d   1      33.237  18.145 -23.774  0.00  0.00    -0.046 SA
ATOM      5  C   UNL d   1      32.845  17.465 -24.026  0.00  0.00     0.058 A 
ENDROOT
BRANCH   1   6
ATOM      6  N   UNL d   1      32.820  19.415 -23.149  0.00  0.00    -0.183 NA
ATOM      7  C   UNL d   1      33.099  19.483 -22.377  0.00  0.00     0.281 C 
ATOM      8  O   UNL d   1      33.238  18.829 -21.928  0.00  0.00    -0.265 OA
BRANCH   7   9
ATOM      9  C   UNL d   1      33.240  20.232 -22.055  0.00  0.00     0.063 C 
BRANCH   9  10
ATOM     10  C   UNL d   1      32.618  20.691 -21.779  0.00  0.00     0.005 C 
BRANCH  10  11
ATOM     11  C   UNL d   1      32.762  21.414 -21.408  0.00  0.00     0.000 A 
ATOM     12  C   UNL d   1      32.646  21.479 -20.612  0.00  0.00     0.000 A 
ATOM     13  C   UNL d   1      32.784  22.177 -20.244  0.00  0.00     0.000 A 
ATOM     14  C   UNL d   1      33.050  22.847 -20.677  0.00  0.00     0.000 A 
ATOM     15  C   UNL d   1      33.168  22.785 -21.481  0.00  0.00     0.000 A 
ATOM     16  C   UNL d   1      33.023  22.061 -21.853  0.00  0.00     0.000 A 
ENDBRANCH  10  11
ENDBRANCH   9  10
ENDBRANCH   7   9
ENDBRANCH   1   6
BRANCH   3  17
ATOM     17  C   UNL d   1      31.406  17.040 -24.023  0.00  0.00     0.018 A 
ATOM     18  C   UNL d   1      31.298  16.394 -23.557  0.00  0.00     0.002 A 
ATOM     19  C   UNL d   1      30.661  15.888 -23.718  0.00  0.00     0.000 A 
ATOM     20  C   UNL d   1      30.152  16.041 -24.339  0.00  0.00     0.000 A 
ATOM     21  C   UNL d   1      30.269  16.705 -24.812  0.00  0.00     0.000 A 
ATOM     22  C   UNL d   1      30.887  17.197 -24.656  0.00  0.00     0.002 A 
ENDBRANCH   3  17
TORSDOF 5
ENDMDL
MODEL 2
REMARK VINA RESULT:      -2.8      1.098      1.694
REMARK  5 active torsions:
REMARK  status: ('A' for Active; 'I' for Inactive)
REMARK    1  A    between atoms: N_4  and  C_1 
REMARK    2  A    between atoms: C_10  and  C_3 
REMARK       I    between atoms: C_7  and  N_4 
REMARK    3  A    between atoms: C_8  and  C_7 
REMARK    4  A    between atoms: C_9  and  C_8 
REMARK    5  A    between atoms: C_12  and  C_9 
ROOT
ATOM      1  C   UNL d   1      32.237  16.975 -23.357  0.00  0.00     0.197 A 
ATOM      2  N   UNL d   1      31.421  16.882 -23.358  0.00  0.00    -0.221 NA
ATOM      3  C   UNL d   1      31.228  16.257 -23.846  0.00  0.00     0.090 A 
ATOM      4  S   UNL d   1      32.560  16.411 -23.843  0.00  0.00    -0.046 SA
ATOM      5  C   UNL d   1      31.939  15.963 -24.149  0.00  0.00     0.058 A 
ENDROOT
BRANCH   1   6
ATOM      6  N   UNL d   1      32.659  17.560 -22.923  0.00  0.00    -0.183 NA
ATOM      7  C   UNL d   1      32.734  18.319 -23.232  0.00  0.00     0.281 C 
ATOM      8  O   UNL d   1      32.409  18.510 -23.945  0.00  0.00    -0.265 OA
BRANCH   7   9
ATOM      9  C   UNL d   1      33.147  18.897 -22.809  0.00  0.00     0.063 C 
BRANCH   9  10
ATOM     10  C   UNL d   1      32.973  19.693 -22.911  0.00  0.00     0.005 C 
BRANCH  10  11
ATOM     11  C   UNL d   1      33.063  20.226 -22.286  0.00  0.00     0.000 A 
ATOM     12  C   UNL d   1      33.153  19.942 -21.536  0.00  0.00     0.000 A 
ATOM     13  C   UNL d   1      33.241  20.452 -20.925  0.00  0.00     0.000 A 
ATOM     14  C   UNL d   1      33.241  21.283 -21.053  0.00  0.00     0.000 A 
ATOM     15  C   UNL d   1      33.150  21.573 -21.809  0.00  0.00     0.000 A 
ATOM     16  C   UNL d   1      33.060  21.040 -22.435  0.00  0.00     0.000 A 
ENDBRANCH  10  11
ENDBRANCH   9  10
ENDBRANCH   7   9
ENDBRANCH   1   6
BRANCH   3  17
ATOM     17  C   UNL d   1      30.450  16.008 -23.977  0.00  0.00     0.018 A 
ATOM     18  C   UNL d   1      30.147  16.003 -24.722  0.00  0.00     0.002 A 
ATOM     19  C   UNL d   1      29.366  15.750 -24.835  0.00  0.00     0.000 A 
ATOM     20  C   UNL d   1      28.909  15.509 -24.201  0.00  0.00     0.000 A 
ATOM     21  C   UNL d   1      29.225  15.516 -23.441  0.00  0.00     0.000 A 
ATOM     22  C   UNL d   1      29.984  15.762 -23.331  0.00  0.00     0.002 A 
ENDBRANCH   3  17
TORSDOF 5
ENDMDL
MODEL 3
REMARK VINA RESULT:      -1.9      0.961      5.357
REMARK  5 active torsions:
REMARK  status: ('A' for Active; 'I' for Inactive)
REMARK    1  A    between atoms: N_4  and  C_1 
REMARK    2  A    between atoms: C_10  and  C_3 
REMARK       I    between atoms: C_7  and  N_4 
REMARK    3  A    between atoms: C_8  and  C_7 
REMARK    4  A    between atoms: C_9  and  C_8 
REMARK    5  A    between atoms: C_12  and  C_9 
ROOT
ATOM      1  C   UNL d   1      32.190  18.741 -23.503  0.00  0.00     0.197 A 
ATOM      2  N   UNL d   1      32.113  19.160 -22.801  0.00  0.00    -0.221 NA
ATOM      3  C   UNL d   1      32.759  19.650 -22.715  0.00  0.00     0.090 A 
ATOM      4  S   UNL d   1      32.884  18.964 -23.860  0.00  0.00    -0.046 SA
ATOM      5  C   UNL d   1      33.241  19.528 -23.376  0.00  0.00     0.058 A 
ENDROOT
BRANCH   1   6
ATOM      6  N   UNL d   1      31.639  18.176 -23.794  0.00  0.00    -0.183 NA
ATOM      7  C   UNL d   1      31.875  17.393 -23.895  0.00  0.00     0.281 C 
ATOM      8  O   UNL d   1      32.626  17.161 -23.719  0.00  0.00    -0.265 OA
BRANCH   7   9
ATOM      9  C   UNL d   1      31.337  16.834 -24.182  0.00  0.00     0.063 C 
BRANCH   9  10
ATOM     10  C   UNL d   1      31.004  16.279 -23.676  0.00  0.00     0.005 C 
BRANCH  10  11
ATOM     11  C   UNL d   1      30.237  16.002 -23.804  0.00  0.00     0.000 A 
ATOM     12  C   UNL d   1      29.805  15.733 -23.178  0.00  0.00     0.000 A 
ATOM     13  C   UNL d   1      29.060  15.462 -23.294  0.00  0.00     0.000 A 
ATOM     14  C   UNL d   1      28.718  15.454 -24.062  0.00  0.00     0.000 A 
ATOM     15  C   UNL d   1      29.152  15.725 -24.697  0.00  0.00     0.000 A 
ATOM     16  C   UNL d   1      29.920  16.003 -24.569  0.00  0.00     0.000 A 
ENDBRANCH  10  11
ENDBRANCH   9  10
ENDBRANCH   7   9
ENDBRANCH   1   6
BRANCH   3  17
ATOM     17  C   UNL d   1      32.863  20.155 -22.067  0.00  0.00     0.018 A 
ATOM     18  C   UNL d   1      33.118  19.861 -21.364  0.00  0.00     0.002 A 
ATOM     19  C   UNL d   1      33.216  20.380 -20.725  0.00  0.00     0.000 A 
ATOM     20  C   UNL d   1      33.056  21.178 -20.807  0.00  0.00     0.000 A 
ATOM     21  C   UNL d   1      32.795  21.473 -21.530  0.00  0.00     0.000 A 
ATOM     22  C   UNL d   1      32.700  20.968 -22.151  0.00  0.00     0.002 A 
ENDBRANCH   3  17
TORSDOF 5
ENDMDL
MODEL 4
REMARK VINA RESULT:      -1.3      2.104      5.808
REMARK  5 active torsions:
REMARK  status: ('A' for Active; 'I' for Inactive)
REMARK    1  A    between atoms: N_4  and  C_1 
REMARK    2  A    between atoms: C_10  and  C_3 
REMARK       I    between atoms: C_7  and  N_4 
REMARK    3  A    between atoms: C_8  and  C_7 
REMARK    4  A    between atoms: C_9  and  C_8 
REMARK    5  A    between atoms: C_12  and  C_9 
ROOT
ATOM      1  C   UNL d   1      32.972  22.234 -22.066  0.00  0.00     0.197 A 
ATOM      2  N   UNL d   1      32.965  22.278 -21.247  0.00  0.00    -0.221 NA
ATOM      3  C   UNL d   1      32.674  23.007 -21.025  0.00  0.00     0.090 A 
ATOM      4  S   UNL d   1      32.688  22.934 -22.364  0.00  0.00    -0.046 SA
ATOM      5  C   UNL d   1      32.501  23.417 -21.722  0.00  0.00     0.058 A 
ENDROOT
BRANCH   1   6
ATOM      6  N   UNL d   1      33.233  21.572 -22.516  0.00  0.00    -0.183 NA
ATOM      7  C   UNL d   1      32.898  20.831 -22.379  0.00  0.00     0.281 C 
ATOM      8  O   UNL d   1      32.325  20.734 -21.821  0.00  0.00    -0.265 OA
BRANCH   7   9
ATOM      9  C   UNL d   1      33.151  20.177 -22.817  0.00  0.00     0.063 C 
BRANCH   9  10
ATOM     10  C   UNL d   1      33.226  19.441 -22.461  0.00  0.00     0.005 C 
BRANCH  10  11
ATOM     11  C   UNL d   1      33.176  18.750 -22.911  0.00  0.00     0.000 A 
ATOM     12  C   UNL d   1      33.241  18.035 -22.544  0.00  0.00     0.000 A 
ATOM     13  C   UNL d   1      33.193  17.360 -22.974  0.00  0.00     0.000 A 
ATOM     14  C   UNL d   1      33.076  17.387 -23.806  0.00  0.00     0.000 A 
ATOM     15  C   UNL d   1      33.010  18.108 -24.180  0.00  0.00     0.000 A 
ATOM     16  C   UNL d   1      33.060  18.799 -23.730  0.00  0.00     0.000 A 
ENDBRANCH  10  11
ENDBRANCH   9  10
ENDBRANCH   7   9
ENDBRANCH   1   6
BRANCH   3  17
ATOM     17  C   UNL d   1      32.590  23.240 -20.235  0.00  0.00     0.018 A 
ATOM     18  C   UNL d   1      33.239  23.341 -19.773  0.00  0.00     0.002 A 
ATOM     19  C   UNL d   1      33.137  23.575 -18.984  0.00  0.00     0.000 A 
ATOM     20  C   UNL d   1      32.388  23.702 -18.680  0.00  0.00     0.000 A 
ATOM     21  C   UNL d   1      31.727  23.597 -19.159  0.00  0.00     0.000 A 
ATOM     22  C   UNL d   1      31.826  23.370 -19.925  0.00  0.00     0.002 A 
ENDBRANCH   3  17
TORSDOF 5
ENDMDL
