MODEL 1
REMARK VINA RESULT:      -2.9      0.000      0.000
REMARK  5 active torsions:
REMARK  status: ('A' for Active; 'I' for Inactive)
REMARK    1  A    between atoms: N_2  and  S_1 
REMARK    2  A    between atoms: C_4  and  S_1 
REMARK    3  A    between atoms: C_3  and  N_2 
REMARK    4  A    between atoms: O_19  and  C_13 
REMARK    5  A    between atoms: C_20  and  O_19 
ROOT
ATOM      1  S   UNL d   1      32.796  21.046 -21.658  0.00  0.00     0.327 S 
ATOM      2  O   UNL d   1      33.241  21.487 -22.196  0.00  0.00    -0.186 OA
ATOM      3  O   UNL d   1      32.351  20.600 -21.122  0.00  0.00    -0.186 OA
ENDROOT
BRANCH   1   4
ATOM      4  N   UNL d   1      32.691  21.717 -21.186  0.00  0.00    -0.314 NA
BRANCH   4   5
ATOM      5  C   UNL d   1      32.587  22.379 -20.704  0.00  0.00     0.185 A 
ATOM      6  C   UNL d   1      32.961  22.416 -19.971  0.00  0.00     0.048 A 
ATOM      7  C   UNL d   1      32.858  23.072 -19.494  0.00  0.00     0.060 A 
ATOM      8 CL   UNL d   1      33.232  23.111 -18.759  0.00  0.00    -0.082 Cl
ATOM      9  C   UNL d   1      32.381  23.696 -19.746  0.00  0.00     0.015 A 
ATOM     10  C   UNL d   1      32.007  23.657 -20.481  0.00  0.00     0.046 A 
ATOM     11  C   UNL d   1      32.112  22.993 -20.963  0.00  0.00     0.226 A 
ATOM     12  O   UNL d   1      31.738  22.954 -21.698  0.00  0.00    -0.284 OA
ENDBRANCH   4   5
ENDBRANCH   1   4
BRANCH   1  13
ATOM     13  C   UNL d   1      32.898  20.372 -22.127  0.00  0.00     0.117 A 
ATOM     14  C   UNL d   1      32.766  20.415 -22.938  0.00  0.00     0.016 A 
ATOM     15  C   UNL d   1      32.866  19.745 -23.410  0.00  0.00     0.025 A 
ATOM     16  C   UNL d   1      33.102  19.026 -23.065  0.00  0.00     0.100 A 
ATOM     17  C   UNL d   1      33.233  18.992 -22.247  0.00  0.00     0.025 A 
ATOM     18  C   UNL d   1      33.131  19.663 -21.780  0.00  0.00     0.016 A 
BRANCH  16  19
ATOM     19  O   UNL d   1      33.204  18.352 -23.534  0.00  0.00    -0.305 OA
BRANCH  19  20
ATOM     20  C   UNL d   1      32.550  17.989 -23.878  0.00  0.00     0.123 C 
ATOM     21  C   UNL d   1      32.521  17.167 -23.957  0.00  0.00     0.029 C 
ENDBRANCH  19  20
ENDBRANCH  16  19
ENDBRANCH   1  13
TORSDOF 5
ENDMDL
MODEL 2
REMARK VINA RESULT:      -2.3      2.215      4.999
REMARK  5 active torsions:
REMARK  status: ('A' for Active; 'I' for Inactive)
REMARK    1  A    between atoms: N_2  and  S_1 
REMARK    2  A    between atoms: C_4  and  S_1 
REMARK    3  A    between atoms: C_3  and  N_2 
REMARK    4  A    between atoms: O_19  and  C_13 
REMARK    5  A    between atoms: C_20  and  O_19 
ROOT
ATOM      1  S   UNL d   1      32.988  19.747 -22.530  0.00  0.00     0.327 S 
ATOM      2  O   UNL d   1      32.736  20.246 -23.139  0.00  0.00    -0.186 OA
ATOM      3  O   UNL d   1      33.241  19.251 -21.918  0.00  0.00    -0.186 OA
ENDROOT
BRANCH   1   4
ATOM      4  N   UNL d   1      32.929  19.094 -23.034  0.00  0.00    -0.314 NA
BRANCH   4   5
ATOM      5  C   UNL d   1      32.862  18.436 -23.529  0.00  0.00     0.185 A 
ATOM      6  C   UNL d   1      32.648  17.706 -23.213  0.00  0.00     0.048 A 
ATOM      7  C   UNL d   1      32.582  17.054 -23.703  0.00  0.00     0.060 A 
ATOM      8 CL   UNL d   1      32.367  16.322 -23.390  0.00  0.00    -0.082 Cl
ATOM      9  C   UNL d   1      32.729  17.128 -24.511  0.00  0.00     0.015 A 
ATOM     10  C   UNL d   1      32.944  17.861 -24.825  0.00  0.00     0.046 A 
ATOM     11  C   UNL d   1      33.011  18.520 -24.330  0.00  0.00     0.226 A 
ATOM     12  O   UNL d   1      33.225  19.252 -24.643  0.00  0.00    -0.284 OA
ENDBRANCH   4   5
ENDBRANCH   1   4
BRANCH   1  13
ATOM     13  C   UNL d   1      33.049  20.397 -22.023  0.00  0.00     0.117 A 
ATOM     14  C   UNL d   1      32.977  20.289 -21.210  0.00  0.00     0.016 A 
ATOM     15  C   UNL d   1      33.037  20.935 -20.699  0.00  0.00     0.025 A 
ATOM     16  C   UNL d   1      33.170  21.696 -21.007  0.00  0.00     0.100 A 
ATOM     17  C   UNL d   1      33.241  21.796 -21.827  0.00  0.00     0.025 A 
ATOM     18  C   UNL d   1      33.180  21.149 -22.332  0.00  0.00     0.016 A 
BRANCH  16  19
ATOM     19  O   UNL d   1      33.231  22.346 -20.499  0.00  0.00    -0.305 OA
BRANCH  19  20
ATOM     20  C   UNL d   1      32.603  22.875 -20.434  0.00  0.00     0.123 C 
ATOM     21  C   UNL d   1      32.625  23.483 -19.873  0.00  0.00     0.029 C 
ENDBRANCH  19  20
ENDBRANCH  16  19
ENDBRANCH   1  13
TORSDOF 5
ENDMDL
MODEL 3
REMARK VINA RESULT:      -1.8      1.664      2.207
REMARK  5 active torsions:
REMARK  status: ('A' for Active; 'I' for Inactive)
REMARK    1  A    between atoms: N_2  and  S_1 
REMARK    2  A    between atoms: C_4  and  S_1 
REMARK    3  A    between atoms: C_3  and  N_2 
REMARK    4  A    between atoms: O_19  and  C_13 
REMARK    5  A    between atoms: C_20  and  O_19 
ROOT
ATOM      1  S   UNL d   1      32.952  19.502 -22.688  0.00  0.00     0.327 S 
ATOM      2  O   UNL d   1      32.711  19.921 -23.358  0.00  0.00    -0.186 OA
ATOM      3  O   UNL d   1      33.192  19.079 -22.020  0.00  0.00    -0.186 OA
ENDROOT
BRANCH   1   4
ATOM      4  N   UNL d   1      33.028  20.210 -22.267  0.00  0.00    -0.314 NA
BRANCH   4   5
ATOM      5  C   UNL d   1      33.098  20.923 -21.856  0.00  0.00     0.185 A 
ATOM      6  C   UNL d   1      33.120  21.634 -22.269  0.00  0.00     0.048 A 
ATOM      7  C   UNL d   1      33.190  22.340 -21.862  0.00  0.00     0.060 A 
ATOM      8 CL   UNL d   1      33.213  23.054 -22.274  0.00  0.00    -0.082 Cl
ATOM      9  C   UNL d   1      33.236  22.339 -21.038  0.00  0.00     0.015 A 
ATOM     10  C   UNL d   1      33.214  21.625 -20.626  0.00  0.00     0.046 A 
ATOM     11  C   UNL d   1      33.144  20.911 -21.038  0.00  0.00     0.226 A 
ATOM     12  O   UNL d   1      33.121  20.197 -20.626  0.00  0.00    -0.284 OA
ENDBRANCH   4   5
ENDBRANCH   1   4
BRANCH   1  13
ATOM     13  C   UNL d   1      32.877  18.792 -23.106  0.00  0.00     0.117 A 
ATOM     14  C   UNL d   1      33.134  18.748 -23.886  0.00  0.00     0.016 A 
ATOM     15  C   UNL d   1      33.062  18.041 -24.307  0.00  0.00     0.025 A 
ATOM     16  C   UNL d   1      32.729  17.373 -23.941  0.00  0.00     0.100 A 
ATOM     17  C   UNL d   1      32.472  17.427 -23.154  0.00  0.00     0.025 A 
ATOM     18  C   UNL d   1      32.546  18.133 -22.739  0.00  0.00     0.016 A 
BRANCH  16  19
ATOM     19  O   UNL d   1      32.654  16.663 -24.358  0.00  0.00    -0.305 OA
BRANCH  19  20
ATOM     20  C   UNL d   1      31.906  16.372 -24.541  0.00  0.00     0.123 C 
ATOM     21  C   UNL d   1      31.824  15.676 -24.981  0.00  0.00     0.029 C 
ENDBRANCH  19  20
ENDBRANCH  16  19
ENDBRANCH   1  13
TORSDOF 5
ENDMDL
MODEL 4
REMARK VINA RESULT:      -0.8      4.795      6.301
REMARK  5 active torsions:
REMARK  status: ('A' for Active; 'I' for Inactive)
REMARK    1  A    between atoms: N_2  and  S_1 
REMARK    2  A    between atoms: C_4  and  S_1 
REMARK    3  A    between atoms: C_3  and  N_2 
REMARK    4  A    between atoms: O_19  and  C_13 
REMARK    5  A    between atoms: C_20  and  O_19 
ROOT
ATOM      1  S   UNL d   1      30.324  16.820 -24.121  0.00  0.00     0.327 S 
ATOM      2  O   UNL d   1      30.665  16.404 -23.494  0.00  0.00    -0.186 OA
ATOM      3  O   UNL d   1      29.979  17.236 -24.747  0.00  0.00    -0.186 OA
ENDROOT
BRANCH   1   4
ATOM      4  N   UNL d   1      31.056  17.165 -24.296  0.00  0.00    -0.314 NA
BRANCH   4   5
ATOM      5  C   UNL d   1      31.786  17.503 -24.483  0.00  0.00     0.185 A 
ATOM      6  C   UNL d   1      31.943  18.282 -24.268  0.00  0.00     0.048 A 
ATOM      7  C   UNL d   1      32.666  18.617 -24.453  0.00  0.00     0.060 A 
ATOM      8 CL   UNL d   1      32.827  19.398 -24.239  0.00  0.00    -0.082 Cl
ATOM      9  C   UNL d   1      33.236  18.175 -24.853  0.00  0.00     0.015 A 
ATOM     10  C   UNL d   1      33.076  17.395 -25.067  0.00  0.00     0.046 A 
ATOM     11  C   UNL d   1      32.345  17.056 -24.881  0.00  0.00     0.226 A 
ATOM     12  O   UNL d   1      32.184  16.276 -25.094  0.00  0.00    -0.284 OA
ENDBRANCH   4   5
ENDBRANCH   1   4
BRANCH   1  13
ATOM     13  C   UNL d   1      29.591  16.478 -23.949  0.00  0.00     0.117 A 
ATOM     14  C   UNL d   1      28.925  16.707 -24.373  0.00  0.00     0.016 A 
ATOM     15  C   UNL d   1      28.191  16.368 -24.206  0.00  0.00     0.025 A 
ATOM     16  C   UNL d   1      28.125  15.795 -23.607  0.00  0.00     0.100 A 
ATOM     17  C   UNL d   1      28.803  15.570 -23.185  0.00  0.00     0.025 A 
ATOM     18  C   UNL d   1      29.532  15.911 -23.355  0.00  0.00     0.016 A 
BRANCH  16  19
ATOM     19  O   UNL d   1      27.392  15.453 -23.435  0.00  0.00    -0.305 OA
BRANCH  19  20
ATOM     20  C   UNL d   1      26.772  15.924 -23.169  0.00  0.00     0.123 C 
ATOM     21  C   UNL d   1      26.015  15.605 -23.071  0.00  0.00     0.029 C 
ENDBRANCH  19  20
ENDBRANCH  16  19
ENDBRANCH   1  13
TORSDOF 5
ENDMDL
MODEL 5
REMARK VINA RESULT:      -0.4      2.910      3.522
REMARK  5 active torsions:
REMARK  status: ('A' for Active; 'I' for Inactive)
REMARK    1  A    between atoms: N_2  and  S_1 
REMARK    2  A    between atoms: C_4  and  S_1 
REMARK    3  A    between atoms: C_3  and  N_2 
REMARK    4  A    between atoms: O_19  and  C_13 
REMARK    5  A    between atoms: C_20  and  O_19 
ROOT
ATOM      1  S   UNL d   1      32.772  22.932 -20.509  0.00  0.00     0.327 S 
ATOM      2  O   UNL d   1      33.146  22.220 -20.695  0.00  0.00    -0.186 OA
ATOM      3  O   UNL d   1      32.397  23.647 -20.326  0.00  0.00    -0.186 OA
ENDROOT
BRANCH   1   4
ATOM      4  N   UNL d   1      32.859  22.773 -19.702  0.00  0.00    -0.314 NA
BRANCH   4   5
ATOM      5  C   UNL d   1      32.947  22.626 -18.894  0.00  0.00     0.185 A 
ATOM      6  C   UNL d   1      32.843  23.237 -18.352  0.00  0.00     0.048 A 
ATOM      7  C   UNL d   1      32.929  23.092 -17.552  0.00  0.00     0.060 A 
ATOM      8 CL   UNL d   1      32.826  23.702 -17.007  0.00  0.00    -0.082 Cl
ATOM      9  C   UNL d   1      33.121  22.334 -17.288  0.00  0.00     0.015 A 
ATOM     10  C   UNL d   1      33.225  21.723 -17.833  0.00  0.00     0.046 A 
ATOM     11  C   UNL d   1      33.137  21.870 -18.642  0.00  0.00     0.226 A 
ATOM     12  O   UNL d   1      33.241  21.259 -19.186  0.00  0.00    -0.284 OA
ENDBRANCH   4   5
ENDBRANCH   1   4
BRANCH   1  13
ATOM     13  C   UNL d   1      32.683  23.097 -21.314  0.00  0.00     0.117 A 
ATOM     14  C   UNL d   1      32.037  23.536 -21.572  0.00  0.00     0.016 A 
ATOM     15  C   UNL d   1      31.944  23.702 -22.376  0.00  0.00     0.025 A 
ATOM     16  C   UNL d   1      32.504  23.425 -22.924  0.00  0.00     0.100 A 
ATOM     17  C   UNL d   1      33.152  22.983 -22.655  0.00  0.00     0.025 A 
ATOM     18  C   UNL d   1      33.240  22.820 -21.853  0.00  0.00     0.016 A 
BRANCH  16  19
ATOM     19  O   UNL d   1      32.415  23.589 -23.730  0.00  0.00    -0.305 OA
BRANCH  19  20
ATOM     20  C   UNL d   1      33.042  23.457 -24.247  0.00  0.00     0.123 C 
ATOM     21  C   UNL d   1      32.978  23.667 -25.045  0.00  0.00     0.029 C 
ENDBRANCH  19  20
ENDBRANCH  16  19
ENDBRANCH   1  13
TORSDOF 5
ENDMDL
