MODEL 1
REMARK VINA RESULT:     106.6      0.000      0.000
REMARK  6 active torsions:
REMARK  status: ('A' for Active; 'I' for Inactive)
REMARK    1  A    between atoms: N_7  and  C_1 
REMARK    2  A    between atoms: C_6  and  C_4 
REMARK    3  A    between atoms: C_20  and  N_9 
REMARK    4  A    between atoms: C_23  and  C_13 
REMARK    5  A    between atoms: O_19  and  C_23 
REMARK    6  A    between atoms: C_21  and  O_19 
ROOT
ATOM      1  C   UNL d   1     -50.162  27.456  37.257  0.00  0.00     0.198 A 
ATOM      2  C   UNL d   1     -49.996  28.165  37.655  0.00  0.00     0.191 A 
ATOM      3  O   UNL d   1     -49.733  27.435  36.562  0.00  0.00    -0.268 OA
ATOM      4  C   UNL d   1     -49.305  28.112  36.516  0.00  0.00     0.208 A 
ATOM      5  N   UNL d   1     -49.456  28.575  37.185  0.00  0.00    -0.206 NA
ATOM      6  C   UNL d   1     -50.302  28.438  38.390  0.00  0.00     0.124 C 
ATOM      7  N   UNL d   1     -50.612  28.704  39.124  0.00  0.00    -0.190 NA
ENDROOT
BRANCH   1   8
ATOM      8  N   UNL d   1     -50.696  26.919  37.599  0.00  0.00    -0.280 N 
ATOM      9  C   UNL d   1     -50.584  26.681  38.364  0.00  0.00     0.101 A 
ATOM     10  C   UNL d   1     -51.114  26.148  38.703  0.00  0.00     0.100 A 
ATOM     11  N   UNL d   1     -51.743  25.866  38.269  0.00  0.00    -0.301 N 
ATOM     12  C   UNL d   1     -51.861  26.110  37.478  0.00  0.00     0.100 A 
ATOM     13  C   UNL d   1     -51.331  26.644  37.138  0.00  0.00     0.101 A 
BRANCH  11  14
ATOM     14  C   UNL d   1     -52.269  25.336  38.606  0.00  0.00     0.064 A 
ATOM     15  C   UNL d   1     -51.989  24.668  38.972  0.00  0.00     0.018 A 
ATOM     16  C   UNL d   1     -52.522  24.132  39.313  0.00  0.00     0.002 A 
ATOM     17  C   UNL d   1     -53.316  24.284  39.276  0.00  0.00     0.000 A 
ATOM     18  C   UNL d   1     -53.616  24.961  38.907  0.00  0.00     0.002 A 
ATOM     19  C   UNL d   1     -53.083  25.497  38.566  0.00  0.00     0.018 A 
ENDBRANCH  11  14
ENDBRANCH   1   8
BRANCH   4  20
ATOM     20  C   UNL d   1     -48.780  28.693  36.231  0.00  0.00     0.141 A 
ATOM     21  O   UNL d   1     -48.430  29.432  36.276  0.00  0.00    -0.301 OA
ATOM     22  C   UNL d   1     -47.915  29.483  35.646  0.00  0.00     0.125 A 
ATOM     23  C   UNL d   1     -47.918  28.821  35.206  0.00  0.00     0.029 A 
ATOM     24  C   UNL d   1     -48.455  28.317  35.560  0.00  0.00     0.030 A 
BRANCH  22  25
ATOM     25  C   UNL d   1     -47.431  30.132  35.458  0.00  0.00     0.147 C 
BRANCH  25  26
ATOM     26  O   UNL d   1     -47.648  30.912  35.619  0.00  0.00    -0.303 OA
BRANCH  26  27
ATOM     27  C   UNL d   1     -47.666  31.466  35.043  0.00  0.00     0.100 A 
ATOM     28  C   UNL d   1     -47.125  32.087  35.034  0.00  0.00     0.023 A 
ATOM     29  C   UNL d   1     -46.533  32.145  35.648  0.00  0.00     0.002 C 
ATOM     30  C   UNL d   1     -47.123  32.661  34.460  0.00  0.00     0.002 A 
ATOM     31  C   UNL d   1     -47.695  32.615  33.856  0.00  0.00     0.000 A 
ATOM     32  C   UNL d   1     -48.244  32.005  33.845  0.00  0.00     0.002 A 
ATOM     33  C   UNL d   1     -48.218  31.441  34.440  0.00  0.00     0.025 A 
ENDBRANCH  26  27
ENDBRANCH  25  26
ENDBRANCH  22  25
ENDBRANCH   4  20
TORSDOF 6
ENDMDL
