MODEL 1
REMARK VINA RESULT:      -7.6      0.000      0.000
REMARK  3 active torsions:
REMARK  status: ('A' for Active; 'I' for Inactive)
REMARK    1  A    between atoms: C_7  and  C_1 
REMARK       I    between atoms: C_6  and  N_9 
REMARK       I    between atoms: N_8  and  C_6 
REMARK    2  A    between atoms: N_9  and  C_7 
REMARK    3  A    between atoms: C_11  and  N_8 
ROOT
ATOM      1  C   UNL d   1     -49.301  11.948  23.193  0.00  0.00     0.369 C 
ATOM      2  N   UNL d   1     -48.532  11.639  23.157  0.00  0.00    -0.191 NA
ATOM      3  N   UNL d   1     -49.431  12.752  23.089  0.00  0.00    -0.189 NA
ATOM      4  O   UNL d   1     -49.942  11.444  23.333  0.00  0.00    -0.242 OA
ENDROOT
BRANCH   3   5
ATOM      5  C   UNL d   1     -50.195  13.055  23.125  0.00  0.00     0.107 C 
BRANCH   5   6
ATOM      6  C   UNL d   1     -50.317  13.877  23.067  0.00  0.00     0.058 A 
ATOM      7  C   UNL d   1     -50.717  14.265  22.456  0.00  0.00     0.104 A 
ATOM      8  N   UNL d   1     -50.710  15.078  22.618  0.00  0.00    -0.165 NA
ATOM      9  C   UNL d   1     -51.063  13.905  21.799  0.00  0.00     0.023 C 
ATOM     10  N   UNL d   1     -50.304  15.188  23.332  0.00  0.00    -0.225 N 
ATOM     11  C   UNL d   1     -50.062  14.450  23.608  0.00  0.00     0.104 A 
ATOM     12  C   UNL d   1     -50.167  15.906  23.698  0.00  0.00     0.121 C 
ENDBRANCH   5   6
ENDBRANCH   3   5
BRANCH   2  13
ATOM     13  C   UNL d   1     -47.904  12.145  23.018  0.00  0.00     0.086 A 
ATOM     14  C   UNL d   1     -47.732  12.401  22.253  0.00  0.00     0.020 A 
ATOM     15  C   UNL d   1     -47.094  12.913  22.132  0.00  0.00     0.013 A 
ATOM     16  C   UNL d   1     -46.634  13.168  22.758  0.00  0.00     0.058 A 
ATOM     17  C   UNL d   1     -46.812  12.909  23.513  0.00  0.00     0.013 A 
ATOM     18 CL   UNL d   1     -45.997  13.679  22.634  0.00  0.00    -0.082 Cl
ATOM     19  C   UNL d   1     -47.437  12.403  23.656  0.00  0.00     0.020 A 
ENDBRANCH   2  13
TORSDOF 3
ENDMDL
MODEL 2
REMARK VINA RESULT:      -7.2      1.971      3.421
REMARK  3 active torsions:
REMARK  status: ('A' for Active; 'I' for Inactive)
REMARK    1  A    between atoms: C_7  and  C_1 
REMARK       I    between atoms: C_6  and  N_9 
REMARK       I    between atoms: N_8  and  C_6 
REMARK    2  A    between atoms: N_9  and  C_7 
REMARK    3  A    between atoms: C_11  and  N_8 
ROOT
ATOM      1  C   UNL d   1     -48.791  11.552  23.285  0.00  0.00     0.369 C 
ATOM      2  N   UNL d   1     -49.594  11.501  23.080  0.00  0.00    -0.191 NA
ATOM      3  N   UNL d   1     -48.352  12.215  23.082  0.00  0.00    -0.189 NA
ATOM      4  O   UNL d   1     -48.431  10.932  23.698  0.00  0.00    -0.242 OA
ENDROOT
BRANCH   3   5
ATOM      5  C   UNL d   1     -47.557  12.262  23.287  0.00  0.00     0.107 C 
BRANCH   5   6
ATOM      6  C   UNL d   1     -47.120  12.947  23.098  0.00  0.00     0.058 A 
ATOM      7  C   UNL d   1     -46.308  12.976  22.948  0.00  0.00     0.104 A 
ATOM      8  N   UNL d   1     -46.104  13.763  22.784  0.00  0.00    -0.165 NA
ATOM      9  C   UNL d   1     -45.790  12.334  22.959  0.00  0.00     0.023 C 
ATOM     10  N   UNL d   1     -46.795  14.217  22.834  0.00  0.00    -0.225 N 
ATOM     11  C   UNL d   1     -47.420  13.715  23.027  0.00  0.00     0.104 A 
ATOM     12  C   UNL d   1     -46.847  15.024  22.713  0.00  0.00     0.121 C 
ENDBRANCH   5   6
ENDBRANCH   3   5
BRANCH   2  13
ATOM     13  C   UNL d   1     -49.941  12.119  22.672  0.00  0.00     0.086 A 
ATOM     14  C   UNL d   1     -49.876  12.171  21.851  0.00  0.00     0.020 A 
ATOM     15  C   UNL d   1     -50.234  12.804  21.456  0.00  0.00     0.013 A 
ATOM     16  C   UNL d   1     -50.650  13.375  21.867  0.00  0.00     0.058 A 
ATOM     17  C   UNL d   1     -50.710  13.315  22.681  0.00  0.00     0.013 A 
ATOM     18 CL   UNL d   1     -51.006  14.005  21.470  0.00  0.00    -0.082 Cl
ATOM     19  C   UNL d   1     -50.364  12.699  23.091  0.00  0.00     0.020 A 
ENDBRANCH   2  13
TORSDOF 3
ENDMDL
MODEL 3
REMARK VINA RESULT:      -7.1      1.557      1.974
REMARK  3 active torsions:
REMARK  status: ('A' for Active; 'I' for Inactive)
REMARK    1  A    between atoms: C_7  and  C_1 
REMARK       I    between atoms: C_6  and  N_9 
REMARK       I    between atoms: N_8  and  C_6 
REMARK    2  A    between atoms: N_9  and  C_7 
REMARK    3  A    between atoms: C_11  and  N_8 
ROOT
ATOM      1  C   UNL d   1     -47.755  11.454  23.255  0.00  0.00     0.369 C 
ATOM      2  N   UNL d   1     -46.972  11.717  23.340  0.00  0.00    -0.191 NA
ATOM      3  N   UNL d   1     -48.339  11.967  22.990  0.00  0.00    -0.189 NA
ATOM      4  O   UNL d   1     -47.948  10.670  23.437  0.00  0.00    -0.242 OA
ENDROOT
BRANCH   3   5
ATOM      5  C   UNL d   1     -49.113  11.702  22.907  0.00  0.00     0.107 C 
BRANCH   5   6
ATOM      6  C   UNL d   1     -49.692  12.210  22.588  0.00  0.00     0.058 A 
ATOM      7  C   UNL d   1     -50.402  12.425  22.954  0.00  0.00     0.104 A 
ATOM      8  N   UNL d   1     -50.810  12.936  22.445  0.00  0.00    -0.165 NA
ATOM      9  C   UNL d   1     -50.660  12.174  23.697  0.00  0.00     0.023 C 
ATOM     10  N   UNL d   1     -50.348  13.034  21.764  0.00  0.00    -0.225 N 
ATOM     11  C   UNL d   1     -49.661  12.588  21.852  0.00  0.00     0.104 A 
ATOM     12  C   UNL d   1     -50.542  13.495  21.117  0.00  0.00     0.121 C 
ENDBRANCH   5   6
ENDBRANCH   3   5
BRANCH   2  13
ATOM     13  C   UNL d   1     -46.791  12.493  23.157  0.00  0.00     0.086 A 
ATOM     14  C   UNL d   1     -46.938  13.099  23.698  0.00  0.00     0.020 A 
ATOM     15  C   UNL d   1     -46.748  13.878  23.495  0.00  0.00     0.013 A 
ATOM     16  C   UNL d   1     -46.417  14.055  22.769  0.00  0.00     0.058 A 
ATOM     17  C   UNL d   1     -46.274  13.448  22.239  0.00  0.00     0.013 A 
ATOM     18 CL   UNL d   1     -46.228  14.833  22.570  0.00  0.00    -0.082 Cl
ATOM     19  C   UNL d   1     -46.454  12.672  22.418  0.00  0.00     0.020 A 
ENDBRANCH   2  13
TORSDOF 3
ENDMDL
MODEL 4
REMARK VINA RESULT:      -5.8      2.149      4.097
REMARK  3 active torsions:
REMARK  status: ('A' for Active; 'I' for Inactive)
REMARK    1  A    between atoms: C_7  and  C_1 
REMARK       I    between atoms: C_6  and  N_9 
REMARK       I    between atoms: N_8  and  C_6 
REMARK    2  A    between atoms: N_9  and  C_7 
REMARK    3  A    between atoms: C_11  and  N_8 
ROOT
ATOM      1  C   UNL d   1     -48.041  14.868  22.552  0.00  0.00     0.369 C 
ATOM      2  N   UNL d   1     -48.849  14.931  22.373  0.00  0.00    -0.191 NA
ATOM      3  N   UNL d   1     -47.706  14.135  22.708  0.00  0.00    -0.189 NA
ATOM      4  O   UNL d   1     -47.569  15.547  22.574  0.00  0.00    -0.242 OA
ENDROOT
BRANCH   3   5
ATOM      5  C   UNL d   1     -46.905  14.077  22.886  0.00  0.00     0.107 C 
BRANCH   5   6
ATOM      6  C   UNL d   1     -46.556  13.325  22.979  0.00  0.00     0.058 A 
ATOM      7  C   UNL d   1     -45.835  13.083  22.654  0.00  0.00     0.104 A 
ATOM      8  N   UNL d   1     -45.698  12.299  22.885  0.00  0.00    -0.165 NA
ATOM      9  C   UNL d   1     -45.338  13.543  22.182  0.00  0.00     0.023 C 
ATOM     10  N   UNL d   1     -46.338  12.060  23.353  0.00  0.00    -0.225 N 
ATOM     11  C   UNL d   1     -46.865  12.691  23.411  0.00  0.00     0.104 A 
ATOM     12  C   UNL d   1     -46.430  11.324  23.698  0.00  0.00     0.121 C 
ENDBRANCH   5   6
ENDBRANCH   3   5
BRANCH   2  13
ATOM     13  C   UNL d   1     -49.307  14.254  22.353  0.00  0.00     0.086 A 
ATOM     14  C   UNL d   1     -49.351  13.795  21.669  0.00  0.00     0.020 A 
ATOM     15  C   UNL d   1     -49.820  13.113  21.669  0.00  0.00     0.013 A 
ATOM     16  C   UNL d   1     -50.238  12.889  22.335  0.00  0.00     0.058 A 
ATOM     17  C   UNL d   1     -50.188  13.350  23.009  0.00  0.00     0.013 A 
ATOM     18 CL   UNL d   1     -50.705  12.208  22.331  0.00  0.00    -0.082 Cl
ATOM     19  C   UNL d   1     -49.732  14.027  23.032  0.00  0.00     0.020 A 
ENDBRANCH   2  13
TORSDOF 3
ENDMDL
MODEL 5
REMARK VINA RESULT:      -5.5      9.293     10.368
REMARK  3 active torsions:
REMARK  status: ('A' for Active; 'I' for Inactive)
REMARK    1  A    between atoms: C_7  and  C_1 
REMARK       I    between atoms: C_6  and  N_9 
REMARK       I    between atoms: N_8  and  C_6 
REMARK    2  A    between atoms: N_9  and  C_7 
REMARK    3  A    between atoms: C_11  and  N_8 
ROOT
ATOM      1  C   UNL d   1     -40.921  14.055  18.874  0.00  0.00     0.369 C 
ATOM      2  N   UNL d   1     -40.870  14.055  18.046  0.00  0.00    -0.191 NA
ATOM      3  N   UNL d   1     -40.400  14.505  19.322  0.00  0.00    -0.189 NA
ATOM      4  O   UNL d   1     -41.499  13.600  19.252  0.00  0.00    -0.242 OA
ENDROOT
BRANCH   3   5
ATOM      5  C   UNL d   1     -40.454  14.502  20.143  0.00  0.00     0.107 C 
BRANCH   5   6
ATOM      6  C   UNL d   1     -39.888  14.914  20.596  0.00  0.00     0.058 A 
ATOM      7  C   UNL d   1     -40.039  15.566  21.081  0.00  0.00     0.104 A 
ATOM      8  N   UNL d   1     -39.323  15.801  21.427  0.00  0.00    -0.165 NA
ATOM      9  C   UNL d   1     -40.773  15.922  21.201  0.00  0.00     0.023 C 
ATOM     10  N   UNL d   1     -38.732  15.290  21.152  0.00  0.00    -0.225 N 
ATOM     11  C   UNL d   1     -39.079  14.744  20.642  0.00  0.00     0.104 A 
ATOM     12  C   UNL d   1     -37.940  15.322  21.354  0.00  0.00     0.121 C 
ENDBRANCH   5   6
ENDBRANCH   3   5
BRANCH   2  13
ATOM     13  C   UNL d   1     -40.295  14.509  17.682  0.00  0.00     0.086 A 
ATOM     14  C   UNL d   1     -40.434  15.302  17.504  0.00  0.00     0.020 A 
ATOM     15  C   UNL d   1     -39.840  15.745  17.136  0.00  0.00     0.013 A 
ATOM     16  C   UNL d   1     -39.120  15.407  16.946  0.00  0.00     0.058 A 
ATOM     17  C   UNL d   1     -38.991  14.620  17.126  0.00  0.00     0.013 A 
ATOM     18 CL   UNL d   1     -38.529  15.852  16.579  0.00  0.00    -0.082 Cl
ATOM     19  C   UNL d   1     -39.563  14.164  17.489  0.00  0.00     0.020 A 
ENDBRANCH   2  13
TORSDOF 3
ENDMDL
MODEL 6
REMARK VINA RESULT:      -5.4      9.338     11.078
REMARK  3 active torsions:
REMARK  status: ('A' for Active; 'I' for Inactive)
REMARK    1  A    between atoms: C_7  and  C_1 
REMARK       I    between atoms: C_6  and  N_9 
REMARK       I    between atoms: N_8  and  C_6 
REMARK    2  A    between atoms: N_9  and  C_7 
REMARK    3  A    between atoms: C_11  and  N_8 
ROOT
ATOM      1  C   UNL d   1     -40.792  15.091  17.918  0.00  0.00     0.369 C 
ATOM      2  N   UNL d   1     -41.044  15.433  18.631  0.00  0.00    -0.191 NA
ATOM      3  N   UNL d   1     -40.062  14.718  17.872  0.00  0.00    -0.189 NA
ATOM      4  O   UNL d   1     -41.277  15.125  17.249  0.00  0.00    -0.242 OA
ENDROOT
BRANCH   3   5
ATOM      5  C   UNL d   1     -39.815  14.380  17.164  0.00  0.00     0.107 C 
BRANCH   5   6
ATOM      6  C   UNL d   1     -39.150  13.877  17.154  0.00  0.00     0.058 A 
ATOM      7  C   UNL d   1     -38.461  13.994  16.712  0.00  0.00     0.104 A 
ATOM      8  N   UNL d   1     -37.945  13.365  16.867  0.00  0.00    -0.165 NA
ATOM      9  C   UNL d   1     -38.314  14.628  16.204  0.00  0.00     0.023 C 
ATOM     10  N   UNL d   1     -38.319  12.861  17.407  0.00  0.00    -0.225 N 
ATOM     11  C   UNL d   1     -39.060  13.175  17.584  0.00  0.00     0.104 A 
ATOM     12  C   UNL d   1     -38.006  12.169  17.712  0.00  0.00     0.121 C 
ENDBRANCH   5   6
ENDBRANCH   3   5
BRANCH   2  13
ATOM     13  C   UNL d   1     -40.557  15.394  19.287  0.00  0.00     0.086 A 
ATOM     14  C   UNL d   1     -39.929  15.922  19.377  0.00  0.00     0.020 A 
ATOM     15  C   UNL d   1     -39.447  15.867  20.047  0.00  0.00     0.013 A 
ATOM     16  C   UNL d   1     -39.584  15.297  20.618  0.00  0.00     0.058 A 
ATOM     17  C   UNL d   1     -40.208  14.778  20.520  0.00  0.00     0.013 A 
ATOM     18 CL   UNL d   1     -39.101  15.245  21.285  0.00  0.00    -0.082 Cl
ATOM     19  C   UNL d   1     -40.697  14.815  19.867  0.00  0.00     0.020 A 
ENDBRANCH   2  13
TORSDOF 3
ENDMDL
MODEL 7
REMARK VINA RESULT:      -5.1      9.133     10.504
REMARK  3 active torsions:
REMARK  status: ('A' for Active; 'I' for Inactive)
REMARK    1  A    between atoms: C_7  and  C_1 
REMARK       I    between atoms: C_6  and  N_9 
REMARK       I    between atoms: N_8  and  C_6 
REMARK    2  A    between atoms: N_9  and  C_7 
REMARK    3  A    between atoms: C_11  and  N_8 
ROOT
ATOM      1  C   UNL d   1     -38.698  15.604  19.890  0.00  0.00     0.369 C 
ATOM      2  N   UNL d   1     -38.967  15.522  20.671  0.00  0.00    -0.191 NA
ATOM      3  N   UNL d   1     -39.171  15.371  19.261  0.00  0.00    -0.189 NA
ATOM      4  O   UNL d   1     -37.949  15.922  19.744  0.00  0.00    -0.242 OA
ENDROOT
BRANCH   3   5
ATOM      5  C   UNL d   1     -38.901  15.454  18.489  0.00  0.00     0.107 C 
BRANCH   5   6
ATOM      6  C   UNL d   1     -39.431  15.359  17.852  0.00  0.00     0.058 A 
ATOM      7  C   UNL d   1     -39.426  14.738  17.307  0.00  0.00     0.104 A 
ATOM      8  N   UNL d   1     -40.046  14.862  16.770  0.00  0.00    -0.165 NA
ATOM      9  C   UNL d   1     -38.897  14.105  17.299  0.00  0.00     0.023 C 
ATOM     10  N   UNL d   1     -40.430  15.562  16.988  0.00  0.00    -0.225 N 
ATOM     11  C   UNL d   1     -40.053  15.868  17.653  0.00  0.00     0.104 A 
ATOM     12  C   UNL d   1     -41.075  15.892  16.607  0.00  0.00     0.121 C 
ENDBRANCH   5   6
ENDBRANCH   3   5
BRANCH   2  13
ATOM     13  C   UNL d   1     -39.710  15.205  20.806  0.00  0.00     0.086 A 
ATOM     14  C   UNL d   1     -39.810  14.392  20.901  0.00  0.00     0.020 A 
ATOM     15  C   UNL d   1     -40.569  14.091  21.036  0.00  0.00     0.013 A 
ATOM     16  C   UNL d   1     -41.218  14.588  21.076  0.00  0.00     0.058 A 
ATOM     17  C   UNL d   1     -41.109  15.393  20.981  0.00  0.00     0.013 A 
ATOM     18 CL   UNL d   1     -41.974  14.284  21.211  0.00  0.00    -0.082 Cl
ATOM     19  C   UNL d   1     -40.369  15.711  20.846  0.00  0.00     0.020 A 
ENDBRANCH   2  13
TORSDOF 3
ENDMDL
MODEL 8
REMARK VINA RESULT:      -5.1      8.885     10.243
REMARK  3 active torsions:
REMARK  status: ('A' for Active; 'I' for Inactive)
REMARK    1  A    between atoms: C_7  and  C_1 
REMARK       I    between atoms: C_6  and  N_9 
REMARK       I    between atoms: N_8  and  C_6 
REMARK    2  A    between atoms: N_9  and  C_7 
REMARK    3  A    between atoms: C_11  and  N_8 
ROOT
ATOM      1  C   UNL d   1     -40.979  14.110  19.992  0.00  0.00     0.369 C 
ATOM      2  N   UNL d   1     -40.740  14.250  20.775  0.00  0.00    -0.191 NA
ATOM      3  N   UNL d   1     -40.531  14.393  19.365  0.00  0.00    -0.189 NA
ATOM      4  O   UNL d   1     -41.671  13.683  19.842  0.00  0.00    -0.242 OA
ENDROOT
BRANCH   3   5
ATOM      5  C   UNL d   1     -40.771  14.252  18.590  0.00  0.00     0.107 C 
BRANCH   5   6
ATOM      6  C   UNL d   1     -40.239  14.384  17.962  0.00  0.00     0.058 A 
ATOM      7  C   UNL d   1     -40.316  14.963  17.376  0.00  0.00     0.104 A 
ATOM      8  N   UNL d   1     -39.667  14.900  16.864  0.00  0.00    -0.165 NA
ATOM      9  C   UNL d   1     -40.932  15.508  17.313  0.00  0.00     0.023 C 
ATOM     10  N   UNL d   1     -39.191  14.280  17.137  0.00  0.00    -0.225 N 
ATOM     11  C   UNL d   1     -39.542  13.963  17.812  0.00  0.00     0.104 A 
ATOM     12  C   UNL d   1     -38.493  14.027  16.795  0.00  0.00     0.121 C 
ENDBRANCH   5   6
ENDBRANCH   3   5
BRANCH   2  13
ATOM     13  C   UNL d   1     -40.054  14.673  20.913  0.00  0.00     0.086 A 
ATOM     14  C   UNL d   1     -40.067  15.497  20.944  0.00  0.00     0.020 A 
ATOM     15  C   UNL d   1     -39.363  15.908  21.085  0.00  0.00     0.013 A 
ATOM     16  C   UNL d   1     -38.657  15.509  21.192  0.00  0.00     0.058 A 
ATOM     17  C   UNL d   1     -38.654  14.691  21.159  0.00  0.00     0.013 A 
ATOM     18 CL   UNL d   1     -37.956  15.922  21.333  0.00  0.00    -0.082 Cl
ATOM     19  C   UNL d   1     -39.337  14.266  21.022  0.00  0.00     0.020 A 
ENDBRANCH   2  13
TORSDOF 3
ENDMDL
