MODEL 1
REMARK VINA RESULT:      -7.8      0.000      0.000
REMARK  5 active torsions:
REMARK  status: ('A' for Active; 'I' for Inactive)
REMARK    1  A    between atoms: C_2  and  C_1 
REMARK    2  A    between atoms: O_6  and  C_1 
REMARK    3  A    between atoms: C_11  and  O_6 
REMARK    4  A    between atoms: C_12  and  C_11 
REMARK    5  A    between atoms: C_13  and  C_12 
ROOT
ATOM      1  C   UNL d   1      54.082  32.568  54.087  0.00  0.00     0.064 A 
ATOM      2  C   UNL d   1      53.860  32.778  54.856  0.00  0.00     0.009 A 
ATOM      3  C   UNL d   1      54.757  32.907  53.753  0.00  0.00     0.009 A 
ATOM      4  C   UNL d   1      54.977  33.659  54.959  0.00  0.00     0.196 A 
ATOM      5  C   UNL d   1      54.302  33.320  55.294  0.00  0.00     0.042 A 
ATOM      6  C   UNL d   1      55.196  33.449  54.194  0.00  0.00     0.042 A 
ATOM      7  O   UNL d   1      55.443  34.210  55.379  0.00  0.00    -0.287 OA
ENDROOT
BRANCH   1   8
ATOM      8  C   UNL d   1      53.629  32.022  53.658  0.00  0.00     0.300 C 
ATOM      9  O   UNL d   1      52.966  32.270  53.234  0.00  0.00    -0.259 OA
BRANCH   8  10
ATOM     10  O   UNL d   1      53.853  31.229  53.661  0.00  0.00    -0.271 OA
BRANCH  10  11
ATOM     11  C   UNL d   1      53.272  30.651  53.552  0.00  0.00     0.126 C 
BRANCH  11  12
ATOM     12  C   UNL d   1      53.491  29.854  53.582  0.00  0.00     0.027 C 
BRANCH  12  13
ATOM     13  C   UNL d   1      53.015  29.316  53.977  0.00  0.00     0.002 C 
ATOM     14  C   UNL d   1      53.343  28.807  54.536  0.00  0.00     0.000 C 
ENDBRANCH  12  13
ENDBRANCH  11  12
ENDBRANCH  10  11
ENDBRANCH   8  10
ENDBRANCH   1   8
TORSDOF 5
ENDMDL
MODEL 2
REMARK VINA RESULT:      -7.7      1.624      1.863
REMARK  5 active torsions:
REMARK  status: ('A' for Active; 'I' for Inactive)
REMARK    1  A    between atoms: C_2  and  C_1 
REMARK    2  A    between atoms: O_6  and  C_1 
REMARK    3  A    between atoms: C_11  and  O_6 
REMARK    4  A    between atoms: C_12  and  C_11 
REMARK    5  A    between atoms: C_13  and  C_12 
ROOT
ATOM      1  C   UNL d   1      53.609  33.671  53.941  0.00  0.00     0.064 A 
ATOM      2  C   UNL d   1      53.163  34.135  53.422  0.00  0.00     0.009 A 
ATOM      3  C   UNL d   1      53.777  33.956  54.698  0.00  0.00     0.009 A 
ATOM      4  C   UNL d   1      53.051  35.162  54.405  0.00  0.00     0.196 A 
ATOM      5  C   UNL d   1      52.883  34.877  53.648  0.00  0.00     0.042 A 
ATOM      6  C   UNL d   1      53.496  34.699  54.920  0.00  0.00     0.042 A 
ATOM      7  O   UNL d   1      52.781  35.910  54.660  0.00  0.00    -0.287 OA
ENDROOT
BRANCH   1   8
ATOM      8  C   UNL d   1      53.885  32.926  53.702  0.00  0.00     0.300 C 
ATOM      9  O   UNL d   1      54.671  32.825  53.473  0.00  0.00    -0.259 OA
BRANCH   8  10
ATOM     10  O   UNL d   1      53.361  32.290  53.697  0.00  0.00    -0.271 OA
BRANCH  10  11
ATOM     11  C   UNL d   1      53.651  31.536  53.523  0.00  0.00     0.126 C 
BRANCH  11  12
ATOM     12  C   UNL d   1      53.114  30.922  53.387  0.00  0.00     0.027 C 
BRANCH  12  13
ATOM     13  C   UNL d   1      53.319  30.152  53.579  0.00  0.00     0.002 C 
ATOM     14  C   UNL d   1      52.837  29.526  53.345  0.00  0.00     0.000 C 
ENDBRANCH  12  13
ENDBRANCH  11  12
ENDBRANCH  10  11
ENDBRANCH   8  10
ENDBRANCH   1   8
TORSDOF 5
ENDMDL
MODEL 3
REMARK VINA RESULT:      -7.4      1.514      3.915
REMARK  5 active torsions:
REMARK  status: ('A' for Active; 'I' for Inactive)
REMARK    1  A    between atoms: C_2  and  C_1 
REMARK    2  A    between atoms: O_6  and  C_1 
REMARK    3  A    between atoms: C_11  and  O_6 
REMARK    4  A    between atoms: C_12  and  C_11 
REMARK    5  A    between atoms: C_13  and  C_12 
ROOT
ATOM      1  C   UNL d   1      53.430  31.556  53.469  0.00  0.00     0.064 A 
ATOM      2  C   UNL d   1      53.751  30.976  53.962  0.00  0.00     0.009 A 
ATOM      3  C   UNL d   1      52.847  31.348  52.922  0.00  0.00     0.009 A 
ATOM      4  C   UNL d   1      52.916  29.983  53.370  0.00  0.00     0.196 A 
ATOM      5  C   UNL d   1      53.499  30.192  53.917  0.00  0.00     0.042 A 
ATOM      6  C   UNL d   1      52.597  30.562  52.879  0.00  0.00     0.042 A 
ATOM      7  O   UNL d   1      52.642  29.197  53.302  0.00  0.00    -0.287 OA
ENDROOT
BRANCH   1   8
ATOM      8  C   UNL d   1      53.692  32.341  53.524  0.00  0.00     0.300 C 
ATOM      9  O   UNL d   1      54.457  32.544  53.293  0.00  0.00    -0.259 OA
BRANCH   8  10
ATOM     10  O   UNL d   1      53.175  32.914  53.814  0.00  0.00    -0.271 OA
BRANCH  10  11
ATOM     11  C   UNL d   1      53.415  33.705  53.810  0.00  0.00     0.126 C 
BRANCH  11  12
ATOM     12  C   UNL d   1      52.954  34.265  54.208  0.00  0.00     0.027 C 
BRANCH  12  13
ATOM     13  C   UNL d   1      52.941  35.041  53.947  0.00  0.00     0.002 C 
ATOM     14  C   UNL d   1      52.965  35.660  54.491  0.00  0.00     0.000 C 
ENDBRANCH  12  13
ENDBRANCH  11  12
ENDBRANCH  10  11
ENDBRANCH   8  10
ENDBRANCH   1   8
TORSDOF 5
ENDMDL
MODEL 4
REMARK VINA RESULT:      -7.3      2.429      3.911
REMARK  5 active torsions:
REMARK  status: ('A' for Active; 'I' for Inactive)
REMARK    1  A    between atoms: C_2  and  C_1 
REMARK    2  A    between atoms: O_6  and  C_1 
REMARK    3  A    between atoms: C_11  and  O_6 
REMARK    4  A    between atoms: C_12  and  C_11 
REMARK    5  A    between atoms: C_13  and  C_12 
ROOT
ATOM      1  C   UNL d   1      51.899  33.356  52.985  0.00  0.00     0.064 A 
ATOM      2  C   UNL d   1      51.903  33.940  52.400  0.00  0.00     0.009 A 
ATOM      3  C   UNL d   1      51.193  33.176  53.374  0.00  0.00     0.009 A 
ATOM      4  C   UNL d   1      50.507  34.166  52.588  0.00  0.00     0.196 A 
ATOM      5  C   UNL d   1      51.213  34.346  52.199  0.00  0.00     0.042 A 
ATOM      6  C   UNL d   1      50.505  33.584  53.170  0.00  0.00     0.042 A 
ATOM      7  O   UNL d   1      49.794  34.561  52.405  0.00  0.00    -0.287 OA
ENDROOT
BRANCH   1   8
ATOM      8  C   UNL d   1      52.599  32.955  53.178  0.00  0.00     0.300 C 
ATOM      9  O   UNL d   1      52.910  32.388  52.666  0.00  0.00    -0.259 OA
BRANCH   8  10
ATOM     10  O   UNL d   1      52.977  33.132  53.888  0.00  0.00    -0.271 OA
BRANCH  10  11
ATOM     11  C   UNL d   1      53.769  32.915  53.983  0.00  0.00     0.126 C 
BRANCH  11  12
ATOM     12  C   UNL d   1      54.140  33.065  54.707  0.00  0.00     0.027 C 
BRANCH  12  13
ATOM     13  C   UNL d   1      54.914  33.334  54.719  0.00  0.00     0.002 C 
ATOM     14  C   UNL d   1      55.192  33.765  55.364  0.00  0.00     0.000 C 
ENDBRANCH  12  13
ENDBRANCH  11  12
ENDBRANCH  10  11
ENDBRANCH   8  10
ENDBRANCH   1   8
TORSDOF 5
ENDMDL
MODEL 5
REMARK VINA RESULT:      -7.3      1.695      1.873
REMARK  5 active torsions:
REMARK  status: ('A' for Active; 'I' for Inactive)
REMARK    1  A    between atoms: C_2  and  C_1 
REMARK    2  A    between atoms: O_6  and  C_1 
REMARK    3  A    between atoms: C_11  and  O_6 
REMARK    4  A    between atoms: C_12  and  C_11 
REMARK    5  A    between atoms: C_13  and  C_12 
ROOT
ATOM      1  C   UNL d   1      52.831  33.228  53.320  0.00  0.00     0.064 A 
ATOM      2  C   UNL d   1      53.451  33.550  53.761  0.00  0.00     0.009 A 
ATOM      3  C   UNL d   1      52.166  33.689  53.158  0.00  0.00     0.009 A 
ATOM      4  C   UNL d   1      52.750  34.786  53.880  0.00  0.00     0.196 A 
ATOM      5  C   UNL d   1      53.416  34.325  54.042  0.00  0.00     0.042 A 
ATOM      6  C   UNL d   1      52.134  34.464  53.441  0.00  0.00     0.042 A 
ATOM      7  O   UNL d   1      52.688  35.574  54.152  0.00  0.00    -0.287 OA
ENDROOT
BRANCH   1   8
ATOM      8  C   UNL d   1      52.879  32.448  53.043  0.00  0.00     0.300 C 
ATOM      9  O   UNL d   1      52.634  32.260  52.278  0.00  0.00    -0.259 OA
BRANCH   8  10
ATOM     10  O   UNL d   1      53.175  31.864  53.544  0.00  0.00    -0.271 OA
BRANCH  10  11
ATOM     11  C   UNL d   1      53.117  31.073  53.313  0.00  0.00     0.126 C 
BRANCH  11  12
ATOM     12  C   UNL d   1      53.403  30.486  53.819  0.00  0.00     0.027 C 
BRANCH  12  13
ATOM     13  C   UNL d   1      53.203  29.702  53.688  0.00  0.00     0.002 C 
ATOM     14  C   UNL d   1      53.349  29.136  54.269  0.00  0.00     0.000 C 
ENDBRANCH  12  13
ENDBRANCH  11  12
ENDBRANCH  10  11
ENDBRANCH   8  10
ENDBRANCH   1   8
TORSDOF 5
ENDMDL
MODEL 6
REMARK VINA RESULT:      -7.3      2.113      3.123
REMARK  5 active torsions:
REMARK  status: ('A' for Active; 'I' for Inactive)
REMARK    1  A    between atoms: C_2  and  C_1 
REMARK    2  A    between atoms: O_6  and  C_1 
REMARK    3  A    between atoms: C_11  and  O_6 
REMARK    4  A    between atoms: C_12  and  C_11 
REMARK    5  A    between atoms: C_13  and  C_12 
ROOT
ATOM      1  C   UNL d   1      53.526  33.257  54.042  0.00  0.00     0.064 A 
ATOM      2  C   UNL d   1      54.283  33.054  53.778  0.00  0.00     0.009 A 
ATOM      3  C   UNL d   1      53.440  33.644  54.767  0.00  0.00     0.009 A 
ATOM      4  C   UNL d   1      54.866  33.618  54.951  0.00  0.00     0.196 A 
ATOM      5  C   UNL d   1      54.952  33.231  54.226  0.00  0.00     0.042 A 
ATOM      6  C   UNL d   1      54.112  33.819  55.213  0.00  0.00     0.042 A 
ATOM      7  O   UNL d   1      55.526  33.809  55.426  0.00  0.00    -0.287 OA
ENDROOT
BRANCH   1   8
ATOM      8  C   UNL d   1      52.861  33.074  53.582  0.00  0.00     0.300 C 
ATOM      9  O   UNL d   1      52.686  32.290  53.395  0.00  0.00    -0.259 OA
BRANCH   8  10
ATOM     10  O   UNL d   1      52.380  33.687  53.315  0.00  0.00    -0.271 OA
BRANCH  10  11
ATOM     11  C   UNL d   1      51.643  33.503  52.990  0.00  0.00     0.126 C 
BRANCH  11  12
ATOM     12  C   UNL d   1      51.210  34.099  52.615  0.00  0.00     0.027 C 
BRANCH  12  13
ATOM     13  C   UNL d   1      50.405  34.166  52.753  0.00  0.00     0.002 C 
ATOM     14  C   UNL d   1      49.915  34.504  52.184  0.00  0.00     0.000 C 
ENDBRANCH  12  13
ENDBRANCH  11  12
ENDBRANCH  10  11
ENDBRANCH   8  10
ENDBRANCH   1   8
TORSDOF 5
ENDMDL
MODEL 7
REMARK VINA RESULT:      -7.2      2.003      3.878
REMARK  5 active torsions:
REMARK  status: ('A' for Active; 'I' for Inactive)
REMARK    1  A    between atoms: C_2  and  C_1 
REMARK    2  A    between atoms: O_6  and  C_1 
REMARK    3  A    between atoms: C_11  and  O_6 
REMARK    4  A    between atoms: C_12  and  C_11 
REMARK    5  A    between atoms: C_13  and  C_12 
ROOT
ATOM      1  C   UNL d   1      52.979  31.362  53.244  0.00  0.00     0.064 A 
ATOM      2  C   UNL d   1      52.586  30.729  52.887  0.00  0.00     0.009 A 
ATOM      3  C   UNL d   1      53.506  31.216  53.864  0.00  0.00     0.009 A 
ATOM      4  C   UNL d   1      53.237  29.807  53.759  0.00  0.00     0.196 A 
ATOM      5  C   UNL d   1      52.711  29.953  53.139  0.00  0.00     0.042 A 
ATOM      6  C   UNL d   1      53.628  30.439  54.113  0.00  0.00     0.042 A 
ATOM      7  O   UNL d   1      53.383  29.032  54.034  0.00  0.00    -0.287 OA
ENDROOT
BRANCH   1   8
ATOM      8  C   UNL d   1      52.845  32.137  52.982  0.00  0.00     0.300 C 
ATOM      9  O   UNL d   1      53.446  32.563  52.610  0.00  0.00    -0.259 OA
BRANCH   8  10
ATOM     10  O   UNL d   1      52.102  32.474  53.098  0.00  0.00    -0.271 OA
BRANCH  10  11
ATOM     11  C   UNL d   1      51.984  33.264  52.883  0.00  0.00     0.126 C 
BRANCH  11  12
ATOM     12  C   UNL d   1      51.282  33.639  53.106  0.00  0.00     0.027 C 
BRANCH  12  13
ATOM     13  C   UNL d   1      50.987  34.254  52.652  0.00  0.00     0.002 C 
ATOM     14  C   UNL d   1      50.206  34.499  52.746  0.00  0.00     0.000 C 
ENDBRANCH  12  13
ENDBRANCH  11  12
ENDBRANCH  10  11
ENDBRANCH   8  10
ENDBRANCH   1   8
TORSDOF 5
ENDMDL
