MODEL 1
REMARK VINA RESULT:      -8.5      0.000      0.000
REMARK  3 active torsions:
REMARK  status: ('A' for Active; 'I' for Inactive)
REMARK    1  A    between atoms: C_6  and  C_1 
REMARK    2  A    between atoms: N_7  and  C_2 
REMARK       I    between atoms: C_8  and  N_9 
REMARK    3  A    between atoms: C_11  and  C_8 
ROOT
ATOM      1  C   UNL d   1      49.491  34.659  52.607  0.00  0.00     0.186 A 
ATOM      2  C   UNL d   1      50.601  34.067  53.026  0.00  0.00     0.197 A 
ATOM      3  C   UNL d   1      50.736  34.367  52.277  0.00  0.00     0.191 A 
ATOM      4  O   UNL d   1      49.808  34.256  53.229  0.00  0.00    -0.270 OA
ATOM      5  N   UNL d   1      50.028  34.745  52.008  0.00  0.00    -0.208 NA
ATOM      6  C   UNL d   1      51.468  34.308  51.838  0.00  0.00     0.124 C 
ATOM      7  N   UNL d   1      52.187  34.257  51.395  0.00  0.00    -0.190 NA
ENDROOT
BRANCH   2   8
ATOM      8  N   UNL d   1      51.310  33.690  53.290  0.00  0.00    -0.280 N 
ATOM      9  C   UNL d   1      51.464  32.896  53.093  0.00  0.00     0.101 A 
ATOM     10  C   UNL d   1      52.140  32.525  53.340  0.00  0.00     0.102 A 
ATOM     11  N   UNL d   1      52.717  32.939  53.813  0.00  0.00    -0.267 N 
ATOM     12  C   UNL d   1      53.423  32.514  54.057  0.00  0.00     0.288 C 
ATOM     13  C   UNL d   1      52.559  33.771  54.021  0.00  0.00     0.102 A 
ATOM     14  O   UNL d   1      53.547  31.711  53.840  0.00  0.00    -0.264 OA
ATOM     15  C   UNL d   1      51.842  34.120  53.743  0.00  0.00     0.101 A 
BRANCH  12  16
ATOM     16  C   UNL d   1      54.000  32.928  54.530  0.00  0.00     0.156 A 
ATOM     17  O   UNL d   1      54.014  33.205  55.298  0.00  0.00    -0.300 OA
ATOM     18  C   UNL d   1      54.754  33.570  55.436  0.00  0.00     0.123 A 
ATOM     19  C   UNL d   1      55.188  33.513  54.747  0.00  0.00     0.029 A 
ATOM     20  C   UNL d   1      54.735  33.120  54.185  0.00  0.00     0.032 A 
ENDBRANCH  12  16
ENDBRANCH   2   8
BRANCH   1  21
ATOM     21  C   UNL d   1      48.785  35.039  52.334  0.00  0.00     0.052 A 
ATOM     22  C   UNL d   1      48.398  35.584  52.835  0.00  0.00     0.061 A 
ATOM     23 CL   UNL d   1      48.749  35.707  53.571  0.00  0.00    -0.082 Cl
ATOM     24  C   UNL d   1      47.712  35.962  52.587  0.00  0.00     0.011 A 
ATOM     25  C   UNL d   1      47.406  35.803  51.847  0.00  0.00     0.001 A 
ATOM     26  C   UNL d   1      47.780  35.267  51.344  0.00  0.00     0.000 A 
ATOM     27  C   UNL d   1      48.457  34.895  51.591  0.00  0.00     0.004 A 
ENDBRANCH   1  21
TORSDOF 3
ENDMDL
MODEL 2
REMARK VINA RESULT:      -8.2      1.453      5.431
REMARK  3 active torsions:
REMARK  status: ('A' for Active; 'I' for Inactive)
REMARK    1  A    between atoms: C_6  and  C_1 
REMARK    2  A    between atoms: N_7  and  C_2 
REMARK       I    between atoms: C_8  and  N_9 
REMARK    3  A    between atoms: C_11  and  C_8 
ROOT
ATOM      1  C   UNL d   1      52.865  33.914  53.740  0.00  0.00     0.186 A 
ATOM      2  C   UNL d   1      51.729  34.184  53.112  0.00  0.00     0.197 A 
ATOM      3  C   UNL d   1      51.701  33.409  53.373  0.00  0.00     0.191 A 
ATOM      4  O   UNL d   1      52.471  34.498  53.349  0.00  0.00    -0.270 OA
ATOM      5  N   UNL d   1      52.426  33.235  53.774  0.00  0.00    -0.208 NA
ATOM      6  C   UNL d   1      51.051  32.865  53.260  0.00  0.00     0.124 C 
ATOM      7  N   UNL d   1      50.415  32.318  53.154  0.00  0.00    -0.190 NA
ENDROOT
BRANCH   2   8
ATOM      8  N   UNL d   1      51.004  34.352  52.713  0.00  0.00    -0.280 N 
ATOM      9  C   UNL d   1      50.892  34.113  51.924  0.00  0.00     0.101 A 
ATOM     10  C   UNL d   1      50.201  34.269  51.530  0.00  0.00     0.102 A 
ATOM     11  N   UNL d   1      49.564  34.686  51.916  0.00  0.00    -0.267 N 
ATOM     12  C   UNL d   1      48.846  34.834  51.469  0.00  0.00     0.288 C 
ATOM     13  C   UNL d   1      49.678  34.938  52.743  0.00  0.00     0.102 A 
ATOM     14  O   UNL d   1      48.766  34.578  50.672  0.00  0.00    -0.264 OA
ATOM     15  C   UNL d   1      50.413  34.755  53.115  0.00  0.00     0.101 A 
BRANCH  12  16
ATOM     16  C   UNL d   1      48.209  35.251  51.854  0.00  0.00     0.156 A 
ATOM     17  O   UNL d   1      48.099  35.554  52.604  0.00  0.00    -0.300 OA
ATOM     18  C   UNL d   1      47.341  35.907  52.640  0.00  0.00     0.123 A 
ATOM     19  C   UNL d   1      46.992  35.815  51.908  0.00  0.00     0.029 A 
ATOM     20  C   UNL d   1      47.516  35.414  51.418  0.00  0.00     0.032 A 
ENDBRANCH  12  16
ENDBRANCH   2   8
BRANCH   1  21
ATOM     21  C   UNL d   1      53.589  33.736  54.143  0.00  0.00     0.052 A 
ATOM     22  C   UNL d   1      53.818  34.208  54.794  0.00  0.00     0.061 A 
ATOM     23 CL   UNL d   1      53.303  34.821  54.991  0.00  0.00    -0.082 Cl
ATOM     24  C   UNL d   1      54.516  34.049  55.196  0.00  0.00     0.011 A 
ATOM     25  C   UNL d   1      54.990  33.428  54.958  0.00  0.00     0.001 A 
ATOM     26  C   UNL d   1      54.774  32.957  54.317  0.00  0.00     0.000 A 
ATOM     27  C   UNL d   1      54.084  33.115  53.921  0.00  0.00     0.004 A 
ENDBRANCH   1  21
TORSDOF 3
ENDMDL
MODEL 3
REMARK VINA RESULT:      -7.2      1.840      5.336
REMARK  3 active torsions:
REMARK  status: ('A' for Active; 'I' for Inactive)
REMARK    1  A    between atoms: C_6  and  C_1 
REMARK    2  A    between atoms: N_7  and  C_2 
REMARK       I    between atoms: C_8  and  N_9 
REMARK    3  A    between atoms: C_11  and  C_8 
ROOT
ATOM      1  C   UNL d   1      52.294  32.359  53.194  0.00  0.00     0.186 A 
ATOM      2  C   UNL d   1      51.309  33.222  52.989  0.00  0.00     0.197 A 
ATOM      3  C   UNL d   1      52.000  33.643  53.110  0.00  0.00     0.191 A 
ATOM      4  O   UNL d   1      51.504  32.407  53.043  0.00  0.00    -0.270 OA
ATOM      5  N   UNL d   1      52.629  33.093  53.241  0.00  0.00    -0.208 NA
ATOM      6  C   UNL d   1      52.074  34.495  53.105  0.00  0.00     0.124 C 
ATOM      7  N   UNL d   1      52.160  35.337  53.103  0.00  0.00    -0.190 NA
ENDROOT
BRANCH   2   8
ATOM      8  N   UNL d   1      50.683  33.775  52.858  0.00  0.00    -0.280 N 
ATOM      9  C   UNL d   1      50.403  33.920  52.088  0.00  0.00     0.101 A 
ATOM     10  C   UNL d   1      49.804  34.448  51.951  0.00  0.00     0.102 A 
ATOM     11  N   UNL d   1      49.440  34.872  52.596  0.00  0.00    -0.267 N 
ATOM     12  C   UNL d   1      48.808  35.424  52.414  0.00  0.00     0.288 C 
ATOM     13  C   UNL d   1      49.732  34.722  53.405  0.00  0.00     0.102 A 
ATOM     14  O   UNL d   1      48.549  35.547  51.624  0.00  0.00    -0.264 OA
ATOM     15  C   UNL d   1      50.358  34.165  53.503  0.00  0.00     0.101 A 
BRANCH  12  16
ATOM     16  C   UNL d   1      48.444  35.849  53.059  0.00  0.00     0.156 A 
ATOM     17  O   UNL d   1      48.730  36.234  53.720  0.00  0.00    -0.300 OA
ATOM     18  C   UNL d   1      48.082  36.546  54.146  0.00  0.00     0.123 A 
ATOM     19  C   UNL d   1      47.402  36.349  53.740  0.00  0.00     0.029 A 
ATOM     20  C   UNL d   1      47.613  35.921  53.071  0.00  0.00     0.032 A 
ENDBRANCH  12  16
ENDBRANCH   2   8
BRANCH   1  21
ATOM     21  C   UNL d   1      52.928  31.811  53.326  0.00  0.00     0.052 A 
ATOM     22  C   UNL d   1      52.786  30.994  53.224  0.00  0.00     0.061 A 
ATOM     23 CL   UNL d   1      52.020  30.788  52.998  0.00  0.00    -0.082 Cl
ATOM     24  C   UNL d   1      53.388  30.450  53.348  0.00  0.00     0.011 A 
ATOM     25  C   UNL d   1      54.130  30.708  53.571  0.00  0.00     0.001 A 
ATOM     26  C   UNL d   1      54.281  31.512  53.674  0.00  0.00     0.000 A 
ATOM     27  C   UNL d   1      53.685  32.049  53.551  0.00  0.00     0.004 A 
ENDBRANCH   1  21
TORSDOF 3
ENDMDL
