MODEL 1
REMARK VINA RESULT:      -3.0      0.000      0.000
REMARK  5 active torsions:
REMARK  status: ('A' for Active; 'I' for Inactive)
REMARK    1  A    between atoms: N_6  and  C_1 
REMARK    2  A    between atoms: C_7  and  C_2 
REMARK       I    between atoms: C_8  and  N_6 
REMARK       I    between atoms: N_13  and  C_7 
REMARK    3  A    between atoms: C_9  and  C_8 
REMARK    4  A    between atoms: C_10  and  C_9 
REMARK    5  A    between atoms: C_15  and  C_10 
ROOT
ATOM      1  C   UNL d   1      33.058  21.673 -21.835  0.00  0.00     0.119 A 
ATOM      2  C   UNL d   1      32.765  22.378 -21.699  0.00  0.00     0.082 A 
ATOM      3  S   UNL d   1      33.241  21.340 -21.140  0.00  0.00    -0.068 SA
ATOM      4  C   UNL d   1      32.760  22.500 -20.917  0.00  0.00     0.013 A 
ATOM      5  C   UNL d   1      33.056  21.851 -20.573  0.00  0.00     0.031 A 
ATOM      6  C   UNL d   1      32.525  23.112 -20.474  0.00  0.00     0.001 A 
ATOM      7  C   UNL d   1      32.882  22.430 -19.346  0.00  0.00     0.006 A 
ATOM      8  C   UNL d   1      32.588  23.073 -19.690  0.00  0.00     0.001 A 
ENDROOT
BRANCH   1   9
ATOM      9  N   UNL d   1      33.241  21.172 -22.345  0.00  0.00    -0.201 NA
ATOM     10  C   UNL d   1      32.897  20.314 -22.077  0.00  0.00     0.280 C 
ATOM     11  O   UNL d   1      32.540  20.072 -21.549  0.00  0.00    -0.265 OA
BRANCH  10  12
ATOM     12  C   UNL d   1      33.080  19.721 -22.622  0.00  0.00     0.062 C 
BRANCH  12  13
ATOM     13  C   UNL d   1      32.616  19.033 -22.658  0.00  0.00     0.005 C 
BRANCH  13  14
ATOM     14  C   UNL d   1      32.770  18.461 -23.233  0.00  0.00     0.000 A 
ATOM     15  C   UNL d   1      32.653  18.633 -24.035  0.00  0.00     0.000 A 
ATOM     16  C   UNL d   1      32.804  18.067 -24.615  0.00  0.00     0.000 A 
ATOM     17  C   UNL d   1      33.076  17.316 -24.399  0.00  0.00     0.000 A 
ATOM     18  C   UNL d   1      33.195  17.140 -23.592  0.00  0.00     0.000 A 
ATOM     19  C   UNL d   1      33.041  17.711 -23.017  0.00  0.00     0.000 A 
ENDBRANCH  13  14
ENDBRANCH  12  13
ENDBRANCH  10  12
ENDBRANCH   1   9
BRANCH   2  20
ATOM     20  C   UNL d   1      32.516  22.889 -22.246  0.00  0.00     0.281 C 
ATOM     21  O   UNL d   1      31.762  23.131 -22.243  0.00  0.00    -0.265 OA
ATOM     22  N   UNL d   1      33.015  23.160 -22.796  0.00  0.00    -0.205 NA
ATOM     23  C   UNL d   1      32.750  23.694 -23.367  0.00  0.00     0.123 C 
ENDBRANCH   2  20
TORSDOF 5
ENDMDL
MODEL 2
REMARK VINA RESULT:      -2.4      1.300      2.199
REMARK  5 active torsions:
REMARK  status: ('A' for Active; 'I' for Inactive)
REMARK    1  A    between atoms: N_6  and  C_1 
REMARK    2  A    between atoms: C_7  and  C_2 
REMARK       I    between atoms: C_8  and  N_6 
REMARK       I    between atoms: N_13  and  C_7 
REMARK    3  A    between atoms: C_9  and  C_8 
REMARK    4  A    between atoms: C_10  and  C_9 
REMARK    5  A    between atoms: C_15  and  C_10 
ROOT
ATOM      1  C   UNL d   1      33.019  20.584 -22.248  0.00  0.00     0.119 A 
ATOM      2  C   UNL d   1      32.823  21.241 -21.884  0.00  0.00     0.082 A 
ATOM      3  S   UNL d   1      33.240  20.764 -22.986  0.00  0.00    -0.068 SA
ATOM      4  C   UNL d   1      32.917  21.843 -22.388  0.00  0.00     0.013 A 
ATOM      5  C   UNL d   1      33.177  21.542 -23.074  0.00  0.00     0.031 A 
ATOM      6  C   UNL d   1      32.802  22.622 -22.316  0.00  0.00     0.001 A 
ATOM      7  C   UNL d   1      33.205  22.800 -23.609  0.00  0.00     0.006 A 
ATOM      8  C   UNL d   1      32.947  23.097 -22.928  0.00  0.00     0.001 A 
ENDROOT
BRANCH   1   9
ATOM      9  N   UNL d   1      33.088  19.851 -22.196  0.00  0.00    -0.201 NA
ATOM     10  C   UNL d   1      32.723  19.447 -22.990  0.00  0.00     0.280 C 
ATOM     11  O   UNL d   1      32.429  19.671 -23.563  0.00  0.00    -0.265 OA
BRANCH  10  12
ATOM     12  C   UNL d   1      32.780  18.624 -22.975  0.00  0.00     0.062 C 
BRANCH  12  13
ATOM     13  C   UNL d   1      32.231  18.161 -23.393  0.00  0.00     0.005 C 
BRANCH  13  14
ATOM     14  C   UNL d   1      32.328  17.343 -23.437  0.00  0.00     0.000 A 
ATOM     15  C   UNL d   1      31.687  16.857 -23.635  0.00  0.00     0.000 A 
ATOM     16  C   UNL d   1      31.776  16.039 -23.681  0.00  0.00     0.000 A 
ATOM     17  C   UNL d   1      32.512  15.693 -23.527  0.00  0.00     0.000 A 
ATOM     18  C   UNL d   1      33.160  16.180 -23.326  0.00  0.00     0.000 A 
ATOM     19  C   UNL d   1      33.063  16.999 -23.283  0.00  0.00     0.000 A 
ENDBRANCH  13  14
ENDBRANCH  12  13
ENDBRANCH  10  12
ENDBRANCH   1   9
BRANCH   2  20
ATOM     20  C   UNL d   1      32.571  21.300 -21.139  0.00  0.00     0.281 C 
ATOM     21  O   UNL d   1      31.797  21.378 -20.990  0.00  0.00    -0.265 OA
ATOM     22  N   UNL d   1      33.088  21.281 -20.541  0.00  0.00    -0.205 NA
ATOM     23  C   UNL d   1      32.822  21.343 -19.763  0.00  0.00     0.123 C 
ENDBRANCH   2  20
TORSDOF 5
ENDMDL
MODEL 3
REMARK VINA RESULT:      -1.4      1.870      5.160
REMARK  5 active torsions:
REMARK  status: ('A' for Active; 'I' for Inactive)
REMARK    1  A    between atoms: N_6  and  C_1 
REMARK    2  A    between atoms: C_7  and  C_2 
REMARK       I    between atoms: C_8  and  N_6 
REMARK       I    between atoms: N_13  and  C_7 
REMARK    3  A    between atoms: C_9  and  C_8 
REMARK    4  A    between atoms: C_10  and  C_9 
REMARK    5  A    between atoms: C_15  and  C_10 
ROOT
ATOM      1  C   UNL d   1      32.679  18.236 -23.554  0.00  0.00     0.119 A 
ATOM      2  C   UNL d   1      32.208  17.716 -23.883  0.00  0.00     0.082 A 
ATOM      3  S   UNL d   1      33.241  17.846 -23.155  0.00  0.00    -0.068 SA
ATOM      4  C   UNL d   1      32.466  16.992 -23.698  0.00  0.00     0.013 A 
ATOM      5  C   UNL d   1      33.110  17.077 -23.244  0.00  0.00     0.031 A 
ATOM      6  C   UNL d   1      32.203  16.268 -23.880  0.00  0.00     0.001 A 
ATOM      7  C   UNL d   1      33.223  15.718 -23.157  0.00  0.00     0.006 A 
ATOM      8  C   UNL d   1      32.584  15.634 -23.608  0.00  0.00     0.001 A 
ENDROOT
BRANCH   1   9
ATOM      9  N   UNL d   1      32.827  18.952 -23.452  0.00  0.00    -0.201 NA
ATOM     10  C   UNL d   1      32.923  19.120 -22.509  0.00  0.00     0.280 C 
ATOM     11  O   UNL d   1      32.886  18.747 -21.939  0.00  0.00    -0.265 OA
BRANCH  10  12
ATOM     12  C   UNL d   1      33.090  19.911 -22.349  0.00  0.00     0.062 C 
BRANCH  12  13
ATOM     13  C   UNL d   1      32.646  20.324 -21.781  0.00  0.00     0.005 C 
BRANCH  13  14
ATOM     14  C   UNL d   1      32.822  21.113 -21.612  0.00  0.00     0.000 A 
ATOM     15  C   UNL d   1      33.000  21.344 -20.836  0.00  0.00     0.000 A 
ATOM     16  C   UNL d   1      33.176  22.130 -20.660  0.00  0.00     0.000 A 
ATOM     17  C   UNL d   1      33.176  22.698 -21.260  0.00  0.00     0.000 A 
ATOM     18  C   UNL d   1      32.997  22.469 -22.043  0.00  0.00     0.000 A 
ATOM     19  C   UNL d   1      32.822  21.680 -22.212  0.00  0.00     0.000 A 
ENDBRANCH  13  14
ENDBRANCH  12  13
ENDBRANCH  10  12
ENDBRANCH   1   9
BRANCH   2  20
ATOM     20  C   UNL d   1      31.577  17.879 -24.329  0.00  0.00     0.281 C 
ATOM     21  O   UNL d   1      31.676  18.136 -25.071  0.00  0.00    -0.265 OA
ATOM     22  N   UNL d   1      30.848  17.787 -24.037  0.00  0.00    -0.205 NA
ATOM     23  C   UNL d   1      30.191  17.959 -24.506  0.00  0.00     0.123 C 
ENDBRANCH   2  20
TORSDOF 5
ENDMDL
