MODEL 1
REMARK VINA RESULT:      67.1      0.000      0.000
REMARK  10 active torsions:
REMARK  status: ('A' for Active; 'I' for Inactive)
REMARK    1  A    between atoms: N_9  and  C_1 
REMARK    2  A    between atoms: C_4  and  S_21 
REMARK    3  A    between atoms: C_23  and  C_8 
REMARK       I    between atoms: C_19  and  N_9 
REMARK    4  A    between atoms: O_26  and  C_10 
REMARK    5  A    between atoms: C_11  and  C_12 
REMARK       I    between atoms: C_12  and  N_20 
REMARK    6  A    between atoms: O_27  and  C_13 
REMARK    7  A    between atoms: O_28  and  C_14 
REMARK    8  A    between atoms: C_25  and  C_19 
REMARK    9  A    between atoms: N_20  and  C_23 
REMARK   10  A    between atoms: S_21  and  C_25 
ROOT
ATOM      1  O   UNL d   1      13.575  15.177  -4.927  0.00  0.00    -0.262 OA
ATOM      2  C   UNL d   1      13.951  15.108  -5.664  0.00  0.00     0.236 A 
ATOM      3  N   UNL d   1      14.051  14.311  -5.819  0.00  0.00    -0.114 NA
ATOM      4  N   UNL d   1      13.741  13.886  -5.184  0.00  0.00    -0.119 NA
ATOM      5  C   UNL d   1      13.448  14.420  -4.635  0.00  0.00     0.224 A 
ENDROOT
BRANCH   5   6
ATOM      6  C   UNL d   1      13.090  14.228  -3.918  0.00  0.00     0.149 C 
BRANCH   6   7
ATOM      7  N   UNL d   1      13.496  14.324  -3.210  0.00  0.00    -0.203 NA
ATOM      8  C   UNL d   1      13.859  13.674  -2.850  0.00  0.00     0.279 C 
ATOM      9  O   UNL d   1      13.817  12.929  -3.197  0.00  0.00    -0.265 OA
BRANCH   8  10
ATOM     10  C   UNL d   1      14.266  13.776  -2.137  0.00  0.00     0.062 A 
ATOM     11  C   UNL d   1      14.572  14.524  -1.943  0.00  0.00     0.031 A 
ATOM     12  C   UNL d   1      14.972  14.613  -1.238  0.00  0.00     0.118 A 
ATOM     13  C   UNL d   1      15.076  13.992  -0.726  0.00  0.00     0.138 A 
ATOM     14  C   UNL d   1      14.764  13.243  -0.931  0.00  0.00     0.118 A 
ATOM     15  C   UNL d   1      14.362  13.153  -1.641  0.00  0.00     0.031 A 
BRANCH  12  16
ATOM     16  O   UNL d   1      15.283  15.357  -1.031  0.00  0.00    -0.326 OA
ATOM     17  C   UNL d   1      14.777  16.014  -1.002  0.00  0.00     0.181 C 
ENDBRANCH  12  16
BRANCH  13  18
ATOM     18  O   UNL d   1      15.477  14.079  -0.018  0.00  0.00    -0.324 OA
ATOM     19  C   UNL d   1      16.279  14.304  -0.016  0.00  0.00     0.182 C 
ENDBRANCH  13  18
BRANCH  14  20
ATOM     20  O   UNL d   1      14.866  12.602  -0.414  0.00  0.00    -0.326 OA
ATOM     21  C   UNL d   1      14.676  11.842  -0.645  0.00  0.00     0.181 C 
ENDBRANCH  14  20
ENDBRANCH   8  10
ENDBRANCH   6   7
ENDBRANCH   5   6
BRANCH   2  22
ATOM     22  S   UNL d   1      14.179  15.735  -6.149  0.00  0.00    -0.036 SA
BRANCH  22  23
ATOM     23  C   UNL d   1      13.680  16.372  -6.260  0.00  0.00     0.101 C 
BRANCH  23  24
ATOM     24  C   UNL d   1      13.958  17.153  -6.138  0.00  0.00     0.288 C 
ATOM     25  N   UNL d   1      13.489  17.795  -6.361  0.00  0.00    -0.182 NA
ATOM     26  O   UNL d   1      14.692  17.278  -5.798  0.00  0.00    -0.265 OA
BRANCH  25  27
ATOM     27  C   UNL d   1      13.757  18.572  -6.244  0.00  0.00     0.197 A 
ATOM     28  N   UNL d   1      14.553  18.803  -6.199  0.00  0.00    -0.221 NA
ATOM     29  C   UNL d   1      14.573  19.620  -6.079  0.00  0.00     0.090 A 
ATOM     30  C   UNL d   1      15.190  20.149  -5.993  0.00  0.00     0.020 A 
ATOM     31  C   UNL d   1      13.782  19.894  -6.049  0.00  0.00     0.050 A 
ATOM     32  C   UNL d   1      15.044  20.956  -5.877  0.00  0.00     0.002 A 
ATOM     33  C   UNL d   1      14.258  21.223  -5.847  0.00  0.00     0.001 A 
ATOM     34  C   UNL d   1      13.640  20.694  -5.933  0.00  0.00     0.008 A 
ATOM     35  S   UNL d   1      13.279  19.244  -6.151  0.00  0.00    -0.047 SA
ENDBRANCH  25  27
ENDBRANCH  23  24
ENDBRANCH  22  23
ENDBRANCH   2  22
TORSDOF 10
ENDMDL
MODEL 2
REMARK VINA RESULT:      69.0      2.819      5.980
REMARK  10 active torsions:
REMARK  status: ('A' for Active; 'I' for Inactive)
REMARK    1  A    between atoms: N_9  and  C_1 
REMARK    2  A    between atoms: C_4  and  S_21 
REMARK    3  A    between atoms: C_23  and  C_8 
REMARK       I    between atoms: C_19  and  N_9 
REMARK    4  A    between atoms: O_26  and  C_10 
REMARK    5  A    between atoms: C_11  and  C_12 
REMARK       I    between atoms: C_12  and  N_20 
REMARK    6  A    between atoms: O_27  and  C_13 
REMARK    7  A    between atoms: O_28  and  C_14 
REMARK    8  A    between atoms: C_25  and  C_19 
REMARK    9  A    between atoms: N_20  and  C_23 
REMARK   10  A    between atoms: S_21  and  C_25 
ROOT
ATOM      1  O   UNL d   1      15.026  13.790  -0.504  0.00  0.00    -0.262 OA
ATOM      2  C   UNL d   1      15.478  13.125  -0.293  0.00  0.00     0.236 A 
ATOM      3  N   UNL d   1      16.226  13.387  -0.088  0.00  0.00    -0.114 NA
ATOM      4  N   UNL d   1      16.241  14.207  -0.169  0.00  0.00    -0.119 NA
ATOM      5  C   UNL d   1      15.502  14.455  -0.425  0.00  0.00     0.224 A 
ENDROOT
BRANCH   5   6
ATOM      6  C   UNL d   1      15.279  15.234  -0.575  0.00  0.00     0.149 C 
BRANCH   6   7
ATOM      7  N   UNL d   1      15.337  15.545  -1.334  0.00  0.00    -0.203 NA
ATOM      8  C   UNL d   1      14.979  16.270  -1.511  0.00  0.00     0.279 C 
ATOM      9  O   UNL d   1      14.564  16.682  -0.934  0.00  0.00    -0.265 OA
BRANCH   8  10
ATOM     10  C   UNL d   1      15.041  16.579  -2.276  0.00  0.00     0.062 A 
ATOM     11  C   UNL d   1      15.093  17.401  -2.384  0.00  0.00     0.031 A 
ATOM     12  C   UNL d   1      15.154  17.695  -3.143  0.00  0.00     0.118 A 
ATOM     13  C   UNL d   1      15.164  17.204  -3.789  0.00  0.00     0.138 A 
ATOM     14  C   UNL d   1      15.112  16.378  -3.669  0.00  0.00     0.118 A 
ATOM     15  C   UNL d   1      15.051  16.082  -2.906  0.00  0.00     0.031 A 
BRANCH  12  16
ATOM     16  O   UNL d   1      15.206  18.516  -3.264  0.00  0.00    -0.326 OA
ATOM     17  C   UNL d   1      14.552  18.922  -3.575  0.00  0.00     0.181 C 
ENDBRANCH  12  16
BRANCH  13  18
ATOM     18  O   UNL d   1      15.225  17.496  -4.551  0.00  0.00    -0.324 OA
ATOM     19  C   UNL d   1      15.774  17.166  -5.083  0.00  0.00     0.182 C 
ENDBRANCH  13  18
BRANCH  14  20
ATOM     20  O   UNL d   1      15.122  15.868  -4.325  0.00  0.00    -0.326 OA
ATOM     21  C   UNL d   1      14.854  15.099  -4.263  0.00  0.00     0.181 C 
ENDBRANCH  14  20
ENDBRANCH   8  10
ENDBRANCH   6   7
ENDBRANCH   5   6
BRANCH   2  22
ATOM     22  S   UNL d   1      15.214  12.344  -0.294  0.00  0.00    -0.036 SA
BRANCH  22  23
ATOM     23  C   UNL d   1      14.417  12.180  -0.356  0.00  0.00     0.101 C 
BRANCH  23  24
ATOM     24  C   UNL d   1      14.033  12.220  -1.101  0.00  0.00     0.288 C 
ATOM     25  N   UNL d   1      14.473  12.390  -1.779  0.00  0.00    -0.182 NA
ATOM     26  O   UNL d   1      13.227  12.091  -1.154  0.00  0.00    -0.265 OA
BRANCH  25  27
ATOM     27  C   UNL d   1      14.102  12.432  -2.520  0.00  0.00     0.197 A 
ATOM     28  N   UNL d   1      13.693  13.092  -2.815  0.00  0.00    -0.221 NA
ATOM     29  C   UNL d   1      13.412  12.899  -3.567  0.00  0.00     0.090 A 
ATOM     30  C   UNL d   1      12.978  13.320  -4.117  0.00  0.00     0.020 A 
ATOM     31  C   UNL d   1      13.650  12.115  -3.737  0.00  0.00     0.050 A 
ATOM     32  C   UNL d   1      12.769  12.981  -4.844  0.00  0.00     0.002 A 
ATOM     33  C   UNL d   1      13.007  12.202  -5.008  0.00  0.00     0.001 A 
ATOM     34  C   UNL d   1      13.442  11.781  -4.458  0.00  0.00     0.008 A 
ATOM     35  S   UNL d   1      14.077  11.827  -3.088  0.00  0.00    -0.047 SA
ENDBRANCH  25  27
ENDBRANCH  23  24
ENDBRANCH  22  23
ENDBRANCH   2  22
TORSDOF 10
ENDMDL
