MODEL 1
REMARK VINA RESULT:      65.0      0.000      0.000
REMARK  4 active torsions:
REMARK  status: ('A' for Active; 'I' for Inactive)
REMARK    1  A    between atoms: S_11  and  C_4 
REMARK       I    between atoms: N_8  and  C_10 
REMARK    2  A    between atoms: C_20  and  N_9 
REMARK    3  A    between atoms: C_10  and  C_15 
REMARK    4  A    between atoms: C_15  and  S_11 
ROOT
ATOM      1  N   UNL d   1      14.120  16.147  -5.382  0.00  0.00    -0.269 N 
ATOM      2  N   UNL d   1      14.219  17.766  -5.654  0.00  0.00    -0.301 N 
ATOM      3  C   UNL d   1      14.070  15.335  -5.245  0.00  0.00     0.272 C 
ATOM      4  C   UNL d   1      14.130  16.672  -4.745  0.00  0.00     0.102 A 
ATOM      5  C   UNL d   1      14.159  16.433  -6.154  0.00  0.00     0.102 A 
ATOM      6  C   UNL d   1      14.208  17.241  -6.290  0.00  0.00     0.100 A 
ATOM      7  C   UNL d   1      14.180  17.480  -4.881  0.00  0.00     0.100 A 
ATOM      8  O   UNL d   1      14.059  14.809  -5.882  0.00  0.00    -0.266 OA
ENDROOT
BRANCH   3   9
ATOM      9  C   UNL d   1      14.031  15.047  -4.472  0.00  0.00     0.099 C 
BRANCH   9  10
ATOM     10  S   UNL d   1      13.365  14.628  -4.221  0.00  0.00    -0.044 SA
BRANCH  10  11
ATOM     11  C   UNL d   1      13.463  13.907  -3.814  0.00  0.00     0.182 A 
ATOM     12  N   UNL d   1      13.859  13.894  -3.080  0.00  0.00    -0.222 NA
ATOM     13  C   UNL d   1      13.954  13.190  -2.683  0.00  0.00     0.095 A 
ATOM     14  C   UNL d   1      13.661  12.487  -3.001  0.00  0.00     0.104 A 
ATOM     15  C   UNL d   1      14.315  13.015  -1.963  0.00  0.00     0.026 A 
ATOM     16  C   UNL d   1      13.272  12.490  -3.716  0.00  0.00     0.274 A 
ATOM     17  S   UNL d   1      13.841  11.879  -2.477  0.00  0.00    -0.081 SA
ATOM     18  N   UNL d   1      13.169  13.204  -4.132  0.00  0.00    -0.251 N 
ATOM     19  O   UNL d   1      12.979  11.787  -4.034  0.00  0.00    -0.266 OA
ATOM     20  C   UNL d   1      12.773  13.211  -4.862  0.00  0.00     0.104 C 
ATOM     21  C   UNL d   1      14.246  12.211  -1.836  0.00  0.00     0.031 A 
ATOM     22  C   UNL d   1      14.536  11.808  -1.176  0.00  0.00     0.007 C 
ENDBRANCH  10  11
ENDBRANCH   9  10
ENDBRANCH   3   9
BRANCH   2  23
ATOM     23  C   UNL d   1      14.269  18.578  -5.790  0.00  0.00     0.064 A 
ATOM     24  C   UNL d   1      14.927  19.002  -5.525  0.00  0.00     0.018 A 
ATOM     25  C   UNL d   1      14.977  19.814  -5.662  0.00  0.00     0.002 A 
ATOM     26  C   UNL d   1      14.369  20.202  -6.063  0.00  0.00     0.000 A 
ATOM     27  C   UNL d   1      13.712  19.780  -6.328  0.00  0.00     0.002 A 
ATOM     28  C   UNL d   1      13.662  18.968  -6.191  0.00  0.00     0.018 A 
ENDBRANCH   2  23
TORSDOF 4
ENDMDL
MODEL 2
REMARK VINA RESULT:      66.4      1.278      2.014
REMARK  4 active torsions:
REMARK  status: ('A' for Active; 'I' for Inactive)
REMARK    1  A    between atoms: S_11  and  C_4 
REMARK       I    between atoms: N_8  and  C_10 
REMARK    2  A    between atoms: C_20  and  N_9 
REMARK    3  A    between atoms: C_10  and  C_15 
REMARK    4  A    between atoms: C_15  and  S_11 
ROOT
ATOM      1  N   UNL d   1      14.627  16.934  -3.813  0.00  0.00    -0.269 N 
ATOM      2  N   UNL d   1      14.517  18.214  -4.841  0.00  0.00    -0.301 N 
ATOM      3  C   UNL d   1      14.682  16.293  -3.297  0.00  0.00     0.272 C 
ATOM      4  C   UNL d   1      14.321  16.828  -4.572  0.00  0.00     0.102 A 
ATOM      5  C   UNL d   1      14.877  17.682  -3.569  0.00  0.00     0.102 A 
ATOM      6  C   UNL d   1      14.822  18.321  -4.082  0.00  0.00     0.100 A 
ATOM      7  C   UNL d   1      14.266  17.467  -5.085  0.00  0.00     0.100 A 
ATOM      8  O   UNL d   1      14.988  16.398  -2.538  0.00  0.00    -0.266 OA
ENDROOT
BRANCH   3   9
ATOM      9  C   UNL d   1      14.432  15.545  -3.541  0.00  0.00     0.099 C 
BRANCH   9  10
ATOM     10  S   UNL d   1      14.296  14.953  -2.982  0.00  0.00    -0.044 SA
BRANCH  10  11
ATOM     11  C   UNL d   1      14.070  14.191  -3.235  0.00  0.00     0.182 A 
ATOM     12  N   UNL d   1      13.750  14.085  -3.997  0.00  0.00    -0.222 NA
ATOM     13  C   UNL d   1      13.529  13.341  -4.244  0.00  0.00     0.095 A 
ATOM     14  C   UNL d   1      13.621  12.690  -3.745  0.00  0.00     0.104 A 
ATOM     15  C   UNL d   1      13.204  13.076  -4.953  0.00  0.00     0.026 A 
ATOM     16  C   UNL d   1      13.933  12.784  -2.999  0.00  0.00     0.274 A 
ATOM     17  S   UNL d   1      13.352  12.025  -4.146  0.00  0.00    -0.081 SA
ATOM     18  N   UNL d   1      14.162  13.541  -2.736  0.00  0.00    -0.251 N 
ATOM     19  O   UNL d   1      14.024  12.134  -2.500  0.00  0.00    -0.266 OA
ATOM     20  C   UNL d   1      14.481  13.641  -1.975  0.00  0.00     0.104 C 
ATOM     21  C   UNL d   1      13.094  12.268  -4.895  0.00  0.00     0.031 A 
ATOM     22  C   UNL d   1      12.780  11.788  -5.487  0.00  0.00     0.007 C 
ENDBRANCH  10  11
ENDBRANCH   9  10
ENDBRANCH   3   9
BRANCH   2  23
ATOM     23  C   UNL d   1      14.461  18.856  -5.356  0.00  0.00     0.064 A 
ATOM     24  C   UNL d   1      15.083  19.396  -5.411  0.00  0.00     0.018 A 
ATOM     25  C   UNL d   1      15.028  20.038  -5.926  0.00  0.00     0.002 A 
ATOM     26  C   UNL d   1      14.351  20.140  -6.387  0.00  0.00     0.000 A 
ATOM     27  C   UNL d   1      13.729  19.600  -6.333  0.00  0.00     0.002 A 
ATOM     28  C   UNL d   1      13.784  18.958  -5.817  0.00  0.00     0.018 A 
ENDBRANCH   2  23
TORSDOF 4
ENDMDL
MODEL 3
REMARK VINA RESULT:      67.0      2.021      5.553
REMARK  4 active torsions:
REMARK  status: ('A' for Active; 'I' for Inactive)
REMARK    1  A    between atoms: S_11  and  C_4 
REMARK       I    between atoms: N_8  and  C_10 
REMARK    2  A    between atoms: C_20  and  N_9 
REMARK    3  A    between atoms: C_10  and  C_15 
REMARK    4  A    between atoms: C_15  and  S_11 
ROOT
ATOM      1  N   UNL d   1      13.285  12.790  -3.699  0.00  0.00    -0.269 N 
ATOM      2  N   UNL d   1      13.918  12.412  -2.228  0.00  0.00    -0.301 N 
ATOM      3  C   UNL d   1      12.967  12.979  -4.436  0.00  0.00     0.272 C 
ATOM      4  C   UNL d   1      13.473  13.390  -3.165  0.00  0.00     0.102 A 
ATOM      5  C   UNL d   1      13.414  12.000  -3.496  0.00  0.00     0.102 A 
ATOM      6  C   UNL d   1      13.730  11.812  -2.762  0.00  0.00     0.100 A 
ATOM      7  C   UNL d   1      13.789  13.202  -2.431  0.00  0.00     0.100 A 
ATOM      8  O   UNL d   1      12.779  12.379  -4.971  0.00  0.00    -0.266 OA
ENDROOT
BRANCH   3   9
ATOM      9  C   UNL d   1      12.837  13.769  -4.640  0.00  0.00     0.099 C 
BRANCH   9  10
ATOM     10  S   UNL d   1      13.330  14.139  -5.189  0.00  0.00    -0.044 SA
BRANCH  10  11
ATOM     11  C   UNL d   1      13.755  14.821  -4.967  0.00  0.00     0.182 A 
ATOM     12  N   UNL d   1      13.804  15.036  -4.163  0.00  0.00    -0.222 NA
ATOM     13  C   UNL d   1      14.219  15.703  -3.946  0.00  0.00     0.095 A 
ATOM     14  C   UNL d   1      14.592  16.167  -4.517  0.00  0.00     0.104 A 
ATOM     15  C   UNL d   1      14.357  16.042  -3.208  0.00  0.00     0.026 A 
ATOM     16  C   UNL d   1      14.551  15.965  -5.304  0.00  0.00     0.274 A 
ATOM     17  S   UNL d   1      14.961  16.793  -4.131  0.00  0.00    -0.081 SA
ATOM     18  N   UNL d   1      14.129  15.285  -5.537  0.00  0.00    -0.251 N 
ATOM     19  O   UNL d   1      14.924  16.429  -5.875  0.00  0.00    -0.266 OA
ATOM     20  C   UNL d   1      14.083  15.075  -6.340  0.00  0.00     0.104 C 
ATOM     21  C   UNL d   1      14.813  16.711  -3.320  0.00  0.00     0.031 A 
ATOM     22  C   UNL d   1      15.075  17.213  -2.720  0.00  0.00     0.007 C 
ENDBRANCH  10  11
ENDBRANCH   9  10
ENDBRANCH   3   9
BRANCH   2  23
ATOM     23  C   UNL d   1      14.235  12.223  -1.491  0.00  0.00     0.064 A 
ATOM     24  C   UNL d   1      13.739  11.978  -0.878  0.00  0.00     0.018 A 
ATOM     25  C   UNL d   1      14.057  11.789  -0.140  0.00  0.00     0.002 A 
ATOM     26  C   UNL d   1      14.871  11.845  -0.015  0.00  0.00     0.000 A 
ATOM     27  C   UNL d   1      15.367  12.090  -0.627  0.00  0.00     0.002 A 
ATOM     28  C   UNL d   1      15.050  12.279  -1.365  0.00  0.00     0.018 A 
ENDBRANCH   2  23
TORSDOF 4
ENDMDL
