MODEL 1
REMARK VINA RESULT:      75.3      0.000      0.000
REMARK  5 active torsions:
REMARK  status: ('A' for Active; 'I' for Inactive)
REMARK    1  A    between atoms: N_15  and  C_6 
REMARK    2  A    between atoms: N_14  and  C_18 
REMARK    3  A    between atoms: C_24  and  N_15 
REMARK    4  A    between atoms: C_18  and  C_19 
REMARK    5  A    between atoms: C_19  and  C_24 
ROOT
ATOM      1  N   UNL d   1     -55.715-102.426 -40.026  0.00  0.00    -0.183 N 
ATOM      2  C   UNL d   1     -56.281-102.578 -39.445  0.00  0.00     0.169 A 
ATOM      3  C   UNL d   1     -56.069-102.622 -38.661  0.00  0.00     0.073 A 
ATOM      4  C   UNL d   1     -55.288-102.513 -38.462  0.00  0.00     0.185 A 
ATOM      5  N   UNL d   1     -54.722-102.362 -39.043  0.00  0.00    -0.142 NA
ATOM      6  C   UNL d   1     -55.947-102.386 -40.804  0.00  0.00     0.218 A 
ATOM      7  N   UNL d   1     -57.063-102.685 -39.657  0.00  0.00    -0.226 NA
ATOM      8  C   UNL d   1     -56.628-102.771 -38.086  0.00  0.00     0.007 A 
ATOM      9  N   UNL d   1     -55.057-102.555 -37.672  0.00  0.00    -0.225 NA
ATOM     10  C   UNL d   1     -56.719-102.491 -41.019  0.00  0.00     0.071 A 
ATOM     11  C   UNL d   1     -56.416-102.815 -37.302  0.00  0.00     0.019 A 
ATOM     12  C   UNL d   1     -57.284-102.642 -40.438  0.00  0.00     0.087 A 
ATOM     13  C   UNL d   1     -55.622-102.706 -37.091  0.00  0.00     0.083 A 
ATOM     14  C   UNL d   1     -57.412-102.879 -38.300  0.00  0.00     0.000 C 
ATOM     15  C   UNL d   1     -58.095-102.753 -40.661  0.00  0.00     0.021 C 
ATOM     16  C   UNL d   1     -55.403-102.749 -36.313  0.00  0.00     0.021 C 
ENDROOT
BRANCH   6  17
ATOM     17  N   UNL d   1     -55.356-102.229 -41.398  0.00  0.00    -0.380 NA
BRANCH  17  18
ATOM     18  C   UNL d   1     -54.713-102.148 -41.934  0.00  0.00     0.164 C 
BRANCH  18  19
ATOM     19  C   UNL d   1     -54.743-101.563 -42.536  0.00  0.00     0.054 C 
BRANCH  19  20
ATOM     20  C   UNL d   1     -55.403-101.556 -43.087  0.00  0.00     0.083 C 
BRANCH  20  21
ATOM     21  N   UNL d   1     -55.280-101.740 -43.903  0.00  0.00    -0.299 N 
ATOM     22  C   UNL d   1     -54.844-101.196 -44.398  0.00  0.00     0.107 A 
ATOM     23  C   UNL d   1     -54.716-101.373 -45.219  0.00  0.00     0.142 A 
ATOM     24  O   UNL d   1     -55.024-102.096 -45.547  0.00  0.00    -0.300 OA
ATOM     25  C   UNL d   1     -55.454-102.633 -45.057  0.00  0.00     0.142 A 
ATOM     26  C   UNL d   1     -55.582-102.456 -44.236  0.00  0.00     0.107 A 
ENDBRANCH  20  21
ENDBRANCH  19  20
ENDBRANCH  18  19
ENDBRANCH  17  18
ENDBRANCH   6  17
TORSDOF 5
ENDMDL
