MODEL 1
REMARK VINA RESULT:      29.6      0.000      0.000
REMARK  1 active torsions:
REMARK  status: ('A' for Active; 'I' for Inactive)
REMARK    1  A    between atoms: C_14  and  C_5 
ROOT
ATOM      1  C   UNL d   1      46.122 -17.738  43.331  0.00  0.00     0.111 A 
ATOM      2  C   UNL d   1      46.288 -18.751  42.319  0.00  0.00     0.062 A 
ATOM      3  C   UNL d   1      46.189 -17.143  42.682  0.00  0.00     0.213 A 
ATOM      4  C   UNL d   1      46.346 -18.199  41.744  0.00  0.00     0.101 A 
ATOM      5  C   UNL d   1      46.176 -18.520  43.115  0.00  0.00     0.018 A 
ATOM      6  O   UNL d   1      46.297 -17.396  41.927  0.00  0.00    -0.288 OA
ATOM      7  C   UNL d   1      46.337 -19.564  42.139  0.00  0.00     0.194 A 
ATOM      8  C   UNL d   1      46.012 -17.510  44.116  0.00  0.00     0.105 C 
ATOM      9  N   UNL d   1      45.900 -17.302  44.913  0.00  0.00    -0.191 NA
ATOM     10  C   UNL d   1      46.457 -18.426  40.960  0.00  0.00     0.002 A 
ATOM     11  C   UNL d   1      46.511 -19.209  40.743  0.00  0.00     0.042 A 
ATOM     12  C   UNL d   1      46.445 -19.806  41.382  0.00  0.00     0.019 A 
ATOM     13  O   UNL d   1      46.274 -20.155  42.759  0.00  0.00    -0.287 OA
ATOM     14  N   UNL d   1      46.143 -16.299  42.829  0.00  0.00    -0.120 N 
ATOM     15  C   UNL d   1      46.610 -19.000  39.941  0.00  0.00     0.009 C 
ATOM     16  C   UNL d   1      46.582 -19.935  40.379  0.00  0.00     0.009 C 
ENDROOT
BRANCH   5  17
ATOM     17  C   UNL d   1      46.117 -19.078  43.690  0.00  0.00     0.001 A 
ATOM     18  C   UNL d   1      45.602 -19.686  43.587  0.00  0.00     0.000 A 
ATOM     19  C   UNL d   1      45.528 -20.277  44.177  0.00  0.00     0.000 A 
ATOM     20  C   UNL d   1      45.972 -20.235  44.843  0.00  0.00     0.000 A 
ATOM     21  C   UNL d   1      46.505 -19.603  44.945  0.00  0.00     0.000 A 
ATOM     22  C   UNL d   1      46.576 -19.020  44.360  0.00  0.00     0.000 A 
ENDBRANCH   5  17
TORSDOF 1
ENDMDL
