MODEL 1
REMARK VINA RESULT:      -4.4      0.000      0.000
REMARK  3 active torsions:
REMARK  status: ('A' for Active; 'I' for Inactive)
REMARK       I    between atoms: C_3  and  N_1 
REMARK    1  A    between atoms: C_6  and  C_3 
REMARK    2  A    between atoms: O_9  and  C_6 
REMARK    3  A    between atoms: C_10  and  O_9 
ROOT
ATOM      1  N   UNL d   1      59.051  -0.572  29.421  0.00  0.00    -0.272 N 
ATOM      2  C   UNL d   1      58.991  -1.386  29.284  0.00  0.00     0.067 A 
ATOM      3  C   UNL d   1      58.602  -0.127  29.961  0.00  0.00     0.290 C 
ATOM      4  C   UNL d   1      59.619  -0.276  28.941  0.00  0.00     0.083 A 
ATOM      5  C   UNL d   1      59.533  -1.587  28.711  0.00  0.00     0.018 A 
ATOM      6  O   UNL d   1      58.734   0.682  30.026  0.00  0.00    -0.264 OA
ATOM      7  C   UNL d   1      59.933  -0.903  28.487  0.00  0.00     0.021 A 
ATOM      8  C   UNL d   1      58.515  -1.969  29.607  0.00  0.00     0.018 A 
ATOM      9  C   UNL d   1      59.605  -2.370  28.455  0.00  0.00     0.002 A 
ATOM     10  C   UNL d   1      58.576  -2.742  29.363  0.00  0.00     0.002 A 
ATOM     11  C   UNL d   1      59.134  -2.944  28.775  0.00  0.00     0.000 A 
ENDROOT
BRANCH   3  12
ATOM     12  C   UNL d   1      58.033  -0.506  30.423  0.00  0.00     0.184 C 
BRANCH  12  13
ATOM     13  O   UNL d   1      57.395  -0.064  30.723  0.00  0.00    -0.300 OA
BRANCH  13  14
ATOM     14  C   UNL d   1      57.113  -0.215  31.478  0.00  0.00     0.100 A 
ATOM     15  C   UNL d   1      56.667  -0.901  31.625  0.00  0.00     0.025 A 
ATOM     16  C   UNL d   1      56.383  -1.056  32.378  0.00  0.00     0.002 A 
ATOM     17  C   UNL d   1      56.541  -0.529  32.993  0.00  0.00     0.000 A 
ATOM     18  C   UNL d   1      56.984   0.160  32.864  0.00  0.00     0.002 A 
ATOM     19  C   UNL d   1      57.270   0.310  32.092  0.00  0.00     0.025 A 
ENDBRANCH  13  14
ENDBRANCH  12  13
ENDBRANCH   3  12
TORSDOF 3
ENDMDL
MODEL 2
REMARK VINA RESULT:      -4.3      1.808      2.147
REMARK  3 active torsions:
REMARK  status: ('A' for Active; 'I' for Inactive)
REMARK       I    between atoms: C_3  and  N_1 
REMARK    1  A    between atoms: C_6  and  C_3 
REMARK    2  A    between atoms: O_9  and  C_6 
REMARK    3  A    between atoms: C_10  and  O_9 
ROOT
ATOM      1  N   UNL d   1      58.655   0.598  29.572  0.00  0.00    -0.272 N 
ATOM      2  C   UNL d   1      59.393   0.609  29.947  0.00  0.00     0.067 A 
ATOM      3  C   UNL d   1      57.912   0.550  29.943  0.00  0.00     0.290 C 
ATOM      4  C   UNL d   1      58.773   0.642  28.781  0.00  0.00     0.083 A 
ATOM      5  C   UNL d   1      59.968   0.660  29.373  0.00  0.00     0.018 A 
ATOM      6  O   UNL d   1      57.231   0.546  29.483  0.00  0.00    -0.264 OA
ATOM      7  C   UNL d   1      59.595   0.682  28.640  0.00  0.00     0.021 A 
ATOM      8  C   UNL d   1      59.615   0.579  30.734  0.00  0.00     0.018 A 
ATOM      9  C   UNL d   1      60.769   0.682  29.579  0.00  0.00     0.002 A 
ATOM     10  C   UNL d   1      60.399   0.599  30.950  0.00  0.00     0.002 A 
ATOM     11  C   UNL d   1      60.986   0.652  30.358  0.00  0.00     0.000 A 
ENDROOT
BRANCH   3  12
ATOM     12  C   UNL d   1      57.873   0.508  30.765  0.00  0.00     0.184 C 
BRANCH  12  13
ATOM     13  O   UNL d   1      57.155   0.682  31.146  0.00  0.00    -0.300 OA
BRANCH  13  14
ATOM     14  C   UNL d   1      56.949   0.283  31.833  0.00  0.00     0.100 A 
ATOM     15  C   UNL d   1      57.072   0.642  32.573  0.00  0.00     0.025 A 
ATOM     16  C   UNL d   1      56.867   0.246  33.262  0.00  0.00     0.002 A 
ATOM     17  C   UNL d   1      56.538  -0.509  33.220  0.00  0.00     0.000 A 
ATOM     18  C   UNL d   1      56.409  -0.880  32.489  0.00  0.00     0.002 A 
ATOM     19  C   UNL d   1      56.621  -0.470  31.792  0.00  0.00     0.025 A 
ENDBRANCH  13  14
ENDBRANCH  12  13
ENDBRANCH   3  12
TORSDOF 3
ENDMDL
MODEL 3
REMARK VINA RESULT:      -4.2      1.961      2.241
REMARK  3 active torsions:
REMARK  status: ('A' for Active; 'I' for Inactive)
REMARK       I    between atoms: C_3  and  N_1 
REMARK    1  A    between atoms: C_6  and  C_3 
REMARK    2  A    between atoms: O_9  and  C_6 
REMARK    3  A    between atoms: C_10  and  O_9 
ROOT
ATOM      1  N   UNL d   1      58.983   0.623  31.127  0.00  0.00    -0.272 N 
ATOM      2  C   UNL d   1      58.594   0.567  30.399  0.00  0.00     0.067 A 
ATOM      3  C   UNL d   1      58.628   0.621  31.879  0.00  0.00     0.290 C 
ATOM      4  C   UNL d   1      59.770   0.682  30.990  0.00  0.00     0.083 A 
ATOM      5  C   UNL d   1      59.156   0.592  29.809  0.00  0.00     0.018 A 
ATOM      6  O   UNL d   1      59.100   0.682  32.549  0.00  0.00    -0.264 OA
ATOM      7  C   UNL d   1      59.895   0.663  30.164  0.00  0.00     0.021 A 
ATOM      8  C   UNL d   1      57.804   0.497  30.196  0.00  0.00     0.018 A 
ATOM      9  C   UNL d   1      58.934   0.547  29.014  0.00  0.00     0.002 A 
ATOM     10  C   UNL d   1      57.574   0.452  29.417  0.00  0.00     0.002 A 
ATOM     11  C   UNL d   1      58.152   0.477  28.816  0.00  0.00     0.000 A 
ENDROOT
BRANCH   3  12
ATOM     12  C   UNL d   1      57.807   0.557  31.938  0.00  0.00     0.184 C 
BRANCH  12  13
ATOM     13  O   UNL d   1      57.450   0.615  32.687  0.00  0.00    -0.300 OA
BRANCH  13  14
ATOM     14  C   UNL d   1      56.740   0.230  32.831  0.00  0.00     0.100 A 
ATOM     15  C   UNL d   1      56.694  -0.597  32.758  0.00  0.00     0.025 A 
ATOM     16  C   UNL d   1      55.987  -0.986  32.902  0.00  0.00     0.002 A 
ATOM     17  C   UNL d   1      55.318  -0.554  33.120  0.00  0.00     0.000 A 
ATOM     18  C   UNL d   1      55.347   0.271  33.197  0.00  0.00     0.002 A 
ATOM     19  C   UNL d   1      56.073   0.659  33.048  0.00  0.00     0.025 A 
ENDBRANCH  13  14
ENDBRANCH  12  13
ENDBRANCH   3  12
TORSDOF 3
ENDMDL
MODEL 4
REMARK VINA RESULT:      -3.8      0.996      3.860
REMARK  3 active torsions:
REMARK  status: ('A' for Active; 'I' for Inactive)
REMARK       I    between atoms: C_3  and  N_1 
REMARK    1  A    between atoms: C_6  and  C_3 
REMARK    2  A    between atoms: O_9  and  C_6 
REMARK    3  A    between atoms: C_10  and  O_9 
ROOT
ATOM      1  N   UNL d   1      57.772  -0.054  31.033  0.00  0.00    -0.272 N 
ATOM      2  C   UNL d   1      57.252  -0.527  31.469  0.00  0.00     0.067 A 
ATOM      3  C   UNL d   1      58.214  -0.289  30.368  0.00  0.00     0.290 C 
ATOM      4  C   UNL d   1      57.782   0.678  31.357  0.00  0.00     0.083 A 
ATOM      5  C   UNL d   1      56.941  -0.073  32.070  0.00  0.00     0.018 A 
ATOM      6  O   UNL d   1      58.707   0.255  29.999  0.00  0.00    -0.264 OA
ATOM      7  C   UNL d   1      57.263   0.682  32.012  0.00  0.00     0.021 A 
ATOM      8  C   UNL d   1      57.022  -1.310  31.399  0.00  0.00     0.018 A 
ATOM      9  C   UNL d   1      56.398  -0.396  32.604  0.00  0.00     0.002 A 
ATOM     10  C   UNL d   1      56.489  -1.638  31.919  0.00  0.00     0.002 A 
ATOM     11  C   UNL d   1      56.172  -1.169  32.533  0.00  0.00     0.000 A 
ENDROOT
BRANCH   3  12
ATOM     12  C   UNL d   1      58.150  -1.064  30.093  0.00  0.00     0.184 C 
BRANCH  12  13
ATOM     13  O   UNL d   1      58.429  -1.248  29.332  0.00  0.00    -0.300 OA
BRANCH  13  14
ATOM     14  C   UNL d   1      58.715  -2.000  29.171  0.00  0.00     0.100 A 
ATOM     15  C   UNL d   1      59.490  -2.205  29.392  0.00  0.00     0.025 A 
ATOM     16  C   UNL d   1      59.780  -2.955  29.233  0.00  0.00     0.002 A 
ATOM     17  C   UNL d   1      59.299  -3.509  28.853  0.00  0.00     0.000 A 
ATOM     18  C   UNL d   1      58.524  -3.320  28.627  0.00  0.00     0.002 A 
ATOM     19  C   UNL d   1      58.237  -2.552  28.793  0.00  0.00     0.025 A 
ENDBRANCH  13  14
ENDBRANCH  12  13
ENDBRANCH   3  12
TORSDOF 3
ENDMDL
MODEL 5
REMARK VINA RESULT:      -3.5      8.539      9.610
REMARK  3 active torsions:
REMARK  status: ('A' for Active; 'I' for Inactive)
REMARK       I    between atoms: C_3  and  N_1 
REMARK    1  A    between atoms: C_6  and  C_3 
REMARK    2  A    between atoms: O_9  and  C_6 
REMARK    3  A    between atoms: C_10  and  O_9 
ROOT
ATOM      1  N   UNL d   1      60.391  -8.604  35.226  0.00  0.00    -0.272 N 
ATOM      2  C   UNL d   1      59.831  -8.019  35.396  0.00  0.00     0.067 A 
ATOM      3  C   UNL d   1      60.337  -9.182  34.630  0.00  0.00     0.290 C 
ATOM      4  C   UNL d   1      61.003  -8.524  35.736  0.00  0.00     0.083 A 
ATOM      5  C   UNL d   1      60.109  -7.576  36.021  0.00  0.00     0.018 A 
ATOM      6  O   UNL d   1      60.947  -9.724  34.537  0.00  0.00    -0.264 OA
ATOM      7  C   UNL d   1      60.841  -7.880  36.243  0.00  0.00     0.021 A 
ATOM      8  C   UNL d   1      59.106  -7.832  35.065  0.00  0.00     0.018 A 
ATOM      9  C   UNL d   1      59.667  -6.944  36.319  0.00  0.00     0.002 A 
ATOM     10  C   UNL d   1      58.662  -7.213  35.350  0.00  0.00     0.002 A 
ATOM     11  C   UNL d   1      58.951  -6.761  35.990  0.00  0.00     0.000 A 
ENDROOT
BRANCH   3  12
ATOM     12  C   UNL d   1      59.671  -9.200  34.143  0.00  0.00     0.184 C 
BRANCH  12  13
ATOM     13  O   UNL d   1      59.588  -9.818  33.594  0.00  0.00    -0.300 OA
BRANCH  13  14
ATOM     14  C   UNL d   1      59.043  -9.752  32.984  0.00  0.00     0.100 A 
ATOM     15  C   UNL d   1      58.229  -9.814  33.146  0.00  0.00     0.025 A 
ATOM     16  C   UNL d   1      57.681  -9.749  32.540  0.00  0.00     0.002 A 
ATOM     17  C   UNL d   1      57.939  -9.622  31.766  0.00  0.00     0.000 A 
ATOM     18  C   UNL d   1      58.747  -9.559  31.587  0.00  0.00     0.002 A 
ATOM     19  C   UNL d   1      59.298  -9.626  32.212  0.00  0.00     0.025 A 
ENDBRANCH  13  14
ENDBRANCH  12  13
ENDBRANCH   3  12
TORSDOF 3
ENDMDL
MODEL 6
REMARK VINA RESULT:      -3.5      1.747      2.665
REMARK  3 active torsions:
REMARK  status: ('A' for Active; 'I' for Inactive)
REMARK       I    between atoms: C_3  and  N_1 
REMARK    1  A    between atoms: C_6  and  C_3 
REMARK    2  A    between atoms: O_9  and  C_6 
REMARK    3  A    between atoms: C_10  and  O_9 
ROOT
ATOM      1  N   UNL d   1      60.404  -2.529  28.824  0.00  0.00    -0.272 N 
ATOM      2  C   UNL d   1      59.733  -3.001  28.713  0.00  0.00     0.067 A 
ATOM      3  C   UNL d   1      60.413  -1.710  28.972  0.00  0.00     0.290 C 
ATOM      4  C   UNL d   1      61.053  -2.993  28.765  0.00  0.00     0.083 A 
ATOM      5  C   UNL d   1      59.980  -3.766  28.585  0.00  0.00     0.018 A 
ATOM      6  O   UNL d   1      61.133  -1.326  29.068  0.00  0.00    -0.264 OA
ATOM      7  C   UNL d   1      60.803  -3.776  28.614  0.00  0.00     0.021 A 
ATOM      8  C   UNL d   1      58.931  -2.834  28.713  0.00  0.00     0.018 A 
ATOM      9  C   UNL d   1      59.431  -4.371  28.455  0.00  0.00     0.002 A 
ATOM     10  C   UNL d   1      58.382  -3.420  28.587  0.00  0.00     0.002 A 
ATOM     11  C   UNL d   1      58.639  -4.203  28.455  0.00  0.00     0.000 A 
ENDROOT
BRANCH   3  12
ATOM     12  C   UNL d   1      59.700  -1.299  29.019  0.00  0.00     0.184 C 
BRANCH  12  13
ATOM     13  O   UNL d   1      59.711  -0.485  29.185  0.00  0.00    -0.300 OA
BRANCH  13  14
ATOM     14  C   UNL d   1      59.021  -0.104  29.412  0.00  0.00     0.100 A 
ATOM     15  C   UNL d   1      58.558   0.289  28.844  0.00  0.00     0.025 A 
ATOM     16  C   UNL d   1      57.868   0.671  29.066  0.00  0.00     0.002 A 
ATOM     17  C   UNL d   1      57.632   0.666  29.857  0.00  0.00     0.000 A 
ATOM     18  C   UNL d   1      58.083   0.279  30.436  0.00  0.00     0.002 A 
ATOM     19  C   UNL d   1      58.786  -0.108  30.200  0.00  0.00     0.025 A 
ENDBRANCH  13  14
ENDBRANCH  12  13
ENDBRANCH   3  12
TORSDOF 3
ENDMDL
MODEL 7
REMARK VINA RESULT:      -1.9      8.912      9.252
REMARK  3 active torsions:
REMARK  status: ('A' for Active; 'I' for Inactive)
REMARK       I    between atoms: C_3  and  N_1 
REMARK    1  A    between atoms: C_6  and  C_3 
REMARK    2  A    between atoms: O_9  and  C_6 
REMARK    3  A    between atoms: C_10  and  O_9 
ROOT
ATOM      1  N   UNL d   1      58.015  -9.586  31.953  0.00  0.00    -0.272 N 
ATOM      2  C   UNL d   1      58.585  -9.662  31.358  0.00  0.00     0.067 A 
ATOM      3  C   UNL d   1      58.156  -9.553  32.772  0.00  0.00     0.290 C 
ATOM      4  C   UNL d   1      57.293  -9.548  31.608  0.00  0.00     0.083 A 
ATOM      5  C   UNL d   1      58.202  -9.671  30.639  0.00  0.00     0.018 A 
ATOM      6  O   UNL d   1      57.521  -9.476  33.288  0.00  0.00    -0.264 OA
ATOM      7  C   UNL d   1      57.394  -9.600  30.780  0.00  0.00     0.021 A 
ATOM      8  C   UNL d   1      59.402  -9.725  31.377  0.00  0.00     0.018 A 
ATOM      9  C   UNL d   1      58.629  -9.742  29.935  0.00  0.00     0.002 A 
ATOM     10  C   UNL d   1      59.832  -9.795  30.690  0.00  0.00     0.002 A 
ATOM     11  C   UNL d   1      59.436  -9.804  29.956  0.00  0.00     0.000 A 
ENDROOT
BRANCH   3  12
ATOM     12  C   UNL d   1      58.931  -9.599  33.051  0.00  0.00     0.184 C 
BRANCH  12  13
ATOM     13  O   UNL d   1      59.063  -9.768  33.854  0.00  0.00    -0.300 OA
BRANCH  13  14
ATOM     14  C   UNL d   1      59.713  -9.446  34.238  0.00  0.00     0.100 A 
ATOM     15  C   UNL d   1      60.479  -9.701  34.041  0.00  0.00     0.025 A 
ATOM     16  C   UNL d   1      61.131  -9.382  34.423  0.00  0.00     0.002 A 
ATOM     17  C   UNL d   1      61.025  -8.807  35.005  0.00  0.00     0.000 A 
ATOM     18  C   UNL d   1      60.267  -8.542  35.213  0.00  0.00     0.002 A 
ATOM     19  C   UNL d   1      59.608  -8.873  34.818  0.00  0.00     0.025 A 
ENDBRANCH  13  14
ENDBRANCH  12  13
ENDBRANCH   3  12
TORSDOF 3
ENDMDL
MODEL 8
REMARK VINA RESULT:      -1.6      8.630      9.411
REMARK  3 active torsions:
REMARK  status: ('A' for Active; 'I' for Inactive)
REMARK       I    between atoms: C_3  and  N_1 
REMARK    1  A    between atoms: C_6  and  C_3 
REMARK    2  A    between atoms: O_9  and  C_6 
REMARK    3  A    between atoms: C_10  and  O_9 
ROOT
ATOM      1  N   UNL d   1      60.347  -9.583  31.887  0.00  0.00    -0.272 N 
ATOM      2  C   UNL d   1      59.723  -9.642  32.427  0.00  0.00     0.067 A 
ATOM      3  C   UNL d   1      60.294  -9.658  31.060  0.00  0.00     0.290 C 
ATOM      4  C   UNL d   1      61.021  -9.439  32.294  0.00  0.00     0.083 A 
ATOM      5  C   UNL d   1      60.025  -9.532  33.176  0.00  0.00     0.018 A 
ATOM      6  O   UNL d   1      60.973  -9.584  30.604  0.00  0.00    -0.264 OA
ATOM      7  C   UNL d   1      60.835  -9.405  33.107  0.00  0.00     0.021 A 
ATOM      8  C   UNL d   1      58.921  -9.781  32.336  0.00  0.00     0.018 A 
ATOM      9  C   UNL d   1      59.530  -9.560  33.838  0.00  0.00     0.002 A 
ATOM     10  C   UNL d   1      58.425  -9.811  32.980  0.00  0.00     0.002 A 
ATOM     11  C   UNL d   1      58.738  -9.697  33.745  0.00  0.00     0.000 A 
ENDROOT
BRANCH   3  12
ATOM     12  C   UNL d   1      59.560  -9.807  30.714  0.00  0.00     0.184 C 
BRANCH  12  13
ATOM     13  O   UNL d   1      59.498  -9.817  29.885  0.00  0.00    -0.300 OA
BRANCH  13  14
ATOM     14  C   UNL d   1      58.796  -9.595  29.525  0.00  0.00     0.100 A 
ATOM     15  C   UNL d   1      58.812  -9.143  28.827  0.00  0.00     0.025 A 
ATOM     16  C   UNL d   1      58.112  -8.918  28.463  0.00  0.00     0.002 A 
ATOM     17  C   UNL d   1      57.389  -9.143  28.792  0.00  0.00     0.000 A 
ATOM     18  C   UNL d   1      57.355  -9.594  29.487  0.00  0.00     0.002 A 
ATOM     19  C   UNL d   1      58.074  -9.818  29.851  0.00  0.00     0.025 A 
ENDBRANCH  13  14
ENDBRANCH  12  13
ENDBRANCH   3  12
TORSDOF 3
ENDMDL
MODEL 9
REMARK VINA RESULT:      -1.5      2.475      5.474
REMARK  3 active torsions:
REMARK  status: ('A' for Active; 'I' for Inactive)
REMARK       I    between atoms: C_3  and  N_1 
REMARK    1  A    between atoms: C_6  and  C_3 
REMARK    2  A    between atoms: O_9  and  C_6 
REMARK    3  A    between atoms: C_10  and  O_9 
ROOT
ATOM      1  N   UNL d   1      56.093   0.467  34.460  0.00  0.00    -0.272 N 
ATOM      2  C   UNL d   1      55.317   0.529  34.179  0.00  0.00     0.067 A 
ATOM      3  C   UNL d   1      56.782   0.403  33.999  0.00  0.00     0.290 C 
ATOM      4  C   UNL d   1      56.073   0.477  35.261  0.00  0.00     0.083 A 
ATOM      5  C   UNL d   1      54.818   0.578  34.821  0.00  0.00     0.018 A 
ATOM      6  O   UNL d   1      57.513   0.346  34.372  0.00  0.00    -0.264 OA
ATOM      7  C   UNL d   1      55.277   0.547  35.503  0.00  0.00     0.021 A 
ATOM      8  C   UNL d   1      55.001   0.546  33.424  0.00  0.00     0.018 A 
ATOM      9  C   UNL d   1      54.000   0.645  34.715  0.00  0.00     0.002 A 
ATOM     10  C   UNL d   1      54.198   0.613  33.307  0.00  0.00     0.002 A 
ATOM     11  C   UNL d   1      53.690   0.663  33.968  0.00  0.00     0.000 A 
ENDROOT
BRANCH   3  12
ATOM     12  C   UNL d   1      56.720   0.399  33.177  0.00  0.00     0.184 C 
BRANCH  12  13
ATOM     13  O   UNL d   1      57.362   0.666  32.721  0.00  0.00    -0.300 OA
BRANCH  13  14
ATOM     14  C   UNL d   1      57.501   0.341  31.981  0.00  0.00     0.100 A 
ATOM     15  C   UNL d   1      57.080  -0.334  31.738  0.00  0.00     0.025 A 
ATOM     16  C   UNL d   1      57.216  -0.662  30.999  0.00  0.00     0.002 A 
ATOM     17  C   UNL d   1      57.772  -0.320  30.494  0.00  0.00     0.000 A 
ATOM     18  C   UNL d   1      58.200   0.354  30.721  0.00  0.00     0.002 A 
ATOM     19  C   UNL d   1      58.055   0.681  31.477  0.00  0.00     0.025 A 
ENDBRANCH  13  14
ENDBRANCH  12  13
ENDBRANCH   3  12
TORSDOF 3
ENDMDL
