MODEL 1
REMARK VINA RESULT:      84.3      0.000      0.000
REMARK  7 active torsions:
REMARK  status: ('A' for Active; 'I' for Inactive)
REMARK    1  A    between atoms: C_10  and  N_3 
REMARK    2  A    between atoms: C_12  and  C_10 
REMARK    3  A    between atoms: C_16  and  N_11 
REMARK    4  A    between atoms: O_29  and  C_15 
REMARK    5  A    between atoms: C_27  and  C_16 
REMARK    6  A    between atoms: O_30  and  C_17 
REMARK    7  A    between atoms: C_23  and  C_27 
ROOT
ATOM      1  C   UNL d   1     -51.056  27.050  33.706  0.00  0.00     0.191 A 
ATOM      2  C   UNL d   1     -50.608  26.343  33.683  0.00  0.00     0.173 A 
ATOM      3  N   UNL d   1     -51.804  25.595  33.409  0.00  0.00    -0.224 N 
ATOM      4  N   UNL d   1     -50.547  27.681  33.863  0.00  0.00    -0.042 NA
ATOM      5  C   UNL d   1     -49.632  27.463  33.972  0.00  0.00     0.722 A 
ATOM      6  N   UNL d   1     -51.879  27.045  33.582  0.00  0.00    -0.240 N 
ATOM      7  C   UNL d   1     -52.252  26.302  33.432  0.00  0.00     0.343 A 
ATOM      8  C   UNL d   1     -50.984  25.631  33.536  0.00  0.00     0.288 A 
ATOM      9  N   UNL d   1     -49.831  26.550  33.826  0.00  0.00    -0.132 N 
ATOM     10  N   UNL d   1     -48.847  27.659  34.114  0.00  0.00    -0.139 N 
ATOM     11  O   UNL d   1     -53.086  26.290  33.306  0.00  0.00    -0.245 OA
ATOM     12  O   UNL d   1     -50.536  24.924  33.513  0.00  0.00    -0.265 OA
ATOM     13  C   UNL d   1     -49.204  26.020  33.852  0.00  0.00     0.100 A 
ATOM     14  C   UNL d   1     -52.327  27.753  33.605  0.00  0.00     0.105 C 
ATOM     15  C   UNL d   1     -48.411  26.253  34.000  0.00  0.00     0.039 A 
ATOM     16  C   UNL d   1     -48.229  27.091  34.134  0.00  0.00     0.100 A 
ENDROOT
BRANCH  10  17
ATOM     17  C   UNL d   1     -48.302  28.247  34.270  0.00  0.00     0.098 C 
BRANCH  17  18
ATOM     18  C   UNL d   1     -48.560  29.005  34.435  0.00  0.00     0.020 C 
BRANCH  18  19
ATOM     19  C   UNL d   1     -48.111  29.490  34.909  0.00  0.00     0.004 A 
ATOM     20  C   UNL d   1     -48.004  30.271  34.701  0.00  0.00     0.026 A 
ATOM     21  C   UNL d   1     -47.554  30.762  35.174  0.00  0.00     0.116 A 
ATOM     22  C   UNL d   1     -47.210  30.463  35.860  0.00  0.00     0.116 A 
ATOM     23  C   UNL d   1     -47.318  29.684  36.064  0.00  0.00     0.026 A 
ATOM     24  C   UNL d   1     -47.772  29.193  35.586  0.00  0.00     0.002 A 
BRANCH  21  25
ATOM     25  O   UNL d   1     -47.445  31.547  34.967  0.00  0.00    -0.326 OA
ATOM     26  C   UNL d   1     -47.891  31.879  34.380  0.00  0.00     0.181 C 
ENDBRANCH  21  25
BRANCH  22  27
ATOM     27  O   UNL d   1     -46.808  31.095  36.189  0.00  0.00    -0.326 OA
ATOM     28  C   UNL d   1     -47.191  31.608  36.688  0.00  0.00     0.181 C 
ENDBRANCH  22  27
ENDBRANCH  18  19
ENDBRANCH  17  18
ENDBRANCH  10  17
BRANCH   3  29
ATOM     29  C   UNL d   1     -51.768  24.762  33.308  0.00  0.00     0.090 C 
BRANCH  29  30
ATOM     30  C   UNL d   1     -52.396  24.288  33.581  0.00  0.00     0.045 A 
ATOM     31  C   UNL d   1     -52.240  23.678  34.134  0.00  0.00     0.141 A 
ATOM     32  F   UNL d   1     -51.462  23.548  34.408  0.00  0.00    -0.204 F 
ATOM     33  C   UNL d   1     -52.868  23.199  34.410  0.00  0.00     0.030 A 
ATOM     34  C   UNL d   1     -53.642  23.332  34.134  0.00  0.00     0.002 A 
ATOM     35  C   UNL d   1     -53.792  23.942  33.583  0.00  0.00     0.000 A 
ATOM     36  C   UNL d   1     -53.164  24.417  33.310  0.00  0.00     0.004 A 
ENDBRANCH  29  30
ENDBRANCH   3  29
TORSDOF 7
ENDMDL
