MODEL 1
REMARK VINA RESULT:      46.8      0.000      0.000
REMARK  2 active torsions:
REMARK  status: ('A' for Active; 'I' for Inactive)
REMARK       I    between atoms: C_6  and  N_8 
REMARK    1  A    between atoms: C_7  and  C_6 
REMARK    2  A    between atoms: N_8  and  C_11 
ROOT
ATOM      1  N   UNL d   1     -59.246 -98.816 -44.273  0.00  0.00    -0.246 NA
ATOM      2  C   UNL d   1     -58.526 -98.782 -43.145  0.00  0.00     0.019 A 
ATOM      3  C   UNL d   1     -59.295 -98.803 -43.450  0.00  0.00     0.081 A 
ATOM      4  C   UNL d   1     -58.012 -98.783 -43.781  0.00  0.00     0.021 A 
ATOM      5  C   UNL d   1     -58.464 -98.804 -44.471  0.00  0.00     0.082 A 
ATOM      6  C   UNL d   1     -57.195 -98.767 -43.819  0.00  0.00     0.021 A 
ATOM      7  C   UNL d   1     -56.813 -98.773 -44.554  0.00  0.00     0.085 A 
ATOM      8  C   UNL d   1     -58.084 -98.810 -45.213  0.00  0.00     0.021 A 
ATOM      9  C   UNL d   1     -57.263 -98.794 -45.246  0.00  0.00     0.021 A 
ATOM     10  C   UNL d   1     -58.400 -98.764 -42.319  0.00  0.00     0.002 A 
ATOM     11  C   UNL d   1     -59.941 -98.806 -42.930  0.00  0.00     0.019 A 
ATOM     12  C   UNL d   1     -59.044 -98.768 -41.804  0.00  0.00     0.000 A 
ATOM     13  C   UNL d   1     -59.814 -98.789 -42.110  0.00  0.00     0.002 A 
ENDROOT
BRANCH   7  14
ATOM     14  N   UNL d   1     -55.968 -98.756 -44.590  0.00  0.00    -0.206 NA
ATOM     15  C   UNL d   1     -55.533 -99.452 -44.470  0.00  0.00     0.302 C 
ATOM     16  O   UNL d   1     -54.721 -99.418 -44.508  0.00  0.00    -0.263 OA
BRANCH  15  17
ATOM     17  C   UNL d   1     -55.932-100.174 -44.313  0.00  0.00     0.158 A 
ATOM     18  O   UNL d   1     -56.390-100.436 -43.676  0.00  0.00    -0.300 OA
ATOM     19  C   UNL d   1     -56.633-101.199 -43.841  0.00  0.00     0.123 A 
ATOM     20  C   UNL d   1     -56.335-101.411 -44.564  0.00  0.00     0.029 A 
ATOM     21  C   UNL d   1     -55.904-100.775 -44.850  0.00  0.00     0.032 A 
ENDBRANCH  15  17
ENDBRANCH   7  14
TORSDOF 2
ENDMDL
MODEL 2
REMARK VINA RESULT:      48.8      1.023      2.220
REMARK  2 active torsions:
REMARK  status: ('A' for Active; 'I' for Inactive)
REMARK       I    between atoms: C_6  and  N_8 
REMARK    1  A    between atoms: C_7  and  C_6 
REMARK    2  A    between atoms: N_8  and  C_11 
ROOT
ATOM      1  N   UNL d   1     -59.247 -98.793 -44.737  0.00  0.00    -0.246 NA
ATOM      2  C   UNL d   1     -58.538 -98.768 -45.873  0.00  0.00     0.019 A 
ATOM      3  C   UNL d   1     -59.304 -98.782 -45.560  0.00  0.00     0.081 A 
ATOM      4  C   UNL d   1     -58.017 -98.770 -45.242  0.00  0.00     0.021 A 
ATOM      5  C   UNL d   1     -58.463 -98.785 -44.548  0.00  0.00     0.082 A 
ATOM      6  C   UNL d   1     -57.200 -98.760 -45.214  0.00  0.00     0.021 A 
ATOM      7  C   UNL d   1     -56.810 -98.765 -44.482  0.00  0.00     0.085 A 
ATOM      8  C   UNL d   1     -58.075 -98.791 -43.809  0.00  0.00     0.021 A 
ATOM      9  C   UNL d   1     -57.253 -98.781 -43.786  0.00  0.00     0.021 A 
ATOM     10  C   UNL d   1     -58.421 -98.755 -46.700  0.00  0.00     0.002 A 
ATOM     11  C   UNL d   1     -59.955 -98.783 -46.073  0.00  0.00     0.019 A 
ATOM     12  C   UNL d   1     -59.070 -98.757 -47.208  0.00  0.00     0.000 A 
ATOM     13  C   UNL d   1     -59.837 -98.771 -46.894  0.00  0.00     0.002 A 
ENDROOT
BRANCH   7  14
ATOM     14  N   UNL d   1     -55.965 -98.755 -44.455  0.00  0.00    -0.206 NA
ATOM     15  C   UNL d   1     -55.540 -99.467 -44.450  0.00  0.00     0.302 C 
ATOM     16  O   UNL d   1     -54.727 -99.439 -44.424  0.00  0.00    -0.263 OA
BRANCH  15  17
ATOM     17  C   UNL d   1     -55.950-100.200 -44.472  0.00  0.00     0.158 A 
ATOM     18  O   UNL d   1     -56.746-100.396 -44.584  0.00  0.00    -0.300 OA
ATOM     19  C   UNL d   1     -56.809-101.210 -44.548  0.00  0.00     0.123 A 
ATOM     20  C   UNL d   1     -56.072-101.518 -44.417  0.00  0.00     0.029 A 
ATOM     21  C   UNL d   1     -55.546-100.891 -44.371  0.00  0.00     0.032 A 
ENDBRANCH  15  17
ENDBRANCH   7  14
TORSDOF 2
ENDMDL
