MODEL 1
REMARK VINA RESULT:       3.9      0.000      0.000
REMARK  11 active torsions:
REMARK  status: ('A' for Active; 'I' for Inactive)
REMARK    1  A    between atoms: C_4  and  C_1 
REMARK    2  A    between atoms: C_10  and  C_2 
REMARK    3  A    between atoms: C_16  and  C_9 
REMARK    4  A    between atoms: O_24  and  C_10 
REMARK    5  A    between atoms: O_18  and  C_14 
REMARK    6  A    between atoms: O_25  and  C_16 
REMARK    7  A    between atoms: C_26  and  C_17 
REMARK    8  A    between atoms: C_19  and  O_18 
REMARK    9  A    between atoms: C_29  and  O_24 
REMARK   10  A    between atoms: C_28  and  O_25 
REMARK   11  A    between atoms: C_30  and  C_26 
ROOT
ATOM      1  C   UNL d   1      57.749  -0.520  30.727  0.00  0.00     0.090 A 
ATOM      2  C   UNL d   1      57.529  -1.307  30.611  0.00  0.00     0.168 A 
ATOM      3  C   UNL d   1      57.469  -0.107  31.391  0.00  0.00     0.201 A 
ATOM      4  C   UNL d   1      56.968  -0.480  31.941  0.00  0.00     0.062 A 
ATOM      5  O   UNL d   1      57.029  -1.680  31.160  0.00  0.00    -0.301 OA
ATOM      6  C   UNL d   1      56.749  -1.267  31.825  0.00  0.00     0.105 A 
ATOM      7  C   UNL d   1      56.698  -0.068  32.590  0.00  0.00     0.007 A 
ATOM      8  C   UNL d   1      56.258  -1.640  32.359  0.00  0.00     0.050 A 
ATOM      9  C   UNL d   1      55.978  -1.228  33.024  0.00  0.00     0.105 A 
ATOM     10  C   UNL d   1      56.197  -0.441  33.140  0.00  0.00     0.023 A 
ATOM     11  O   UNL d   1      57.689   0.679  31.507  0.00  0.00    -0.286 OA
ENDROOT
BRANCH   1  12
ATOM     12  C   UNL d   1      58.249  -0.147  30.178  0.00  0.00     0.105 A 
ATOM     13  O   UNL d   1      59.072  -0.167  30.244  0.00  0.00    -0.302 OA
ATOM     14  C   UNL d   1      59.376   0.252  29.617  0.00  0.00     0.163 A 
ATOM     15  C   UNL d   1      58.760   0.531  29.163  0.00  0.00     0.032 A 
ATOM     16  C   UNL d   1      58.038   0.283  29.512  0.00  0.00     0.027 A 
BRANCH  14  17
ATOM     17  C   UNL d   1      60.194   0.381  29.454  0.00  0.00     0.323 C 
ATOM     18  O   UNL d   1      60.733   0.496  30.100  0.00  0.00    -0.257 OA
BRANCH  17  19
ATOM     19  O   UNL d   1      60.479   0.399  28.690  0.00  0.00    -0.270 OA
BRANCH  19  20
ATOM     20  C   UNL d   1      61.133  -0.045  28.457  0.00  0.00     0.126 C 
ATOM     21  C   UNL d   1      61.117  -0.853  28.481  0.00  0.00     0.029 C 
ENDBRANCH  19  20
ENDBRANCH  17  19
ENDBRANCH  14  17
ENDBRANCH   1  12
BRANCH   2  22
ATOM     22  C   UNL d   1      57.813  -1.740  29.930  0.00  0.00     0.323 C 
ATOM     23  O   UNL d   1      57.350  -1.777  29.259  0.00  0.00    -0.257 OA
BRANCH  22  24
ATOM     24  O   UNL d   1      58.547  -2.117  29.951  0.00  0.00    -0.270 OA
BRANCH  24  25
ATOM     25  C   UNL d   1      58.700  -2.750  29.434  0.00  0.00     0.126 C 
ATOM     26  C   UNL d   1      59.066  -3.431  29.720  0.00  0.00     0.029 C 
ENDBRANCH  24  25
ENDBRANCH  22  24
ENDBRANCH   2  22
BRANCH  10  27
ATOM     27  C   UNL d   1      55.913  -0.010  33.820  0.00  0.00     0.002 C 
BRANCH  27  28
ATOM     28  C   UNL d   1      56.462   0.244  34.382  0.00  0.00     0.000 C 
ATOM     29  C   UNL d   1      56.169   0.544  35.109  0.00  0.00     0.000 C 
ENDBRANCH  27  28
ENDBRANCH  10  27
BRANCH   9  30
ATOM     30  O   UNL d   1      55.463  -1.620  33.584  0.00  0.00    -0.273 OA
BRANCH  30  31
ATOM     31  C   UNL d   1      55.287  -2.397  33.477  0.00  0.00     0.300 C 
ATOM     32  O   UNL d   1      55.136  -2.617  32.918  0.00  0.00    -0.259 OA
ATOM     33  C   UNL d   1      55.304  -2.921  34.111  0.00  0.00     0.074 C 
ENDBRANCH  30  31
ENDBRANCH   9  30
TORSDOF 11
ENDMDL
