MODEL 1
REMARK VINA RESULT:     -10.5      0.000      0.000
REMARK  3 active torsions:
REMARK  status: ('A' for Active; 'I' for Inactive)
REMARK    1  A    between atoms: C_4  and  C_1 
REMARK    2  A    between atoms: C_8  and  C_3 
REMARK    3  A    between atoms: O_20  and  C_16 
ROOT
ATOM      1  C   UNL d   1      53.201  34.161  54.316  0.00  0.00     0.107 A 
ATOM      2  N   UNL d   1      53.368  34.849  54.740  0.00  0.00    -0.148 NA
ATOM      3  C   UNL d   1      53.781  33.611  54.493  0.00  0.00     0.039 A 
ATOM      4  N   UNL d   1      54.060  34.721  55.183  0.00  0.00    -0.148 NA
ATOM      5  C   UNL d   1      54.329  33.958  55.041  0.00  0.00     0.104 A 
ATOM      6  C   UNL d   1      54.999  33.609  55.371  0.00  0.00     0.023 C 
ENDROOT
BRANCH   1   7
ATOM      7  C   UNL d   1      52.553  34.085  53.816  0.00  0.00     0.059 A 
ATOM      8  C   UNL d   1      52.525  34.506  53.113  0.00  0.00     0.200 A 
ATOM      9  C   UNL d   1      51.879  34.433  52.612  0.00  0.00     0.084 A 
ATOM     10  O   UNL d   1      53.168  35.025  52.897  0.00  0.00    -0.286 OA
ATOM     11  C   UNL d   1      51.250  33.922  52.829  0.00  0.00     0.199 A 
ATOM     12  C   UNL d   1      51.278  33.502  53.530  0.00  0.00     0.042 A 
ATOM     13  O   UNL d   1      50.570  33.831  52.322  0.00  0.00    -0.286 OA
ATOM     14  C   UNL d   1      51.941  33.591  54.023  0.00  0.00     0.008 A 
ENDBRANCH   1   7
BRANCH   3  15
ATOM     15  C   UNL d   1      53.756  32.837  54.134  0.00  0.00     0.003 A 
ATOM     16  C   UNL d   1      54.084  32.705  53.392  0.00  0.00     0.002 A 
ATOM     17  C   UNL d   1      54.050  31.935  53.053  0.00  0.00     0.024 A 
ATOM     18  C   UNL d   1      53.689  31.332  53.472  0.00  0.00     0.094 A 
ATOM     19  C   UNL d   1      53.351  31.450  54.226  0.00  0.00     0.024 A 
ATOM     20  C   UNL d   1      53.385  32.220  54.565  0.00  0.00     0.002 A 
BRANCH  18  21
ATOM     21  O   UNL d   1      53.655  30.561  53.132  0.00  0.00    -0.328 OA
ATOM     22  C   UNL d   1      52.911  30.185  53.064  0.00  0.00     0.181 C 
ENDBRANCH  18  21
ENDBRANCH   3  15
TORSDOF 3
ENDMDL
MODEL 2
REMARK VINA RESULT:     -10.5      1.784      2.760
REMARK  3 active torsions:
REMARK  status: ('A' for Active; 'I' for Inactive)
REMARK    1  A    between atoms: C_4  and  C_1 
REMARK    2  A    between atoms: C_8  and  C_3 
REMARK    3  A    between atoms: O_20  and  C_16 
ROOT
ATOM      1  C   UNL d   1      52.639  32.091  52.950  0.00  0.00     0.107 A 
ATOM      2  N   UNL d   1      52.285  31.512  52.481  0.00  0.00    -0.148 NA
ATOM      3  C   UNL d   1      53.276  31.748  53.333  0.00  0.00     0.039 A 
ATOM      4  N   UNL d   1      52.709  30.803  52.577  0.00  0.00    -0.148 NA
ATOM      5  C   UNL d   1      53.327  30.933  53.102  0.00  0.00     0.104 A 
ATOM      6  C   UNL d   1      53.881  30.373  53.348  0.00  0.00     0.023 C 
ENDROOT
BRANCH   1   7
ATOM      7  C   UNL d   1      52.366  32.866  52.994  0.00  0.00     0.059 A 
ATOM      8  C   UNL d   1      51.636  33.025  53.329  0.00  0.00     0.200 A 
ATOM      9  C   UNL d   1      51.360  33.797  53.374  0.00  0.00     0.084 A 
ATOM     10  O   UNL d   1      51.153  32.389  53.634  0.00  0.00    -0.286 OA
ATOM     11  C   UNL d   1      51.838  34.418  53.073  0.00  0.00     0.199 A 
ATOM     12  C   UNL d   1      52.567  34.259  52.739  0.00  0.00     0.042 A 
ATOM     13  O   UNL d   1      51.571  35.228  53.110  0.00  0.00    -0.286 OA
ATOM     14  C   UNL d   1      52.826  33.470  52.704  0.00  0.00     0.008 A 
ENDBRANCH   1   7
BRANCH   3  15
ATOM     15  C   UNL d   1      53.755  32.215  53.863  0.00  0.00     0.003 A 
ATOM     16  C   UNL d   1      54.391  32.654  53.580  0.00  0.00     0.002 A 
ATOM     17  C   UNL d   1      54.853  33.109  54.116  0.00  0.00     0.024 A 
ATOM     18  C   UNL d   1      54.659  33.106  54.911  0.00  0.00     0.094 A 
ATOM     19  C   UNL d   1      54.017  32.666  55.213  0.00  0.00     0.024 A 
ATOM     20  C   UNL d   1      53.555  32.210  54.677  0.00  0.00     0.002 A 
BRANCH  18  21
ATOM     21  O   UNL d   1      55.122  33.562  55.448  0.00  0.00    -0.328 OA
ATOM     22  C   UNL d   1      55.130  34.394  55.363  0.00  0.00     0.181 C 
ENDBRANCH  18  21
ENDBRANCH   3  15
TORSDOF 3
ENDMDL
MODEL 3
REMARK VINA RESULT:     -10.0      1.758      3.551
REMARK  3 active torsions:
REMARK  status: ('A' for Active; 'I' for Inactive)
REMARK    1  A    between atoms: C_4  and  C_1 
REMARK    2  A    between atoms: C_8  and  C_3 
REMARK    3  A    between atoms: O_20  and  C_16 
ROOT
ATOM      1  C   UNL d   1      53.793  31.781  53.815  0.00  0.00     0.107 A 
ATOM      2  N   UNL d   1      54.110  31.020  53.850  0.00  0.00    -0.148 NA
ATOM      3  C   UNL d   1      53.110  31.747  53.364  0.00  0.00     0.039 A 
ATOM      4  N   UNL d   1      53.617  30.511  53.415  0.00  0.00    -0.148 NA
ATOM      5  C   UNL d   1      52.992  30.947  53.107  0.00  0.00     0.104 A 
ATOM      6  C   UNL d   1      52.377  30.654  52.642  0.00  0.00     0.023 C 
ENDROOT
BRANCH   1   7
ATOM      7  C   UNL d   1      54.136  32.430  54.185  0.00  0.00     0.059 A 
ATOM      8  C   UNL d   1      54.094  32.509  54.999  0.00  0.00     0.200 A 
ATOM      9  C   UNL d   1      54.436  33.157  55.371  0.00  0.00     0.084 A 
ATOM     10  O   UNL d   1      53.693  31.919  55.469  0.00  0.00    -0.286 OA
ATOM     11  C   UNL d   1      54.829  33.733  54.905  0.00  0.00     0.199 A 
ATOM     12  C   UNL d   1      54.871  33.654  54.092  0.00  0.00     0.042 A 
ATOM     13  O   UNL d   1      55.191  34.414  55.271  0.00  0.00    -0.286 OA
ATOM     14  C   UNL d   1      54.518  32.991  53.737  0.00  0.00     0.008 A 
ENDBRANCH   1   7
BRANCH   3  15
ATOM     15  C   UNL d   1      52.656  32.457  53.229  0.00  0.00     0.003 A 
ATOM     16  C   UNL d   1      52.858  32.979  52.627  0.00  0.00     0.002 A 
ATOM     17  C   UNL d   1      52.398  33.674  52.508  0.00  0.00     0.024 A 
ATOM     18  C   UNL d   1      51.757  33.816  52.996  0.00  0.00     0.094 A 
ATOM     19  C   UNL d   1      51.539  33.295  53.612  0.00  0.00     0.024 A 
ATOM     20  C   UNL d   1      51.999  32.600  53.731  0.00  0.00     0.002 A 
BRANCH  18  21
ATOM     21  O   UNL d   1      51.297  34.512  52.877  0.00  0.00    -0.328 OA
ATOM     22  C   UNL d   1      50.497  34.429  52.645  0.00  0.00     0.181 C 
ENDBRANCH  18  21
ENDBRANCH   3  15
TORSDOF 3
ENDMDL
MODEL 4
REMARK VINA RESULT:      -9.5      0.875      2.937
REMARK  3 active torsions:
REMARK  status: ('A' for Active; 'I' for Inactive)
REMARK    1  A    between atoms: C_4  and  C_1 
REMARK    2  A    between atoms: C_8  and  C_3 
REMARK    3  A    between atoms: O_20  and  C_16 
ROOT
ATOM      1  C   UNL d   1      53.594  33.345  54.418  0.00  0.00     0.107 A 
ATOM      2  N   UNL d   1      54.122  33.496  55.034  0.00  0.00    -0.148 NA
ATOM      3  C   UNL d   1      53.158  34.026  54.289  0.00  0.00     0.039 A 
ATOM      4  N   UNL d   1      54.010  34.280  55.288  0.00  0.00    -0.148 NA
ATOM      5  C   UNL d   1      53.415  34.622  54.835  0.00  0.00     0.104 A 
ATOM      6  C   UNL d   1      53.133  35.394  54.908  0.00  0.00     0.023 C 
ENDROOT
BRANCH   1   7
ATOM      7  C   UNL d   1      53.548  32.621  54.030  0.00  0.00     0.059 A 
ATOM      8  C   UNL d   1      54.161  32.377  53.543  0.00  0.00     0.200 A 
ATOM      9  C   UNL d   1      54.118  31.655  53.155  0.00  0.00     0.084 A 
ATOM     10  O   UNL d   1      54.849  32.871  53.436  0.00  0.00    -0.286 OA
ATOM     11  C   UNL d   1      53.440  31.173  53.264  0.00  0.00     0.199 A 
ATOM     12  C   UNL d   1      52.829  31.417  53.749  0.00  0.00     0.042 A 
ATOM     13  O   UNL d   1      53.375  30.419  52.869  0.00  0.00    -0.286 OA
ATOM     14  C   UNL d   1      52.893  32.151  54.133  0.00  0.00     0.008 A 
ENDBRANCH   1   7
BRANCH   3  15
ATOM     15  C   UNL d   1      52.561  34.038  53.679  0.00  0.00     0.003 A 
ATOM     16  C   UNL d   1      51.808  33.738  53.819  0.00  0.00     0.002 A 
ATOM     17  C   UNL d   1      51.232  33.759  53.206  0.00  0.00     0.024 A 
ATOM     18  C   UNL d   1      51.434  34.079  52.480  0.00  0.00     0.094 A 
ATOM     19  C   UNL d   1      52.193  34.388  52.323  0.00  0.00     0.024 A 
ATOM     20  C   UNL d   1      52.770  34.367  52.936  0.00  0.00     0.002 A 
BRANCH  18  21
ATOM     21  O   UNL d   1      50.856  34.100  51.867  0.00  0.00    -0.328 OA
ATOM     22  C   UNL d   1      50.080  34.346  52.055  0.00  0.00     0.181 C 
ENDBRANCH  18  21
ENDBRANCH   3  15
TORSDOF 3
ENDMDL
MODEL 5
REMARK VINA RESULT:      -8.8      1.422      2.689
REMARK  3 active torsions:
REMARK  status: ('A' for Active; 'I' for Inactive)
REMARK    1  A    between atoms: C_4  and  C_1 
REMARK    2  A    between atoms: C_8  and  C_3 
REMARK    3  A    between atoms: O_20  and  C_16 
ROOT
ATOM      1  C   UNL d   1      52.811  34.108  53.413  0.00  0.00     0.107 A 
ATOM      2  N   UNL d   1      52.598  34.890  53.257  0.00  0.00    -0.148 NA
ATOM      3  C   UNL d   1      52.326  33.623  52.966  0.00  0.00     0.039 A 
ATOM      4  N   UNL d   1      51.975  34.886  52.707  0.00  0.00    -0.148 NA
ATOM      5  C   UNL d   1      51.794  34.108  52.516  0.00  0.00     0.104 A 
ATOM      6  C   UNL d   1      51.209  33.859  51.990  0.00  0.00     0.023 C 
ENDROOT
BRANCH   1   7
ATOM      7  C   UNL d   1      53.411  33.900  53.935  0.00  0.00     0.059 A 
ATOM      8  C   UNL d   1      53.318  34.024  54.739  0.00  0.00     0.200 A 
ATOM      9  C   UNL d   1      53.917  33.817  55.262  0.00  0.00     0.084 A 
ATOM     10  O   UNL d   1      52.599  34.371  55.041  0.00  0.00    -0.286 OA
ATOM     11  C   UNL d   1      54.622  33.477  54.960  0.00  0.00     0.199 A 
ATOM     12  C   UNL d   1      54.714  33.352  54.158  0.00  0.00     0.042 A 
ATOM     13  O   UNL d   1      55.256  33.254  55.486  0.00  0.00    -0.286 OA
ATOM     14  C   UNL d   1      54.096  33.569  53.646  0.00  0.00     0.008 A 
ENDBRANCH   1   7
BRANCH   3  15
ATOM     15  C   UNL d   1      52.416  32.775  53.011  0.00  0.00     0.003 A 
ATOM     16  C   UNL d   1      53.014  32.392  52.596  0.00  0.00     0.002 A 
ATOM     17  C   UNL d   1      53.088  31.555  52.652  0.00  0.00     0.024 A 
ATOM     18  C   UNL d   1      52.561  31.140  53.121  0.00  0.00     0.094 A 
ATOM     19  C   UNL d   1      51.949  31.515  53.548  0.00  0.00     0.024 A 
ATOM     20  C   UNL d   1      51.875  32.351  53.492  0.00  0.00     0.002 A 
BRANCH  18  21
ATOM     21  O   UNL d   1      52.635  30.302  53.177  0.00  0.00    -0.328 OA
ATOM     22  C   UNL d   1      53.247  29.984  53.651  0.00  0.00     0.181 C 
ENDBRANCH  18  21
ENDBRANCH   3  15
TORSDOF 3
ENDMDL
MODEL 6
REMARK VINA RESULT:      -8.6      1.696      3.318
REMARK  3 active torsions:
REMARK  status: ('A' for Active; 'I' for Inactive)
REMARK    1  A    between atoms: C_4  and  C_1 
REMARK    2  A    between atoms: C_8  and  C_3 
REMARK    3  A    between atoms: O_20  and  C_16 
ROOT
ATOM      1  C   UNL d   1      52.433  32.457  52.806  0.00  0.00     0.107 A 
ATOM      2  N   UNL d   1      51.851  32.602  52.239  0.00  0.00    -0.148 NA
ATOM      3  C   UNL d   1      52.685  33.179  53.096  0.00  0.00     0.039 A 
ATOM      4  N   UNL d   1      51.743  33.424  52.179  0.00  0.00    -0.148 NA
ATOM      5  C   UNL d   1      52.254  33.797  52.705  0.00  0.00     0.104 A 
ATOM      6  C   UNL d   1      52.324  34.610  52.820  0.00  0.00     0.023 C 
ENDROOT
BRANCH   1   7
ATOM      7  C   UNL d   1      52.684  31.701  53.011  0.00  0.00     0.059 A 
ATOM      8  C   UNL d   1      52.161  31.175  53.359  0.00  0.00     0.200 A 
ATOM      9  C   UNL d   1      52.409  30.419  53.565  0.00  0.00     0.084 A 
ATOM     10  O   UNL d   1      51.353  31.407  53.511  0.00  0.00    -0.286 OA
ATOM     11  C   UNL d   1      53.204  30.197  53.414  0.00  0.00     0.199 A 
ATOM     12  C   UNL d   1      53.726  30.722  53.067  0.00  0.00     0.042 A 
ATOM     13  O   UNL d   1      53.482  29.417  53.620  0.00  0.00    -0.286 OA
ATOM     14  C   UNL d   1      53.453  31.481  52.866  0.00  0.00     0.008 A 
ENDBRANCH   1   7
BRANCH   3  15
ATOM     15  C   UNL d   1      53.291  33.207  53.697  0.00  0.00     0.003 A 
ATOM     16  C   UNL d   1      54.087  33.163  53.495  0.00  0.00     0.002 A 
ATOM     17  C   UNL d   1      54.671  33.192  54.100  0.00  0.00     0.024 A 
ATOM     18  C   UNL d   1      54.434  33.264  54.880  0.00  0.00     0.094 A 
ATOM     19  C   UNL d   1      53.629  33.310  55.101  0.00  0.00     0.024 A 
ATOM     20  C   UNL d   1      53.045  33.281  54.495  0.00  0.00     0.002 A 
BRANCH  18  21
ATOM     21  O   UNL d   1      55.019  33.293  55.486  0.00  0.00    -0.328 OA
ATOM     22  C   UNL d   1      55.534  33.951  55.515  0.00  0.00     0.181 C 
ENDBRANCH  18  21
ENDBRANCH   3  15
TORSDOF 3
ENDMDL
MODEL 7
REMARK VINA RESULT:      -8.5      1.778      2.980
REMARK  3 active torsions:
REMARK  status: ('A' for Active; 'I' for Inactive)
REMARK    1  A    between atoms: C_4  and  C_1 
REMARK    2  A    between atoms: C_8  and  C_3 
REMARK    3  A    between atoms: O_20  and  C_16 
ROOT
ATOM      1  C   UNL d   1      52.331  32.790  52.873  0.00  0.00     0.107 A 
ATOM      2  N   UNL d   1      52.395  32.045  52.523  0.00  0.00    -0.148 NA
ATOM      3  C   UNL d   1      53.020  32.928  53.294  0.00  0.00     0.039 A 
ATOM      4  N   UNL d   1      53.132  31.721  52.730  0.00  0.00    -0.148 NA
ATOM      5  C   UNL d   1      53.532  32.257  53.208  0.00  0.00     0.104 A 
ATOM      6  C   UNL d   1      54.282  32.151  53.534  0.00  0.00     0.023 C 
ENDROOT
BRANCH   1   7
ATOM      7  C   UNL d   1      51.671  33.274  52.788  0.00  0.00     0.059 A 
ATOM      8  C   UNL d   1      50.973  33.088  53.174  0.00  0.00     0.200 A 
ATOM      9  C   UNL d   1      50.313  33.570  53.090  0.00  0.00     0.084 A 
ATOM     10  O   UNL d   1      50.925  32.392  53.666  0.00  0.00    -0.286 OA
ATOM     11  C   UNL d   1      50.366  34.252  52.605  0.00  0.00     0.199 A 
ATOM     12  C   UNL d   1      51.063  34.437  52.219  0.00  0.00     0.042 A 
ATOM     13  O   UNL d   1      49.692  34.766  52.504  0.00  0.00    -0.286 OA
ATOM     14  C   UNL d   1      51.719  33.936  52.318  0.00  0.00     0.008 A 
ENDBRANCH   1   7
BRANCH   3  15
ATOM     15  C   UNL d   1      53.116  33.661  53.720  0.00  0.00     0.003 A 
ATOM     16  C   UNL d   1      53.340  34.350  53.330  0.00  0.00     0.002 A 
ATOM     17  C   UNL d   1      53.431  35.064  53.766  0.00  0.00     0.024 A 
ATOM     18  C   UNL d   1      53.294  35.058  54.573  0.00  0.00     0.094 A 
ATOM     19  C   UNL d   1      53.067  34.367  54.983  0.00  0.00     0.024 A 
ATOM     20  C   UNL d   1      52.976  33.653  54.547  0.00  0.00     0.002 A 
BRANCH  18  21
ATOM     21  O   UNL d   1      53.385  35.773  55.010  0.00  0.00    -0.328 OA
ATOM     22  C   UNL d   1      52.817  36.379  54.910  0.00  0.00     0.181 C 
ENDBRANCH  18  21
ENDBRANCH   3  15
TORSDOF 3
ENDMDL
