MODEL 1
REMARK VINA RESULT:      56.8      0.000      0.000
REMARK  4 active torsions:
REMARK  status: ('A' for Active; 'I' for Inactive)
REMARK    1  A    between atoms: N_2  and  C_1 
REMARK    2  A    between atoms: C_3  and  C_1 
REMARK       I    between atoms: C_6  and  N_2 
REMARK    3  A    between atoms: S_9  and  C_6 
REMARK    4  A    between atoms: C_14  and  S_9 
ROOT
ATOM      1  C   UNL d   1      60.207  48.629  50.730  0.00  0.00     0.385 A 
ATOM      2  O   UNL d   1      60.978  48.613  50.472  0.00  0.00    -0.283 OA
ATOM      3  O   UNL d   1      59.972  47.840  50.875  0.00  0.00    -0.283 OA
ATOM      4  C   UNL d   1      60.614  47.353  50.700  0.00  0.00     0.121 A 
ATOM      5  C   UNL d   1      61.244  47.837  50.448  0.00  0.00     0.121 A 
ATOM      6  C   UNL d   1      61.956  47.502  50.236  0.00  0.00     0.026 A 
ATOM      7  C   UNL d   1      60.708  46.545  50.736  0.00  0.00     0.026 A 
ATOM      8  C   UNL d   1      61.436  46.208  50.520  0.00  0.00     0.002 A 
ATOM      9  C   UNL d   1      62.047  46.678  50.275  0.00  0.00     0.002 A 
ENDROOT
BRANCH   1  10
ATOM     10  N   UNL d   1      59.660  49.250  50.862  0.00  0.00    -0.171 NA
ATOM     11  C   UNL d   1      58.854  49.084  50.923  0.00  0.00     0.310 C 
ATOM     12  O   UNL d   1      58.584  48.312  50.855  0.00  0.00    -0.258 OA
BRANCH  11  13
ATOM     13  S   UNL d   1      58.317  49.700  51.053  0.00  0.00    -0.026 SA
BRANCH  13  14
ATOM     14  C   UNL d   1      57.572  49.682  50.699  0.00  0.00     0.034 A 
ATOM     15  C   UNL d   1      57.503  49.703  49.877  0.00  0.00     0.007 A 
ATOM     16  C   UNL d   1      56.759  49.685  49.525  0.00  0.00     0.001 A 
ATOM     17  C   UNL d   1      56.081  49.646  49.995  0.00  0.00     0.000 A 
ATOM     18  C   UNL d   1      56.144  49.625  50.817  0.00  0.00     0.001 A 
ATOM     19  C   UNL d   1      56.893  49.643  51.168  0.00  0.00     0.007 A 
ENDBRANCH  13  14
ENDBRANCH  11  13
ENDBRANCH   1  10
BRANCH   1  20
ATOM     20  C   UNL d   1      60.782  49.164  50.492  0.00  0.00     0.470 C 
ATOM     21  F   UNL d   1      61.368  49.708  50.267  0.00  0.00    -0.164 F 
ATOM     22  F   UNL d   1      60.980  49.291  51.296  0.00  0.00    -0.164 F 
ATOM     23  F   UNL d   1      60.584  49.036  49.705  0.00  0.00    -0.164 F 
ENDBRANCH   1  20
TORSDOF 4
ENDMDL
MODEL 2
REMARK VINA RESULT:      58.9      1.595      2.024
REMARK  4 active torsions:
REMARK  status: ('A' for Active; 'I' for Inactive)
REMARK    1  A    between atoms: N_2  and  C_1 
REMARK    2  A    between atoms: C_3  and  C_1 
REMARK       I    between atoms: C_6  and  N_2 
REMARK    3  A    between atoms: S_9  and  C_6 
REMARK    4  A    between atoms: C_14  and  S_9 
ROOT
ATOM      1  C   UNL d   1      59.482  49.592  51.171  0.00  0.00     0.385 A 
ATOM      2  O   UNL d   1      60.201  49.433  50.826  0.00  0.00    -0.283 OA
ATOM      3  O   UNL d   1      59.610  49.694  51.991  0.00  0.00    -0.283 OA
ATOM      4  C   UNL d   1      60.417  49.593  52.130  0.00  0.00     0.121 A 
ATOM      5  C   UNL d   1      60.787  49.430  51.401  0.00  0.00     0.121 A 
ATOM      6  C   UNL d   1      61.591  49.305  51.371  0.00  0.00     0.026 A 
ATOM      7  C   UNL d   1      60.859  49.628  52.814  0.00  0.00     0.026 A 
ATOM      8  C   UNL d   1      61.678  49.499  52.778  0.00  0.00     0.002 A 
ATOM      9  C   UNL d   1      62.037  49.341  52.070  0.00  0.00     0.002 A 
ENDROOT
BRANCH   1  10
ATOM     10  N   UNL d   1      58.705  49.664  50.867  0.00  0.00    -0.171 NA
ATOM     11  C   UNL d   1      58.057  49.630  51.377  0.00  0.00     0.310 C 
ATOM     12  O   UNL d   1      58.170  49.526  52.184  0.00  0.00    -0.258 OA
BRANCH  11  13
ATOM     13  S   UNL d   1      57.290  49.701  51.073  0.00  0.00    -0.026 SA
BRANCH  13  14
ATOM     14  C   UNL d   1      57.098  49.356  50.349  0.00  0.00     0.034 A 
ATOM     15  C   UNL d   1      56.594  48.703  50.323  0.00  0.00     0.007 A 
ATOM     16  C   UNL d   1      56.403  48.359  49.599  0.00  0.00     0.001 A 
ATOM     17  C   UNL d   1      56.715  48.668  48.900  0.00  0.00     0.000 A 
ATOM     18  C   UNL d   1      57.219  49.320  48.921  0.00  0.00     0.001 A 
ATOM     19  C   UNL d   1      57.410  49.664  49.649  0.00  0.00     0.007 A 
ENDBRANCH  13  14
ENDBRANCH  11  13
ENDBRANCH   1  10
BRANCH   1  20
ATOM     20  C   UNL d   1      59.778  49.437  50.422  0.00  0.00     0.470 C 
ATOM     21  F   UNL d   1      60.063  49.285  49.657  0.00  0.00    -0.164 F 
ATOM     22  F   UNL d   1      59.057  49.707  50.093  0.00  0.00    -0.164 F 
ATOM     23  F   UNL d   1      60.484  49.173  50.749  0.00  0.00    -0.164 F 
ENDBRANCH   1  20
TORSDOF 4
ENDMDL
