MODEL 1
REMARK VINA RESULT:     144.6      0.000      0.000
REMARK  5 active torsions:
REMARK  status: ('A' for Active; 'I' for Inactive)
REMARK    1  A    between atoms: S_3  and  C_17 
REMARK    2  A    between atoms: N_11  and  S_3 
REMARK    3  A    between atoms: C_13  and  C_10 
REMARK    4  A    between atoms: C_12  and  N_11 
REMARK       I    between atoms: N_19  and  C_13 
REMARK    5  A    between atoms: C_31  and  N_19 
ROOT
ATOM      1  C   UNL d   1      60.546  48.113  50.667  0.00  0.00     0.105 A 
ATOM      2  C   UNL d   1      61.236  48.010  51.029  0.00  0.00     0.015 A 
ATOM      3  C   UNL d   1      60.109  47.473  50.436  0.00  0.00     0.015 A 
ATOM      4  C   UNL d   1      61.079  46.661  50.943  0.00  0.00     0.085 A 
ATOM      5  C   UNL d   1      60.390  46.761  50.582  0.00  0.00     0.020 A 
ATOM      6  C   UNL d   1      61.516  47.261  51.174  0.00  0.00     0.020 A 
ENDROOT
BRANCH   4   7
ATOM      7  N   UNL d   1      61.364  45.961  51.091  0.00  0.00    -0.208 NA
ATOM      8  C   UNL d   1      61.123  45.311  50.633  0.00  0.00     0.285 C 
ATOM      9  O   UNL d   1      60.572  45.416  50.012  0.00  0.00    -0.265 OA
BRANCH   8  10
ATOM     10  C   UNL d   1      61.427  44.547  50.787  0.00  0.00     0.089 A 
ATOM     11  C   UNL d   1      61.365  44.129  51.496  0.00  0.00     0.018 A 
ATOM     12  C   UNL d   1      61.750  43.390  51.395  0.00  0.00     0.081 A 
ATOM     13  C   UNL d   1      62.049  43.362  50.614  0.00  0.00     0.117 A 
ATOM     14  C   UNL d   1      61.864  42.750  51.911  0.00  0.00     0.268 A 
ATOM     15  N   UNL d   1      62.459  42.691  50.360  0.00  0.00    -0.221 NA
ATOM     16  S   UNL d   1      61.850  44.076  50.239  0.00  0.00    -0.063 SA
ATOM     17  C   UNL d   1      62.577  42.043  50.872  0.00  0.00     0.151 A 
ATOM     18  N   UNL d   1      62.278  42.078  51.645  0.00  0.00    -0.258 N 
ATOM     19  C   UNL d   1      62.987  41.375  50.614  0.00  0.00     0.038 A 
ATOM     20  C   UNL d   1      62.391  41.431  52.169  0.00  0.00     0.084 A 
ATOM     21  C   UNL d   1      62.807  40.763  51.895  0.00  0.00     0.019 A 
ATOM     22  C   UNL d   1      63.103  40.735  51.121  0.00  0.00     0.005 A 
ATOM     23  O   UNL d   1      61.565  42.778  52.692  0.00  0.00    -0.267 OA
ENDBRANCH   8  10
ENDBRANCH   4   7
BRANCH   1  24
ATOM     24  S   UNL d   1      60.298  48.814  50.539  0.00  0.00     0.287 S 
ATOM     25  O   UNL d   1      60.311  49.702  49.933  0.00  0.00    -0.198 OA
ATOM     26  O   UNL d   1      60.930  48.846  49.663  0.00  0.00    -0.198 OA
BRANCH  24  27
ATOM     27  N   UNL d   1      59.633  49.252  51.150  0.00  0.00    -0.139 NA
BRANCH  27  28
ATOM     28  C   UNL d   1      58.907  49.361  50.904  0.00  0.00     0.178 A 
ATOM     29  N   UNL d   1      58.318  49.350  51.478  0.00  0.00    -0.207 NA
ATOM     30  C   UNL d   1      57.558  49.466  51.207  0.00  0.00     0.164 A 
ATOM     31  C   UNL d   1      57.007  49.458  51.727  0.00  0.00     0.042 C 
ATOM     32  N   UNL d   1      57.380  49.589  50.394  0.00  0.00    -0.227 NA
ATOM     33  C   UNL d   1      57.976  49.597  49.837  0.00  0.00     0.086 A 
ATOM     34  C   UNL d   1      58.738  49.483  50.095  0.00  0.00     0.059 A 
ATOM     35  C   UNL d   1      57.822  49.707  49.109  0.00  0.00     0.021 C 
ENDBRANCH  27  28
ENDBRANCH  24  27
ENDBRANCH   1  24
TORSDOF 5
ENDMDL
