MODEL 1
REMARK VINA RESULT:      62.1      0.000      0.000
REMARK  4 active torsions:
REMARK  status: ('A' for Active; 'I' for Inactive)
REMARK    1  A    between atoms: N_7  and  C_1 
REMARK    2  A    between atoms: C_8  and  C_4 
REMARK    3  A    between atoms: C_10  and  N_7 
REMARK    4  A    between atoms: C_12  and  C_8 
ROOT
ATOM      1  C   UNL d   1     -50.832  25.751  33.346  0.00  0.00     0.184 A 
ATOM      2  N   UNL d   1     -51.611  26.039  33.356  0.00  0.00    -0.129 NA
ATOM      3  N   UNL d   1     -52.246  25.511  33.360  0.00  0.00    -0.147 NA
ATOM      4  C   UNL d   1     -52.114  24.705  33.355  0.00  0.00     0.103 A 
ATOM      5  C   UNL d   1     -50.708  24.938  33.341  0.00  0.00     0.039 A 
ATOM      6  C   UNL d   1     -51.343  24.410  33.345  0.00  0.00     0.022 A 
ATOM      7  C   UNL d   1     -49.921  24.656  33.332  0.00  0.00     0.003 A 
ATOM      8  C   UNL d   1     -51.200  23.592  33.339  0.00  0.00     0.002 A 
ATOM      9  C   UNL d   1     -50.433  23.315  33.330  0.00  0.00     0.000 A 
ATOM     10  C   UNL d   1     -49.797  23.844  33.326  0.00  0.00     0.000 A 
ENDROOT
BRANCH   1  11
ATOM     11  N   UNL d   1     -50.204  26.273  33.343  0.00  0.00    -0.225 NA
BRANCH  11  12
ATOM     12  C   UNL d   1     -50.016  26.698  34.015  0.00  0.00     0.083 A 
ATOM     13  C   UNL d   1     -49.589  27.398  33.958  0.00  0.00     0.020 A 
ATOM     14  C   UNL d   1     -49.403  27.818  34.630  0.00  0.00     0.013 A 
ATOM     15  C   UNL d   1     -49.635  27.558  35.372  0.00  0.00     0.058 A 
ATOM     16  C   UNL d   1     -50.065  26.854  35.429  0.00  0.00     0.013 A 
ATOM     17 CL   UNL d   1     -49.457  27.966  36.045  0.00  0.00    -0.082 Cl
ATOM     18  C   UNL d   1     -50.258  26.420  34.753  0.00  0.00     0.020 A 
ENDBRANCH  11  12
ENDBRANCH   1  11
BRANCH   4  19
ATOM     19  C   UNL d   1     -52.749  24.176  33.358  0.00  0.00     0.021 C 
BRANCH  19  20
ATOM     20  C   UNL d   1     -53.111  23.970  34.077  0.00  0.00     0.005 A 
ATOM     21  C   UNL d   1     -53.683  23.389  34.090  0.00  0.00     0.021 A 
ATOM     22  C   UNL d   1     -54.038  23.188  34.803  0.00  0.00     0.099 A 
ATOM     23  N   UNL d   1     -53.818  23.572  35.496  0.00  0.00    -0.242 NA
ATOM     24  C   UNL d   1     -53.242  24.157  35.480  0.00  0.00     0.099 A 
ATOM     25  C   UNL d   1     -52.887  24.354  34.756  0.00  0.00     0.021 A 
ENDBRANCH  19  20
ENDBRANCH   4  19
TORSDOF 4
ENDMDL
