MODEL 1
REMARK VINA RESULT:      -8.4      0.000      0.000
REMARK  4 active torsions:
REMARK  status: ('A' for Active; 'I' for Inactive)
REMARK    1  A    between atoms: N_9  and  C_1 
REMARK    2  A    between atoms: C_5  and  O_12 
REMARK    3  A    between atoms: C_13  and  N_9 
REMARK    4  A    between atoms: O_12  and  C_17 
ROOT
ATOM      1  C   UNL d   1     -48.558  11.841  23.281  0.00  0.00     0.083 A 
ATOM      2  C   UNL d   1     -49.967  12.254  22.524  0.00  0.00     0.102 A 
ATOM      3  C   UNL d   1     -49.142  12.266  23.698  0.00  0.00     0.021 A 
ATOM      4  C   UNL d   1     -48.676  11.625  22.495  0.00  0.00     0.021 A 
ATOM      5  C   UNL d   1     -49.844  12.470  23.318  0.00  0.00     0.026 A 
ATOM      6  C   UNL d   1     -49.384  11.834  22.118  0.00  0.00     0.026 A 
ENDROOT
BRANCH   1   7
ATOM      7  N   UNL d   1     -47.851  11.637  23.668  0.00  0.00    -0.227 NA
BRANCH   7   8
ATOM      8  C   UNL d   1     -47.160  12.062  23.513  0.00  0.00     0.169 A 
ATOM      9  C   UNL d   1     -46.467  11.702  23.525  0.00  0.00     0.094 A 
ATOM     10  C   UNL d   1     -45.812  12.114  23.376  0.00  0.00     0.190 A 
ATOM     11  C   UNL d   1     -45.719  10.574  23.697  0.00  0.00     0.128 A 
ATOM     12  N   UNL d   1     -45.118  11.745  23.390  0.00  0.00    -0.128 NA
ATOM     13  N   UNL d   1     -45.848  12.869  23.218  0.00  0.00    -0.203 NA
ATOM     14  N   UNL d   1     -45.064  10.986  23.547  0.00  0.00    -0.145 NA
ATOM     15  C   UNL d   1     -46.543  13.238  23.203  0.00  0.00     0.202 A 
ATOM     16  N   UNL d   1     -47.202  12.833  23.352  0.00  0.00    -0.205 NA
ENDBRANCH   7   8
ENDBRANCH   1   7
BRANCH   2  17
ATOM     17  O   UNL d   1     -50.669  12.458  22.144  0.00  0.00    -0.253 OA
BRANCH  17  18
ATOM     18  C   UNL d   1     -50.726  13.186  21.757  0.00  0.00     0.530 C 
ATOM     19  F   UNL d   1     -50.525  13.253  20.956  0.00  0.00    -0.144 F 
ATOM     20  F   UNL d   1     -50.984  13.849  22.174  0.00  0.00    -0.144 F 
ATOM     21  F   UNL d   1     -50.814  14.291  21.178  0.00  0.00    -0.144 F 
ENDBRANCH  17  18
ENDBRANCH   2  17
TORSDOF 4
ENDMDL
MODEL 2
REMARK VINA RESULT:      -8.2      3.143      4.652
REMARK  4 active torsions:
REMARK  status: ('A' for Active; 'I' for Inactive)
REMARK    1  A    between atoms: N_9  and  C_1 
REMARK    2  A    between atoms: C_5  and  O_12 
REMARK    3  A    between atoms: C_13  and  N_9 
REMARK    4  A    between atoms: O_12  and  C_17 
ROOT
ATOM      1  C   UNL d   1     -48.020  13.428  23.155  0.00  0.00     0.083 A 
ATOM      2  C   UNL d   1     -46.368  13.390  23.102  0.00  0.00     0.102 A 
ATOM      3  C   UNL d   1     -47.616  12.721  23.336  0.00  0.00     0.021 A 
ATOM      4  C   UNL d   1     -47.603  14.109  22.949  0.00  0.00     0.021 A 
ATOM      5  C   UNL d   1     -46.793  12.705  23.309  0.00  0.00     0.026 A 
ATOM      6  C   UNL d   1     -46.775  14.086  22.923  0.00  0.00     0.026 A 
ENDROOT
BRANCH   1   7
ATOM      7  N   UNL d   1     -48.850  13.440  23.183  0.00  0.00    -0.227 NA
BRANCH   7   8
ATOM      8  C   UNL d   1     -49.286  13.349  22.487  0.00  0.00     0.169 A 
ATOM      9  C   UNL d   1     -49.875  13.837  22.327  0.00  0.00     0.094 A 
ATOM     10  C   UNL d   1     -50.287  13.743  21.661  0.00  0.00     0.190 A 
ATOM     11  C   UNL d   1     -50.653  14.907  22.658  0.00  0.00     0.128 A 
ATOM     12  N   UNL d   1     -50.878  14.238  21.506  0.00  0.00    -0.128 NA
ATOM     13  N   UNL d   1     -50.114  13.175  21.167  0.00  0.00    -0.203 NA
ATOM     14  N   UNL d   1     -51.064  14.814  21.992  0.00  0.00    -0.145 NA
ATOM     15  C   UNL d   1     -49.523  12.681  21.322  0.00  0.00     0.202 A 
ATOM     16  N   UNL d   1     -49.107  12.768  21.986  0.00  0.00    -0.205 NA
ENDBRANCH   7   8
ENDBRANCH   1   7
BRANCH   2  17
ATOM     17  O   UNL d   1     -45.545  13.374  23.075  0.00  0.00    -0.253 OA
BRANCH  17  18
ATOM     18  C   UNL d   1     -45.164  13.203  22.362  0.00  0.00     0.530 C 
ATOM     19  F   UNL d   1     -44.991  12.420  22.156  0.00  0.00    -0.144 F 
ATOM     20  F   UNL d   1     -44.957  13.819  21.855  0.00  0.00    -0.144 F 
ATOM     21  F   UNL d   1     -44.588  12.952  21.281  0.00  0.00    -0.144 F 
ENDBRANCH  17  18
ENDBRANCH   2  17
TORSDOF 4
ENDMDL
MODEL 3
REMARK VINA RESULT:      -5.9      9.142     10.095
REMARK  4 active torsions:
REMARK  status: ('A' for Active; 'I' for Inactive)
REMARK    1  A    between atoms: N_9  and  C_1 
REMARK    2  A    between atoms: C_5  and  O_12 
REMARK    3  A    between atoms: C_13  and  N_9 
REMARK    4  A    between atoms: O_12  and  C_17 
ROOT
ATOM      1  C   UNL d   1     -40.046  15.484  19.910  0.00  0.00     0.083 A 
ATOM      2  C   UNL d   1     -39.719  14.967  21.445  0.00  0.00     0.102 A 
ATOM      3  C   UNL d   1     -39.308  15.658  20.256  0.00  0.00     0.021 A 
ATOM      4  C   UNL d   1     -40.615  15.057  20.325  0.00  0.00     0.021 A 
ATOM      5  C   UNL d   1     -39.148  15.399  21.022  0.00  0.00     0.026 A 
ATOM      6  C   UNL d   1     -40.448  14.799  21.095  0.00  0.00     0.026 A 
ENDROOT
BRANCH   1   7
ATOM      7  N   UNL d   1     -40.204  15.747  19.138  0.00  0.00    -0.227 NA
BRANCH   7   8
ATOM      8  C   UNL d   1     -40.121  15.227  18.502  0.00  0.00     0.169 A 
ATOM      9  C   UNL d   1     -40.585  15.295  17.876  0.00  0.00     0.094 A 
ATOM     10  C   UNL d   1     -40.500  14.795  17.273  0.00  0.00     0.190 A 
ATOM     11  C   UNL d   1     -41.599  15.922  17.214  0.00  0.00     0.128 A 
ATOM     12  N   UNL d   1     -40.970  14.869  16.647  0.00  0.00    -0.128 NA
ATOM     13  N   UNL d   1     -39.964  14.239  17.294  0.00  0.00    -0.203 NA
ATOM     14  N   UNL d   1     -41.514  15.422  16.611  0.00  0.00    -0.145 NA
ATOM     15  C   UNL d   1     -39.494  14.165  17.920  0.00  0.00     0.202 A 
ATOM     16  N   UNL d   1     -39.573  14.661  18.527  0.00  0.00    -0.205 NA
ENDBRANCH   7   8
ENDBRANCH   1   7
BRANCH   2  17
ATOM     17  O   UNL d   1     -39.558  14.708  22.211  0.00  0.00    -0.253 OA
BRANCH  17  18
ATOM     18  C   UNL d   1     -39.139  14.006  22.323  0.00  0.00     0.530 C 
ATOM     19  F   UNL d   1     -39.532  13.277  22.318  0.00  0.00    -0.144 F 
ATOM     20  F   UNL d   1     -38.324  14.033  22.441  0.00  0.00    -0.144 F 
ATOM     21  F   UNL d   1     -38.498  12.945  22.494  0.00  0.00    -0.144 F 
ENDBRANCH  17  18
ENDBRANCH   2  17
TORSDOF 4
ENDMDL
