MODEL 1
REMARK VINA RESULT:      -5.1      0.000      0.000
REMARK  2 active torsions:
REMARK  status: ('A' for Active; 'I' for Inactive)
REMARK    1  A    between atoms: C_9  and  C_4 
REMARK    2  A    between atoms: C_13  and  C_6 
ROOT
ATOM      1  N   UNL d   1      58.201  -0.551  29.951  0.00  0.00    -0.185 N 
ATOM      2  C   UNL d   1      58.375  -0.277  29.190  0.00  0.00     0.219 A 
ATOM      3  N   UNL d   1      58.512  -1.302  30.026  0.00  0.00    -0.153 NA
ATOM      4  C   UNL d   1      58.878  -1.503  29.321  0.00  0.00     0.156 A 
ATOM      5  S   UNL d   1      58.795  -0.871  28.802  0.00  0.00    -0.024 SA
ATOM      6  C   UNL d   1      57.780   0.041  30.342  0.00  0.00     0.187 A 
ATOM      7  N   UNL d   1      57.693   0.681  29.824  0.00  0.00    -0.127 NA
ATOM      8  N   UNL d   1      58.062   0.480  29.113  0.00  0.00    -0.120 NA
ENDROOT
BRANCH   6   9
ATOM      9  C   UNL d   1      57.494   0.007  31.111  0.00  0.00     0.038 A 
ATOM     10  C   UNL d   1      56.947  -0.570  31.327  0.00  0.00     0.004 A 
ATOM     11  C   UNL d   1      56.662  -0.603  32.097  0.00  0.00     0.011 A 
ATOM     12  C   UNL d   1      56.926  -0.053  32.653  0.00  0.00     0.058 A 
ATOM     13  C   UNL d   1      57.476   0.528  32.436  0.00  0.00     0.011 A 
ATOM     14 CL   UNL d   1      56.641  -0.082  33.430  0.00  0.00    -0.082 Cl
ATOM     15  C   UNL d   1      57.753   0.550  31.666  0.00  0.00     0.004 A 
ENDBRANCH   6   9
BRANCH   4  16
ATOM     16  C   UNL d   1      59.266  -2.214  29.153  0.00  0.00     0.126 A 
ATOM     17  O   UNL d   1      60.082  -2.332  29.182  0.00  0.00    -0.298 OA
ATOM     18  C   UNL d   1      60.228  -3.116  28.976  0.00  0.00     0.134 A 
ATOM     19 BR   UNL d   1      60.963  -3.479  28.931  0.00  0.00    -0.022 Br
ATOM     20  C   UNL d   1      59.502  -3.486  28.819  0.00  0.00     0.034 A 
ATOM     21  C   UNL d   1      58.907  -2.925  28.929  0.00  0.00     0.029 A 
ENDBRANCH   4  16
TORSDOF 2
ENDMDL
MODEL 2
REMARK VINA RESULT:      -2.6      2.039      2.905
REMARK  2 active torsions:
REMARK  status: ('A' for Active; 'I' for Inactive)
REMARK    1  A    between atoms: C_9  and  C_4 
REMARK    2  A    between atoms: C_13  and  C_6 
ROOT
ATOM      1  N   UNL d   1      57.498   0.271  32.240  0.00  0.00    -0.185 N 
ATOM      2  C   UNL d   1      58.293   0.492  32.295  0.00  0.00     0.219 A 
ATOM      3  N   UNL d   1      57.342   0.083  31.461  0.00  0.00    -0.153 NA
ATOM      4  C   UNL d   1      58.030   0.184  31.026  0.00  0.00     0.156 A 
ATOM      5  S   UNL d   1      58.620   0.437  31.540  0.00  0.00    -0.024 SA
ATOM      6  C   UNL d   1      57.168   0.325  32.993  0.00  0.00     0.187 A 
ATOM      7  N   UNL d   1      57.758   0.580  33.516  0.00  0.00    -0.127 NA
ATOM      8  N   UNL d   1      58.452   0.682  33.079  0.00  0.00    -0.120 NA
ENDROOT
BRANCH   6   9
ATOM      9  C   UNL d   1      56.391   0.157  33.197  0.00  0.00     0.038 A 
ATOM     10  C   UNL d   1      56.033  -0.539  32.937  0.00  0.00     0.004 A 
ATOM     11  C   UNL d   1      55.255  -0.707  33.141  0.00  0.00     0.011 A 
ATOM     12  C   UNL d   1      54.833  -0.174  33.609  0.00  0.00     0.058 A 
ATOM     13  C   UNL d   1      55.193   0.526  33.871  0.00  0.00     0.011 A 
ATOM     14 CL   UNL d   1      54.049  -0.338  33.818  0.00  0.00    -0.082 Cl
ATOM     15  C   UNL d   1      55.968   0.682  33.661  0.00  0.00     0.004 A 
ENDBRANCH   6   9
BRANCH   4  16
ATOM     16  C   UNL d   1      58.123   0.056  30.215  0.00  0.00     0.126 A 
ATOM     17  O   UNL d   1      58.545  -0.567  29.874  0.00  0.00    -0.298 OA
ATOM     18  C   UNL d   1      58.495  -0.483  29.056  0.00  0.00     0.134 A 
ATOM     19 BR   UNL d   1      58.833  -0.978  28.494  0.00  0.00    -0.022 Br
ATOM     20  C   UNL d   1      58.042   0.192  28.888  0.00  0.00     0.034 A 
ATOM     21  C   UNL d   1      57.812   0.524  29.607  0.00  0.00     0.029 A 
ENDBRANCH   4  16
TORSDOF 2
ENDMDL
