MODEL 1
REMARK VINA RESULT:       6.6      0.000      0.000
REMARK  4 active torsions:
REMARK  status: ('A' for Active; 'I' for Inactive)
REMARK    1  A    between atoms: C_7  and  C_4 
REMARK    2  A    between atoms: C_11  and  C_7 
REMARK    3  A    between atoms: C_9  and  O_16 
REMARK    4  A    between atoms: O_16  and  C_11 
ROOT
ATOM      1  C   UNL d   1      45.877 -16.794  44.394  0.00  0.00     0.124 C 
ENDROOT
BRANCH   1   2
ATOM      2  C   UNL d   1      46.085 -17.572  44.604  0.00  0.00     0.046 C 
BRANCH   2   3
ATOM      3  C   UNL d   1      46.282 -18.117  44.017  0.00  0.00     0.092 A 
ATOM      4  N   UNL d   1      46.292 -17.966  43.209  0.00  0.00    -0.219 NA
ATOM      5  C   UNL d   1      46.519 -18.662  42.829  0.00  0.00     0.215 A 
ATOM      6  S   UNL d   1      46.647 -19.235  43.400  0.00  0.00    -0.045 SA
ATOM      7  N   UNL d   1      46.603 -18.765  42.015  0.00  0.00    -0.120 N 
ATOM      8  C   UNL d   1      46.502 -18.903  44.139  0.00  0.00     0.058 A 
ENDBRANCH   2   3
ENDBRANCH   1   2
BRANCH   1   9
ATOM      9  O   UNL d   1      45.532 -16.305  44.954  0.00  0.00    -0.305 OA
BRANCH   9  10
ATOM     10  C   UNL d   1      45.524 -15.486  44.833  0.00  0.00     0.100 A 
ATOM     11  C   UNL d   1      44.814 -15.078  44.855  0.00  0.00     0.027 A 
ATOM     12  C   UNL d   1      44.806 -14.260  44.734  0.00  0.00     0.032 A 
ATOM     13  C   UNL d   1      45.509 -13.854  44.591  0.00  0.00     0.140 A 
ATOM     14  C   UNL d   1      46.225 -14.262  44.569  0.00  0.00     0.032 A 
ATOM     15  F   UNL d   1      45.495 -13.033  44.470  0.00  0.00    -0.204 F 
ATOM     16  C   UNL d   1      46.235 -15.075  44.689  0.00  0.00     0.027 A 
ENDBRANCH   9  10
ENDBRANCH   1   9
TORSDOF 4
ENDMDL
MODEL 2
REMARK VINA RESULT:       6.6      2.741      4.374
REMARK  4 active torsions:
REMARK  status: ('A' for Active; 'I' for Inactive)
REMARK    1  A    between atoms: C_7  and  C_4 
REMARK    2  A    between atoms: C_11  and  C_7 
REMARK    3  A    between atoms: C_9  and  O_16 
REMARK    4  A    between atoms: O_16  and  C_11 
ROOT
ATOM      1  C   UNL d   1      45.924 -16.902  44.284  0.00  0.00     0.124 C 
ENDROOT
BRANCH   1   2
ATOM      2  C   UNL d   1      45.748 -16.442  44.955  0.00  0.00     0.046 C 
BRANCH   2   3
ATOM      3  C   UNL d   1      45.553 -15.645  44.868  0.00  0.00     0.092 A 
ATOM      4  N   UNL d   1      46.081 -15.044  44.678  0.00  0.00    -0.219 NA
ATOM      5  C   UNL d   1      45.652 -14.339  44.648  0.00  0.00     0.215 A 
ATOM      6  S   UNL d   1      44.870 -14.509  44.818  0.00  0.00    -0.045 SA
ATOM      7  N   UNL d   1      45.959 -13.593  44.476  0.00  0.00    -0.120 N 
ATOM      8  C   UNL d   1      44.802 -15.317  44.955  0.00  0.00     0.058 A 
ENDBRANCH   2   3
ENDBRANCH   1   2
BRANCH   1   9
ATOM      9  O   UNL d   1      46.437 -17.538  44.356  0.00  0.00    -0.305 OA
BRANCH   9  10
ATOM     10  C   UNL d   1      46.383 -18.169  43.822  0.00  0.00     0.100 A 
ATOM     11  C   UNL d   1      46.377 -18.939  44.102  0.00  0.00     0.027 A 
ATOM     12  C   UNL d   1      46.323 -19.569  43.570  0.00  0.00     0.032 A 
ATOM     13  C   UNL d   1      46.275 -19.426  42.759  0.00  0.00     0.140 A 
ATOM     14  C   UNL d   1      46.281 -18.652  42.475  0.00  0.00     0.032 A 
ATOM     15  F   UNL d   1      46.222 -20.062  42.230  0.00  0.00    -0.204 F 
ATOM     16  C   UNL d   1      46.335 -18.024  43.003  0.00  0.00     0.027 A 
ENDBRANCH   9  10
ENDBRANCH   1   9
TORSDOF 4
ENDMDL
