MODEL 1
REMARK VINA RESULT:     136.0      0.000      0.000
REMARK  4 active torsions:
REMARK  status: ('A' for Active; 'I' for Inactive)
REMARK    1  A    between atoms: C_2  and  S_1 
REMARK    2  A    between atoms: C_15  and  S_1 
REMARK    3  A    between atoms: C_5  and  C_3 
REMARK    4  A    between atoms: C_16  and  C_5 
ROOT
ATOM      1  C   UNL d   1     -56.337-102.544 -39.233  0.00  0.00     0.094 A 
ATOM      2  C   UNL d   1     -55.907-102.618 -38.531  0.00  0.00     0.069 A 
ATOM      3  C   UNL d   1     -55.955-102.621 -39.959  0.00  0.00     0.031 A 
ATOM      4  C   UNL d   1     -55.145-102.771 -39.986  0.00  0.00     0.084 A 
ATOM      5  C   UNL d   1     -56.384-102.547 -40.658  0.00  0.00     0.029 A 
ATOM      6  N   UNL d   1     -54.715-102.845 -39.286  0.00  0.00    -0.244 NA
ATOM      7  C   UNL d   1     -55.097-102.768 -38.558  0.00  0.00     0.103 A 
ATOM      8  C   UNL d   1     -54.763-102.848 -40.712  0.00  0.00     0.046 A 
ATOM      9  C   UNL d   1     -56.002-102.624 -41.383  0.00  0.00     0.123 A 
ATOM     10  C   UNL d   1     -55.192-102.775 -41.410  0.00  0.00     0.124 A 
ATOM     11  O   UNL d   1     -56.432-102.550 -42.082  0.00  0.00    -0.301 OA
ATOM     12  O   UNL d   1     -54.810-102.852 -42.135  0.00  0.00    -0.301 OA
ATOM     13  C   UNL d   1     -56.050-102.627 -42.816  0.00  0.00     0.149 A 
ATOM     14  C   UNL d   1     -55.240-102.778 -42.842  0.00  0.00     0.149 A 
ENDROOT
BRANCH   1  15
ATOM     15  S   UNL d   1     -57.148-102.393 -39.215  0.00  0.00     0.210 S 
ATOM     16  O   UNL d   1     -57.213-102.870 -38.545  0.00  0.00    -0.217 OA
ATOM     17  O   UNL d   1     -57.083-101.916 -39.886  0.00  0.00    -0.217 OA
BRANCH  15  18
ATOM     18  C   UNL d   1     -57.960-102.253 -39.183  0.00  0.00     0.088 A 
ATOM     19  C   UNL d   1     -58.494-102.868 -39.308  0.00  0.00     0.011 A 
ATOM     20  C   UNL d   1     -59.309-102.718 -39.274  0.00  0.00     0.001 A 
ATOM     21  C   UNL d   1     -59.582-101.959 -39.116  0.00  0.00     0.000 A 
ATOM     22  C   UNL d   1     -59.053-101.345 -38.991  0.00  0.00     0.001 A 
ATOM     23  C   UNL d   1     -58.234-101.492 -39.025  0.00  0.00     0.011 A 
ENDBRANCH  15  18
ENDBRANCH   1  15
BRANCH   2  24
ATOM     24  C   UNL d   1     -56.289-102.540 -37.797  0.00  0.00     0.198 C 
ATOM     25  O   UNL d   1     -57.043-102.858 -37.688  0.00  0.00    -0.286 OA
BRANCH  24  26
ATOM     26  C   UNL d   1     -55.912-102.146 -37.178  0.00  0.00     0.039 A 
ATOM     27  C   UNL d   1     -56.190-102.222 -36.399  0.00  0.00     0.003 A 
ATOM     28  C   UNL d   1     -55.814-101.827 -35.779  0.00  0.00     0.000 A 
ATOM     29  C   UNL d   1     -55.156-101.352 -35.926  0.00  0.00     0.000 A 
ATOM     30  C   UNL d   1     -54.876-101.275 -36.713  0.00  0.00     0.000 A 
ATOM     31  C   UNL d   1     -54.777-100.956 -35.316  0.00  0.00     0.000 C 
ATOM     32  C   UNL d   1     -55.249-101.667 -37.334  0.00  0.00     0.003 A 
ENDBRANCH  24  26
ENDBRANCH   2  24
TORSDOF 4
ENDMDL
