MODEL 1
REMARK VINA RESULT:      -7.8      0.000      0.000
REMARK  4 active torsions:
REMARK  status: ('A' for Active; 'I' for Inactive)
REMARK       I    between atoms: N_2  and  C_1 
REMARK    1  A    between atoms: C_5  and  C_1 
REMARK    2  A    between atoms: C_8  and  N_2 
REMARK    3  A    between atoms: O_9  and  C_5 
REMARK    4  A    between atoms: C_11  and  O_9 
ROOT
ATOM      1  C   UNL d   1     -49.235  14.757  22.956  0.00  0.00     0.290 C 
ATOM      2  N   UNL d   1     -49.993  14.539  22.716  0.00  0.00    -0.270 N 
ATOM      3  O   UNL d   1     -49.102  15.511  23.272  0.00  0.00    -0.264 OA
ATOM      4  C   UNL d   1     -50.624  15.083  22.795  0.00  0.00     0.102 C 
ENDROOT
BRANCH   1   5
ATOM      5  C   UNL d   1     -48.613  14.227  22.881  0.00  0.00     0.184 C 
BRANCH   5   6
ATOM      6  O   UNL d   1     -47.873  14.406  23.210  0.00  0.00    -0.300 OA
BRANCH   6   7
ATOM      7  C   UNL d   1     -47.211  13.925  23.052  0.00  0.00     0.100 A 
ATOM      8  C   UNL d   1     -47.137  13.181  23.406  0.00  0.00     0.025 A 
ATOM      9  C   UNL d   1     -46.483  12.712  23.247  0.00  0.00     0.013 A 
ATOM     10  C   UNL d   1     -46.410  11.976  23.596  0.00  0.00     0.001 C 
ATOM     11  C   UNL d   1     -45.900  12.984  22.733  0.00  0.00     0.058 A 
ATOM     12  C   UNL d   1     -45.973  13.726  22.380  0.00  0.00     0.013 A 
ATOM     13 CL   UNL d   1     -45.246  12.514  22.574  0.00  0.00    -0.082 Cl
ATOM     14  C   UNL d   1     -46.631  14.199  22.540  0.00  0.00     0.026 A 
ENDBRANCH   6   7
ENDBRANCH   5   6
ENDBRANCH   1   5
BRANCH   2  15
ATOM     15  C   UNL d   1     -50.124  13.796  22.405  0.00  0.00     0.067 A 
ATOM     16  C   UNL d   1     -50.371  13.183  22.913  0.00  0.00     0.018 A 
ATOM     17  C   UNL d   1     -50.502  12.437  22.600  0.00  0.00     0.002 A 
ATOM     18  C   UNL d   1     -50.390  12.292  21.787  0.00  0.00     0.000 A 
ATOM     19  C   UNL d   1     -50.144  12.895  21.278  0.00  0.00     0.002 A 
ATOM     20  C   UNL d   1     -50.010  13.658  21.598  0.00  0.00     0.018 A 
ENDBRANCH   2  15
TORSDOF 4
ENDMDL
MODEL 2
REMARK VINA RESULT:      -7.7      2.051      4.199
REMARK  4 active torsions:
REMARK  status: ('A' for Active; 'I' for Inactive)
REMARK       I    between atoms: N_2  and  C_1 
REMARK    1  A    between atoms: C_5  and  C_1 
REMARK    2  A    between atoms: C_8  and  N_2 
REMARK    3  A    between atoms: O_9  and  C_5 
REMARK    4  A    between atoms: C_11  and  O_9 
ROOT
ATOM      1  C   UNL d   1     -47.683  11.672  23.417  0.00  0.00     0.290 C 
ATOM      2  N   UNL d   1     -46.871  11.813  23.413  0.00  0.00    -0.270 N 
ATOM      3  O   UNL d   1     -47.975  10.949  23.698  0.00  0.00    -0.264 OA
ATOM      4  C   UNL d   1     -46.347  11.224  23.693  0.00  0.00     0.102 C 
ENDROOT
BRANCH   1   5
ATOM      5  C   UNL d   1     -48.201  12.246  23.144  0.00  0.00     0.184 C 
BRANCH   5   6
ATOM      6  O   UNL d   1     -49.019  12.108  23.156  0.00  0.00    -0.300 OA
BRANCH   6   7
ATOM      7  C   UNL d   1     -49.536  12.584  22.708  0.00  0.00     0.100 A 
ATOM      8  C   UNL d   1     -49.887  13.254  23.042  0.00  0.00     0.025 A 
ATOM      9  C   UNL d   1     -50.396  13.719  22.597  0.00  0.00     0.013 A 
ATOM     10  C   UNL d   1     -50.743  14.382  22.928  0.00  0.00     0.001 C 
ATOM     11  C   UNL d   1     -50.556  13.516  21.815  0.00  0.00     0.058 A 
ATOM     12  C   UNL d   1     -50.206  12.848  21.482  0.00  0.00     0.013 A 
ATOM     13 CL   UNL d   1     -51.064  13.981  21.370  0.00  0.00    -0.082 Cl
ATOM     14  C   UNL d   1     -49.694  12.380  21.929  0.00  0.00     0.026 A 
ENDBRANCH   6   7
ENDBRANCH   5   6
ENDBRANCH   1   5
BRANCH   2  15
ATOM     15  C   UNL d   1     -46.584  12.524  23.137  0.00  0.00     0.067 A 
ATOM     16  C   UNL d   1     -46.547  13.175  23.657  0.00  0.00     0.018 A 
ATOM     17  C   UNL d   1     -46.258  13.890  23.380  0.00  0.00     0.002 A 
ATOM     18  C   UNL d   1     -46.005  13.967  22.589  0.00  0.00     0.000 A 
ATOM     19  C   UNL d   1     -46.038  13.327  22.068  0.00  0.00     0.002 A 
ATOM     20  C   UNL d   1     -46.333  12.596  22.352  0.00  0.00     0.018 A 
ENDBRANCH   2  15
TORSDOF 4
ENDMDL
MODEL 3
REMARK VINA RESULT:      -7.1      1.261      2.029
REMARK  4 active torsions:
REMARK  status: ('A' for Active; 'I' for Inactive)
REMARK       I    between atoms: N_2  and  C_1 
REMARK    1  A    between atoms: C_5  and  C_1 
REMARK    2  A    between atoms: C_8  and  N_2 
REMARK    3  A    between atoms: O_9  and  C_5 
REMARK    4  A    between atoms: C_11  and  O_9 
ROOT
ATOM      1  C   UNL d   1     -49.356  12.078  23.311  0.00  0.00     0.290 C 
ATOM      2  N   UNL d   1     -50.121  12.302  23.097  0.00  0.00    -0.270 N 
ATOM      3  O   UNL d   1     -49.230  11.356  23.698  0.00  0.00    -0.264 OA
ATOM      4  C   UNL d   1     -50.764  11.797  23.274  0.00  0.00     0.102 C 
ENDROOT
BRANCH   1   5
ATOM      5  C   UNL d   1     -48.722  12.569  23.140  0.00  0.00     0.184 C 
BRANCH   5   6
ATOM      6  O   UNL d   1     -47.989  12.443  23.507  0.00  0.00    -0.300 OA
BRANCH   6   7
ATOM      7  C   UNL d   1     -47.288  12.745  23.169  0.00  0.00     0.100 A 
ATOM      8  C   UNL d   1     -47.135  13.558  23.174  0.00  0.00     0.025 A 
ATOM      9  C   UNL d   1     -46.445  13.850  22.841  0.00  0.00     0.013 A 
ATOM     10  C   UNL d   1     -46.293  14.654  22.846  0.00  0.00     0.001 C 
ATOM     11  C   UNL d   1     -45.904  13.330  22.501  0.00  0.00     0.058 A 
ATOM     12  C   UNL d   1     -46.056  12.520  22.496  0.00  0.00     0.013 A 
ATOM     13 CL   UNL d   1     -45.213  13.622  22.168  0.00  0.00    -0.082 Cl
ATOM     14  C   UNL d   1     -46.751  12.225  22.831  0.00  0.00     0.026 A 
ENDBRANCH   6   7
ENDBRANCH   5   6
ENDBRANCH   1   5
BRANCH   2  15
ATOM     15  C   UNL d   1     -50.245  13.012  22.717  0.00  0.00     0.067 A 
ATOM     16  C   UNL d   1     -50.237  13.032  21.883  0.00  0.00     0.018 A 
ATOM     17  C   UNL d   1     -50.361  13.745  21.501  0.00  0.00     0.002 A 
ATOM     18  C   UNL d   1     -50.494  14.443  21.938  0.00  0.00     0.000 A 
ATOM     19  C   UNL d   1     -50.503  14.432  22.764  0.00  0.00     0.002 A 
ATOM     20  C   UNL d   1     -50.376  13.702  23.155  0.00  0.00     0.018 A 
ENDBRANCH   2  15
TORSDOF 4
ENDMDL
MODEL 4
REMARK VINA RESULT:      -5.9      1.732      3.803
REMARK  4 active torsions:
REMARK  status: ('A' for Active; 'I' for Inactive)
REMARK       I    between atoms: N_2  and  C_1 
REMARK    1  A    between atoms: C_5  and  C_1 
REMARK    2  A    between atoms: C_8  and  N_2 
REMARK    3  A    between atoms: O_9  and  C_5 
REMARK    4  A    between atoms: C_11  and  O_9 
ROOT
ATOM      1  C   UNL d   1     -47.163  14.641  22.645  0.00  0.00     0.290 C 
ATOM      2  N   UNL d   1     -46.417  14.344  22.832  0.00  0.00    -0.270 N 
ATOM      3  O   UNL d   1     -47.274  15.459  22.561  0.00  0.00    -0.264 OA
ATOM      4  C   UNL d   1     -45.776  14.873  22.936  0.00  0.00     0.102 C 
ENDROOT
BRANCH   1   5
ATOM      5  C   UNL d   1     -47.795  14.128  22.542  0.00  0.00     0.184 C 
BRANCH   5   6
ATOM      6  O   UNL d   1     -48.557  14.429  22.412  0.00  0.00    -0.300 OA
BRANCH   6   7
ATOM      7  C   UNL d   1     -49.192  13.916  22.242  0.00  0.00     0.100 A 
ATOM      8  C   UNL d   1     -49.720  13.690  22.837  0.00  0.00     0.025 A 
ATOM      9  C   UNL d   1     -50.344  13.184  22.665  0.00  0.00     0.013 A 
ATOM     10  C   UNL d   1     -50.866  12.961  23.254  0.00  0.00     0.001 C 
ATOM     11  C   UNL d   1     -50.441  12.903  21.897  0.00  0.00     0.058 A 
ATOM     12  C   UNL d   1     -49.915  13.128  21.305  0.00  0.00     0.013 A 
ATOM     13 CL   UNL d   1     -51.064  12.397  21.726  0.00  0.00    -0.082 Cl
ATOM     14  C   UNL d   1     -49.287  13.636  21.477  0.00  0.00     0.026 A 
ENDBRANCH   6   7
ENDBRANCH   5   6
ENDBRANCH   1   5
BRANCH   2  15
ATOM     15  C   UNL d   1     -46.308  13.541  22.915  0.00  0.00     0.067 A 
ATOM     16  C   UNL d   1     -45.967  13.112  22.286  0.00  0.00     0.018 A 
ATOM     17  C   UNL d   1     -45.858  12.304  22.369  0.00  0.00     0.002 A 
ATOM     18  C   UNL d   1     -46.084  11.916  23.071  0.00  0.00     0.000 A 
ATOM     19  C   UNL d   1     -46.423  12.334  23.698  0.00  0.00     0.002 A 
ATOM     20  C   UNL d   1     -46.535  13.160  23.613  0.00  0.00     0.018 A 
ENDBRANCH   2  15
TORSDOF 4
ENDMDL
MODEL 5
REMARK VINA RESULT:      -5.7      8.648      9.882
REMARK  4 active torsions:
REMARK  status: ('A' for Active; 'I' for Inactive)
REMARK       I    between atoms: N_2  and  C_1 
REMARK    1  A    between atoms: C_5  and  C_1 
REMARK    2  A    between atoms: C_8  and  N_2 
REMARK    3  A    between atoms: O_9  and  C_5 
REMARK    4  A    between atoms: C_11  and  O_9 
ROOT
ATOM      1  C   UNL d   1     -40.664  15.448  18.016  0.00  0.00     0.290 C 
ATOM      2  N   UNL d   1     -40.369  15.170  17.298  0.00  0.00    -0.270 N 
ATOM      3  O   UNL d   1     -41.346  15.920  18.027  0.00  0.00    -0.264 OA
ATOM      4  C   UNL d   1     -40.760  15.368  16.586  0.00  0.00     0.102 C 
ENDROOT
BRANCH   1   5
ATOM      5  C   UNL d   1     -40.285  15.257  18.718  0.00  0.00     0.184 C 
BRANCH   5   6
ATOM      6  O   UNL d   1     -40.573  15.549  19.439  0.00  0.00    -0.300 OA
BRANCH   6   7
ATOM      7  C   UNL d   1     -40.231  15.309  20.160  0.00  0.00     0.100 A 
ATOM      8  C   UNL d   1     -39.604  15.735  20.490  0.00  0.00     0.025 A 
ATOM      9  C   UNL d   1     -39.270  15.496  21.201  0.00  0.00     0.013 A 
ATOM     10  C   UNL d   1     -38.650  15.917  21.527  0.00  0.00     0.001 C 
ATOM     11  C   UNL d   1     -39.563  14.828  21.585  0.00  0.00     0.058 A 
ATOM     12  C   UNL d   1     -40.188  14.404  21.256  0.00  0.00     0.013 A 
ATOM     13 CL   UNL d   1     -39.230  14.589  22.295  0.00  0.00    -0.082 Cl
ATOM     14  C   UNL d   1     -40.524  14.644  20.541  0.00  0.00     0.026 A 
ENDBRANCH   6   7
ENDBRANCH   5   6
ENDBRANCH   1   5
BRANCH   2  15
ATOM     15  C   UNL d   1     -39.699  14.706  17.287  0.00  0.00     0.067 A 
ATOM     16  C   UNL d   1     -38.955  15.070  17.185  0.00  0.00     0.018 A 
ATOM     17  C   UNL d   1     -38.282  14.604  17.174  0.00  0.00     0.002 A 
ATOM     18  C   UNL d   1     -38.338  13.777  17.263  0.00  0.00     0.000 A 
ATOM     19  C   UNL d   1     -39.070  13.409  17.365  0.00  0.00     0.002 A 
ATOM     20  C   UNL d   1     -39.759  13.886  17.376  0.00  0.00     0.018 A 
ENDBRANCH   2  15
TORSDOF 4
ENDMDL
MODEL 6
REMARK VINA RESULT:      -5.5      8.309     10.289
REMARK  4 active torsions:
REMARK  status: ('A' for Active; 'I' for Inactive)
REMARK       I    between atoms: N_2  and  C_1 
REMARK    1  A    between atoms: C_5  and  C_1 
REMARK    2  A    between atoms: C_8  and  N_2 
REMARK    3  A    between atoms: O_9  and  C_5 
REMARK    4  A    between atoms: C_11  and  O_9 
ROOT
ATOM      1  C   UNL d   1     -40.559  14.372  19.644  0.00  0.00     0.290 C 
ATOM      2  N   UNL d   1     -40.361  14.679  20.384  0.00  0.00    -0.270 N 
ATOM      3  O   UNL d   1     -41.339  14.136  19.490  0.00  0.00    -0.264 OA
ATOM      4  C   UNL d   1     -40.951  14.748  20.974  0.00  0.00     0.102 C 
ENDROOT
BRANCH   1   5
ATOM      5  C   UNL d   1     -39.986  14.302  19.062  0.00  0.00     0.184 C 
BRANCH   5   6
ATOM      6  O   UNL d   1     -40.174  13.953  18.333  0.00  0.00    -0.300 OA
BRANCH   6   7
ATOM      7  C   UNL d   1     -39.609  13.921  17.721  0.00  0.00     0.100 A 
ATOM      8  C   UNL d   1     -39.068  13.296  17.680  0.00  0.00     0.025 A 
ATOM      9  C   UNL d   1     -38.515  13.268  17.075  0.00  0.00     0.013 A 
ATOM     10  C   UNL d   1     -37.980  12.650  17.035  0.00  0.00     0.001 C 
ATOM     11  C   UNL d   1     -38.499  13.865  16.508  0.00  0.00     0.058 A 
ATOM     12  C   UNL d   1     -39.038  14.487  16.548  0.00  0.00     0.013 A 
ATOM     13 CL   UNL d   1     -37.946  13.837  15.903  0.00  0.00    -0.082 Cl
ATOM     14  C   UNL d   1     -39.596  14.516  17.156  0.00  0.00     0.026 A 
ENDBRANCH   6   7
ENDBRANCH   5   6
ENDBRANCH   1   5
BRANCH   2  15
ATOM     15  C   UNL d   1     -39.595  14.911  20.535  0.00  0.00     0.067 A 
ATOM     16  C   UNL d   1     -39.063  14.362  20.867  0.00  0.00     0.018 A 
ATOM     17  C   UNL d   1     -38.293  14.596  21.019  0.00  0.00     0.002 A 
ATOM     18  C   UNL d   1     -38.043  15.372  20.845  0.00  0.00     0.000 A 
ATOM     19  C   UNL d   1     -38.564  15.922  20.516  0.00  0.00     0.002 A 
ATOM     20  C   UNL d   1     -39.352  15.683  20.360  0.00  0.00     0.018 A 
ENDBRANCH   2  15
TORSDOF 4
ENDMDL
MODEL 7
REMARK VINA RESULT:      -5.4      9.168     10.384
REMARK  4 active torsions:
REMARK  status: ('A' for Active; 'I' for Inactive)
REMARK       I    between atoms: N_2  and  C_1 
REMARK    1  A    between atoms: C_5  and  C_1 
REMARK    2  A    between atoms: C_8  and  N_2 
REMARK    3  A    between atoms: O_9  and  C_5 
REMARK    4  A    between atoms: C_11  and  O_9 
ROOT
ATOM      1  C   UNL d   1     -38.512  13.705  19.855  0.00  0.00     0.290 C 
ATOM      2  N   UNL d   1     -38.447  13.895  20.655  0.00  0.00    -0.270 N 
ATOM      3  O   UNL d   1     -38.075  13.073  19.544  0.00  0.00    -0.264 OA
ATOM      4  C   UNL d   1     -37.940  13.446  21.147  0.00  0.00     0.102 C 
ENDROOT
BRANCH   1   5
ATOM      5  C   UNL d   1     -39.008  14.141  19.368  0.00  0.00     0.184 C 
BRANCH   5   6
ATOM      6  O   UNL d   1     -39.127  13.908  18.581  0.00  0.00    -0.300 OA
BRANCH   6   7
ATOM      7  C   UNL d   1     -39.604  14.364  18.072  0.00  0.00     0.100 A 
ATOM      8  C   UNL d   1     -39.265  14.920  17.562  0.00  0.00     0.025 A 
ATOM      9  C   UNL d   1     -39.739  15.366  17.063  0.00  0.00     0.013 A 
ATOM     10  C   UNL d   1     -39.403  15.916  16.559  0.00  0.00     0.001 C 
ATOM     11  C   UNL d   1     -40.555  15.259  17.072  0.00  0.00     0.058 A 
ATOM     12  C   UNL d   1     -40.894  14.705  17.580  0.00  0.00     0.013 A 
ATOM     13 CL   UNL d   1     -41.029  15.705  16.572  0.00  0.00    -0.082 Cl
ATOM     14  C   UNL d   1     -40.418  14.256  18.082  0.00  0.00     0.026 A 
ENDBRANCH   6   7
ENDBRANCH   5   6
ENDBRANCH   1   5
BRANCH   2  15
ATOM     15  C   UNL d   1     -38.877  14.516  20.961  0.00  0.00     0.067 A 
ATOM     16  C   UNL d   1     -39.630  14.366  21.287  0.00  0.00     0.018 A 
ATOM     17  C   UNL d   1     -40.062  14.990  21.595  0.00  0.00     0.002 A 
ATOM     18  C   UNL d   1     -39.754  15.765  21.583  0.00  0.00     0.000 A 
ATOM     19  C   UNL d   1     -39.009  15.921  21.261  0.00  0.00     0.002 A 
ATOM     20  C   UNL d   1     -38.568  15.283  20.947  0.00  0.00     0.018 A 
ENDBRANCH   2  15
TORSDOF 4
ENDMDL
MODEL 8
REMARK VINA RESULT:      -5.4      8.412     10.143
REMARK  4 active torsions:
REMARK  status: ('A' for Active; 'I' for Inactive)
REMARK       I    between atoms: N_2  and  C_1 
REMARK    1  A    between atoms: C_5  and  C_1 
REMARK    2  A    between atoms: C_8  and  N_2 
REMARK    3  A    between atoms: O_9  and  C_5 
REMARK    4  A    between atoms: C_11  and  O_9 
ROOT
ATOM      1  C   UNL d   1     -38.726  13.927  20.797  0.00  0.00     0.290 C 
ATOM      2  N   UNL d   1     -39.226  14.178  21.402  0.00  0.00    -0.270 N 
ATOM      3  O   UNL d   1     -38.061  13.465  20.975  0.00  0.00    -0.264 OA
ATOM      4  C   UNL d   1     -39.058  13.963  22.193  0.00  0.00     0.102 C 
ENDROOT
BRANCH   1   5
ATOM      5  C   UNL d   1     -38.885  14.135  20.019  0.00  0.00     0.184 C 
BRANCH   5   6
ATOM      6  O   UNL d   1     -38.361  13.916  19.415  0.00  0.00    -0.300 OA
BRANCH   6   7
ATOM      7  C   UNL d   1     -38.542  14.078  18.617  0.00  0.00     0.100 A 
ATOM      8  C   UNL d   1     -38.338  14.805  18.280  0.00  0.00     0.025 A 
ATOM      9  C   UNL d   1     -38.517  14.960  17.494  0.00  0.00     0.013 A 
ATOM     10  C   UNL d   1     -38.315  15.679  17.160  0.00  0.00     0.001 C 
ATOM     11  C   UNL d   1     -38.904  14.389  17.043  0.00  0.00     0.058 A 
ATOM     12  C   UNL d   1     -39.108  13.665  17.380  0.00  0.00     0.013 A 
ATOM     13 CL   UNL d   1     -39.084  14.545  16.258  0.00  0.00    -0.082 Cl
ATOM     14  C   UNL d   1     -38.927  13.508  18.170  0.00  0.00     0.026 A 
ENDBRANCH   6   7
ENDBRANCH   5   6
ENDBRANCH   1   5
BRANCH   2  15
ATOM     15  C   UNL d   1     -39.879  14.633  21.227  0.00  0.00     0.067 A 
ATOM     16  C   UNL d   1     -39.813  15.464  21.252  0.00  0.00     0.018 A 
ATOM     17  C   UNL d   1     -40.470  15.921  21.076  0.00  0.00     0.002 A 
ATOM     18  C   UNL d   1     -41.194  15.562  20.873  0.00  0.00     0.000 A 
ATOM     19  C   UNL d   1     -41.268  14.739  20.846  0.00  0.00     0.002 A 
ATOM     20  C   UNL d   1     -40.596  14.272  21.027  0.00  0.00     0.018 A 
ENDBRANCH   2  15
TORSDOF 4
ENDMDL
MODEL 9
REMARK VINA RESULT:      -5.4      9.019     10.205
REMARK  4 active torsions:
REMARK  status: ('A' for Active; 'I' for Inactive)
REMARK       I    between atoms: N_2  and  C_1 
REMARK    1  A    between atoms: C_5  and  C_1 
REMARK    2  A    between atoms: C_8  and  N_2 
REMARK    3  A    between atoms: O_9  and  C_5 
REMARK    4  A    between atoms: C_11  and  O_9 
ROOT
ATOM      1  C   UNL d   1     -38.928  13.676  18.269  0.00  0.00     0.290 C 
ATOM      2  N   UNL d   1     -39.105  13.879  17.490  0.00  0.00    -0.270 N 
ATOM      3  O   UNL d   1     -38.456  13.012  18.426  0.00  0.00    -0.264 OA
ATOM      4  C   UNL d   1     -38.805  13.413  16.863  0.00  0.00     0.102 C 
ENDROOT
BRANCH   1   5
ATOM      5  C   UNL d   1     -39.219  14.129  18.888  0.00  0.00     0.184 C 
BRANCH   5   6
ATOM      6  O   UNL d   1     -39.087  13.894  19.672  0.00  0.00    -0.300 OA
BRANCH   6   7
ATOM      7  C   UNL d   1     -39.265  14.408  20.304  0.00  0.00     0.100 A 
ATOM      8  C   UNL d   1     -38.688  14.915  20.610  0.00  0.00     0.025 A 
ATOM      9  C   UNL d   1     -38.867  15.419  21.232  0.00  0.00     0.013 A 
ATOM     10  C   UNL d   1     -38.296  15.920  21.534  0.00  0.00     0.001 C 
ATOM     11  C   UNL d   1     -39.627  15.418  21.551  0.00  0.00     0.058 A 
ATOM     12  C   UNL d   1     -40.203  14.913  21.247  0.00  0.00     0.013 A 
ATOM     13 CL   UNL d   1     -39.807  15.922  22.173  0.00  0.00    -0.082 Cl
ATOM     14  C   UNL d   1     -40.022  14.406  20.621  0.00  0.00     0.026 A 
ENDBRANCH   6   7
ENDBRANCH   5   6
ENDBRANCH   1   5
BRANCH   2  15
ATOM     15  C   UNL d   1     -39.569  14.531  17.336  0.00  0.00     0.067 A 
ATOM     16  C   UNL d   1     -39.201  15.265  17.189  0.00  0.00     0.018 A 
ATOM     17  C   UNL d   1     -39.667  15.920  17.035  0.00  0.00     0.002 A 
ATOM     18  C   UNL d   1     -40.499  15.856  17.023  0.00  0.00     0.000 A 
ATOM     19  C   UNL d   1     -40.871  15.132  17.167  0.00  0.00     0.002 A 
ATOM     20  C   UNL d   1     -40.393  14.462  17.325  0.00  0.00     0.018 A 
ENDBRANCH   2  15
TORSDOF 4
ENDMDL
