MODEL 1
REMARK VINA RESULT:      -6.4      0.000      0.000
REMARK  5 active torsions:
REMARK  status: ('A' for Active; 'I' for Inactive)
REMARK    1  A    between atoms: C_5  and  C_1 
REMARK    2  A    between atoms: N_15  and  C_4 
REMARK       I    between atoms: N_9  and  C_5 
REMARK    3  A    between atoms: C_7  and  N_9 
REMARK    4  A    between atoms: C_18  and  N_15 
REMARK    5  A    between atoms: C_16  and  C_18 
ROOT
ATOM      1  C   UNL d   1     -46.846  12.606  23.019  0.00  0.00     0.128 A 
ATOM      2  N   UNL d   1     -45.236  12.315  23.122  0.00  0.00    -0.200 NA
ATOM      3  C   UNL d   1     -46.308  13.187  22.802  0.00  0.00     0.196 A 
ATOM      4  C   UNL d   1     -45.774  11.734  23.339  0.00  0.00     0.196 A 
ATOM      5  S   UNL d   1     -46.567  11.877  23.288  0.00  0.00    -0.041 SA
ATOM      6  N   UNL d   1     -46.576  13.916  22.532  0.00  0.00    -0.126 N 
ENDROOT
BRANCH   1   7
ATOM      7  C   UNL d   1     -47.657  12.760  22.964  0.00  0.00     0.290 C 
ATOM      8  N   UNL d   1     -48.115  12.358  22.392  0.00  0.00    -0.186 NA
ATOM      9  O   UNL d   1     -48.021  13.306  23.468  0.00  0.00    -0.264 OA
BRANCH   8  10
ATOM     10  C   UNL d   1     -48.930  12.508  22.331  0.00  0.00     0.194 A 
ATOM     11  N   UNL d   1     -49.614  12.206  22.695  0.00  0.00    -0.107 NA
ATOM     12  O   UNL d   1     -50.355  12.493  22.495  0.00  0.00    -0.210 OA
ATOM     13  C   UNL d   1     -50.426  13.102  21.913  0.00  0.00     0.128 A 
ATOM     14  C   UNL d   1     -49.746  13.401  21.552  0.00  0.00     0.068 A 
ATOM     15  C   UNL d   1     -51.064  13.527  21.568  0.00  0.00     0.029 C 
ENDBRANCH   8  10
ENDBRANCH   1   7
BRANCH   4  16
ATOM     16  N   UNL d   1     -45.500  11.008  23.608  0.00  0.00    -0.220 NA
BRANCH  16  17
ATOM     17  C   UNL d   1     -44.717  10.791  23.465  0.00  0.00     0.101 C 
BRANCH  17  18
ATOM     18  C   UNL d   1     -44.456  10.046  23.677  0.00  0.00     0.021 C 
ATOM     19  C   UNL d   1     -43.648   9.884  23.698  0.00  0.00     0.002 C 
ENDBRANCH  17  18
ENDBRANCH  16  17
ENDBRANCH   4  16
TORSDOF 5
ENDMDL
MODEL 2
REMARK VINA RESULT:      -6.2      1.920      2.042
REMARK  5 active torsions:
REMARK  status: ('A' for Active; 'I' for Inactive)
REMARK    1  A    between atoms: C_5  and  C_1 
REMARK    2  A    between atoms: N_15  and  C_4 
REMARK       I    between atoms: N_9  and  C_5 
REMARK    3  A    between atoms: C_7  and  N_9 
REMARK    4  A    between atoms: C_18  and  N_15 
REMARK    5  A    between atoms: C_16  and  C_18 
ROOT
ATOM      1  C   UNL d   1     -46.874  13.295  22.598  0.00  0.00     0.128 A 
ATOM      2  N   UNL d   1     -45.403  14.011  22.521  0.00  0.00    -0.200 NA
ATOM      3  C   UNL d   1     -46.800  14.099  22.745  0.00  0.00     0.196 A 
ATOM      4  C   UNL d   1     -45.477  13.206  22.374  0.00  0.00     0.196 A 
ATOM      5  S   UNL d   1     -46.202  12.853  22.412  0.00  0.00    -0.041 SA
ATOM      6  N   UNL d   1     -47.464  14.546  22.931  0.00  0.00    -0.126 N 
ENDROOT
BRANCH   1   7
ATOM      7  C   UNL d   1     -47.621  12.940  22.639  0.00  0.00     0.290 C 
ATOM      8  N   UNL d   1     -47.857  12.556  23.343  0.00  0.00    -0.186 NA
ATOM      9  O   UNL d   1     -48.137  12.960  21.992  0.00  0.00    -0.264 OA
BRANCH   8  10
ATOM     10  C   UNL d   1     -48.606  12.198  23.391  0.00  0.00     0.194 A 
ATOM     11  N   UNL d   1     -48.893  11.422  23.317  0.00  0.00    -0.107 NA
ATOM     12  O   UNL d   1     -49.693  11.263  23.400  0.00  0.00    -0.210 OA
ATOM     13  C   UNL d   1     -50.231  11.895  23.562  0.00  0.00     0.128 A 
ATOM     14  C   UNL d   1     -49.944  12.665  23.635  0.00  0.00     0.068 A 
ATOM     15  C   UNL d   1     -51.061  11.956  23.681  0.00  0.00     0.029 C 
ENDBRANCH   8  10
ENDBRANCH   1   7
BRANCH   4  16
ATOM     16  N   UNL d   1     -44.810  12.765  22.188  0.00  0.00    -0.220 NA
BRANCH  16  17
ATOM     17  C   UNL d   1     -44.219  13.099  21.720  0.00  0.00     0.101 C 
BRANCH  17  18
ATOM     18  C   UNL d   1     -43.469  12.774  21.719  0.00  0.00     0.021 C 
ATOM     19  C   UNL d   1     -42.986  12.856  21.055  0.00  0.00     0.002 C 
ENDBRANCH  17  18
ENDBRANCH  16  17
ENDBRANCH   4  16
TORSDOF 5
ENDMDL
MODEL 3
REMARK VINA RESULT:      -5.9      2.046      4.662
REMARK  5 active torsions:
REMARK  status: ('A' for Active; 'I' for Inactive)
REMARK    1  A    between atoms: C_5  and  C_1 
REMARK    2  A    between atoms: N_15  and  C_4 
REMARK       I    between atoms: N_9  and  C_5 
REMARK    3  A    between atoms: C_7  and  N_9 
REMARK    4  A    between atoms: C_18  and  N_15 
REMARK    5  A    between atoms: C_16  and  C_18 
ROOT
ATOM      1  C   UNL d   1     -47.143  13.582  22.906  0.00  0.00     0.128 A 
ATOM      2  N   UNL d   1     -48.726  13.996  22.990  0.00  0.00    -0.200 NA
ATOM      3  C   UNL d   1     -47.373  14.358  22.768  0.00  0.00     0.196 A 
ATOM      4  C   UNL d   1     -48.497  13.220  23.128  0.00  0.00     0.196 A 
ATOM      5  S   UNL d   1     -47.717  13.015  23.087  0.00  0.00    -0.041 SA
ATOM      6  N   UNL d   1     -46.809  14.927  22.588  0.00  0.00    -0.126 N 
ENDROOT
BRANCH   1   7
ATOM      7  C   UNL d   1     -46.342  13.379  22.862  0.00  0.00     0.290 C 
ATOM      8  N   UNL d   1     -46.071  12.903  22.231  0.00  0.00    -0.186 NA
ATOM      9  O   UNL d   1     -45.805  13.642  23.434  0.00  0.00    -0.264 OA
BRANCH   8  10
ATOM     10  C   UNL d   1     -45.268  12.696  22.181  0.00  0.00     0.194 A 
ATOM     11  N   UNL d   1     -44.776  12.146  22.563  0.00  0.00    -0.107 NA
ATOM     12  O   UNL d   1     -43.981  12.090  22.369  0.00  0.00    -0.210 OA
ATOM     13  C   UNL d   1     -43.659  12.597  21.774  0.00  0.00     0.128 A 
ATOM     14  C   UNL d   1     -44.149  13.142  21.395  0.00  0.00     0.068 A 
ATOM     15  C   UNL d   1     -42.899  12.705  21.430  0.00  0.00     0.029 C 
ENDBRANCH   8  10
ENDBRANCH   1   7
BRANCH   4  16
ATOM     16  N   UNL d   1     -49.065  12.656  23.308  0.00  0.00    -0.220 NA
BRANCH  16  17
ATOM     17  C   UNL d   1     -49.861  12.820  23.167  0.00  0.00     0.101 C 
BRANCH  17  18
ATOM     18  C   UNL d   1     -50.397  12.207  23.103  0.00  0.00     0.021 C 
ATOM     19  C   UNL d   1     -51.064  12.193  23.588  0.00  0.00     0.002 C 
ENDBRANCH  17  18
ENDBRANCH  16  17
ENDBRANCH   4  16
TORSDOF 5
ENDMDL
MODEL 4
REMARK VINA RESULT:      -5.7      1.921      4.923
REMARK  5 active torsions:
REMARK  status: ('A' for Active; 'I' for Inactive)
REMARK    1  A    between atoms: C_5  and  C_1 
REMARK    2  A    between atoms: N_15  and  C_4 
REMARK       I    between atoms: N_9  and  C_5 
REMARK    3  A    between atoms: C_7  and  N_9 
REMARK    4  A    between atoms: C_18  and  N_15 
REMARK    5  A    between atoms: C_16  and  C_18 
ROOT
ATOM      1  C   UNL d   1     -47.605  13.220  22.409  0.00  0.00     0.128 A 
ATOM      2  N   UNL d   1     -49.062  13.921  22.140  0.00  0.00    -0.200 NA
ATOM      3  C   UNL d   1     -48.019  13.057  21.718  0.00  0.00     0.196 A 
ATOM      4  C   UNL d   1     -48.648  14.084  22.830  0.00  0.00     0.196 A 
ATOM      5  S   UNL d   1     -47.930  13.739  22.963  0.00  0.00    -0.041 SA
ATOM      6  N   UNL d   1     -47.703  12.542  21.161  0.00  0.00    -0.126 N 
ENDROOT
BRANCH   1   7
ATOM      7  C   UNL d   1     -46.870  12.862  22.537  0.00  0.00     0.290 C 
ATOM      8  N   UNL d   1     -46.815  12.210  23.058  0.00  0.00    -0.186 NA
ATOM      9  O   UNL d   1     -46.190  13.141  22.158  0.00  0.00    -0.264 OA
BRANCH   8  10
ATOM     10  C   UNL d   1     -46.079  11.846  23.191  0.00  0.00     0.194 A 
ATOM     11  N   UNL d   1     -45.288  12.101  23.197  0.00  0.00    -0.107 NA
ATOM     12  O   UNL d   1     -44.681  11.573  23.356  0.00  0.00    -0.210 OA
ATOM     13  C   UNL d   1     -44.861  10.763  23.516  0.00  0.00     0.128 A 
ATOM     14  C   UNL d   1     -45.647  10.512  23.510  0.00  0.00     0.068 A 
ATOM     15  C   UNL d   1     -44.411  10.076  23.697  0.00  0.00     0.029 C 
ENDBRANCH   8  10
ENDBRANCH   1   7
BRANCH   4  16
ATOM     16  N   UNL d   1     -48.968  14.599  23.383  0.00  0.00    -0.220 NA
BRANCH  16  17
ATOM     17  C   UNL d   1     -49.654  15.019  23.198  0.00  0.00     0.101 C 
BRANCH  17  18
ATOM     18  C   UNL d   1     -49.851  15.686  23.628  0.00  0.00     0.021 C 
ATOM     19  C   UNL d   1     -50.641  15.915  23.692  0.00  0.00     0.002 C 
ENDBRANCH  17  18
ENDBRANCH  16  17
ENDBRANCH   4  16
TORSDOF 5
ENDMDL
MODEL 5
REMARK VINA RESULT:      -5.7      1.785      2.098
REMARK  5 active torsions:
REMARK  status: ('A' for Active; 'I' for Inactive)
REMARK    1  A    between atoms: C_5  and  C_1 
REMARK    2  A    between atoms: N_15  and  C_4 
REMARK       I    between atoms: N_9  and  C_5 
REMARK    3  A    between atoms: C_7  and  N_9 
REMARK    4  A    between atoms: C_18  and  N_15 
REMARK    5  A    between atoms: C_16  and  C_18 
ROOT
ATOM      1  C   UNL d   1     -46.759  13.215  22.914  0.00  0.00     0.128 A 
ATOM      2  N   UNL d   1     -45.389  12.317  22.926  0.00  0.00    -0.200 NA
ATOM      3  C   UNL d   1     -46.743  12.495  23.308  0.00  0.00     0.196 A 
ATOM      4  C   UNL d   1     -45.405  13.036  22.531  0.00  0.00     0.196 A 
ATOM      5  S   UNL d   1     -46.080  13.479  22.525  0.00  0.00    -0.041 SA
ATOM      6  N   UNL d   1     -47.414  12.225  23.698  0.00  0.00    -0.126 N 
ENDROOT
BRANCH   1   7
ATOM      7  C   UNL d   1     -47.455  13.664  22.912  0.00  0.00     0.290 C 
ATOM      8  N   UNL d   1     -47.939  13.671  22.230  0.00  0.00    -0.186 NA
ATOM      9  O   UNL d   1     -47.678  14.105  23.575  0.00  0.00    -0.264 OA
BRANCH   8  10
ATOM     10  C   UNL d   1     -48.639  14.119  22.222  0.00  0.00     0.194 A 
ATOM     11  N   UNL d   1     -48.819  14.930  22.194  0.00  0.00    -0.107 NA
ATOM     12  O   UNL d   1     -49.598  15.185  22.194  0.00  0.00    -0.210 OA
ATOM     13  C   UNL d   1     -50.224  14.618  22.222  0.00  0.00     0.128 A 
ATOM     14  C   UNL d   1     -50.044  13.813  22.249  0.00  0.00     0.068 A 
ATOM     15  C   UNL d   1     -51.064  14.657  22.230  0.00  0.00     0.029 C 
ENDBRANCH   8  10
ENDBRANCH   1   7
BRANCH   4  16
ATOM     16  N   UNL d   1     -44.732  13.301  22.144  0.00  0.00    -0.220 NA
BRANCH  16  17
ATOM     17  C   UNL d   1     -44.166  12.756  21.892  0.00  0.00     0.101 C 
BRANCH  17  18
ATOM     18  C   UNL d   1     -43.682  12.936  21.259  0.00  0.00     0.021 C 
ATOM     19  C   UNL d   1     -42.868  12.812  21.316  0.00  0.00     0.002 C 
ENDBRANCH  17  18
ENDBRANCH  16  17
ENDBRANCH   4  16
TORSDOF 5
ENDMDL
MODEL 6
REMARK VINA RESULT:      -5.7      2.239      4.994
REMARK  5 active torsions:
REMARK  status: ('A' for Active; 'I' for Inactive)
REMARK    1  A    between atoms: C_5  and  C_1 
REMARK    2  A    between atoms: N_15  and  C_4 
REMARK       I    between atoms: N_9  and  C_5 
REMARK    3  A    between atoms: C_7  and  N_9 
REMARK    4  A    between atoms: C_18  and  N_15 
REMARK    5  A    between atoms: C_16  and  C_18 
ROOT
ATOM      1  C   UNL d   1     -47.150  13.065  23.085  0.00  0.00     0.128 A 
ATOM      2  N   UNL d   1     -48.762  13.292  23.264  0.00  0.00    -0.200 NA
ATOM      3  C   UNL d   1     -47.625  12.450  23.348  0.00  0.00     0.196 A 
ATOM      4  C   UNL d   1     -48.287  13.908  23.001  0.00  0.00     0.196 A 
ATOM      5  S   UNL d   1     -47.493  13.797  22.912  0.00  0.00    -0.041 SA
ATOM      6  N   UNL d   1     -47.292  11.719  23.522  0.00  0.00    -0.126 N 
ENDROOT
BRANCH   1   7
ATOM      7  C   UNL d   1     -46.336  12.943  22.996  0.00  0.00     0.290 C 
ATOM      8  N   UNL d   1     -46.032  12.709  22.253  0.00  0.00    -0.186 NA
ATOM      9  O   UNL d   1     -45.818  13.050  23.633  0.00  0.00    -0.264 OA
BRANCH   8  10
ATOM     10  C   UNL d   1     -45.216  12.585  22.158  0.00  0.00     0.194 A 
ATOM     11  N   UNL d   1     -44.663  12.045  22.462  0.00  0.00    -0.107 NA
ATOM     12  O   UNL d   1     -43.874  12.085  22.241  0.00  0.00    -0.210 OA
ATOM     13  C   UNL d   1     -43.621  12.682  21.698  0.00  0.00     0.128 A 
ATOM     14  C   UNL d   1     -44.172  13.218  21.397  0.00  0.00     0.068 A 
ATOM     15  C   UNL d   1     -42.888  12.898  21.348  0.00  0.00     0.029 C 
ENDBRANCH   8  10
ENDBRANCH   1   7
BRANCH   4  16
ATOM     16  N   UNL d   1     -48.625  14.636  22.828  0.00  0.00    -0.220 NA
BRANCH  16  17
ATOM     17  C   UNL d   1     -49.329  14.855  23.199  0.00  0.00     0.101 C 
BRANCH  17  18
ATOM     18  C   UNL d   1     -49.647  15.596  23.062  0.00  0.00     0.021 C 
ATOM     19  C   UNL d   1     -50.177  15.922  23.603  0.00  0.00     0.002 C 
ENDBRANCH  17  18
ENDBRANCH  16  17
ENDBRANCH   4  16
TORSDOF 5
ENDMDL
MODEL 7
REMARK VINA RESULT:      -4.9      1.918      4.872
REMARK  5 active torsions:
REMARK  status: ('A' for Active; 'I' for Inactive)
REMARK    1  A    between atoms: C_5  and  C_1 
REMARK    2  A    between atoms: N_15  and  C_4 
REMARK       I    between atoms: N_9  and  C_5 
REMARK    3  A    between atoms: C_7  and  N_9 
REMARK    4  A    between atoms: C_18  and  N_15 
REMARK    5  A    between atoms: C_16  and  C_18 
ROOT
ATOM      1  C   UNL d   1     -48.629  12.564  22.885  0.00  0.00     0.128 A 
ATOM      2  N   UNL d   1     -50.259  12.722  22.838  0.00  0.00    -0.200 NA
ATOM      3  C   UNL d   1     -49.080  12.040  22.443  0.00  0.00     0.196 A 
ATOM      4  C   UNL d   1     -49.807  13.246  23.281  0.00  0.00     0.196 A 
ATOM      5  S   UNL d   1     -49.004  13.168  23.304  0.00  0.00    -0.041 SA
ATOM      6  N   UNL d   1     -48.715  11.435  22.022  0.00  0.00    -0.126 N 
ENDROOT
BRANCH   1   7
ATOM      7  C   UNL d   1     -47.806  12.478  22.904  0.00  0.00     0.290 C 
ATOM      8  N   UNL d   1     -47.321  13.090  22.605  0.00  0.00    -0.186 NA
ATOM      9  O   UNL d   1     -47.457  11.795  23.214  0.00  0.00    -0.264 OA
BRANCH   8  10
ATOM     10  C   UNL d   1     -46.493  13.009  22.621  0.00  0.00     0.194 A 
ATOM     11  N   UNL d   1     -45.924  12.891  23.215  0.00  0.00    -0.107 NA
ATOM     12  O   UNL d   1     -45.128  12.836  23.026  0.00  0.00    -0.210 OA
ATOM     13  C   UNL d   1     -44.884  12.901  22.219  0.00  0.00     0.128 A 
ATOM     14  C   UNL d   1     -45.450  13.019  21.630  0.00  0.00     0.068 A 
ATOM     15  C   UNL d   1     -44.147  12.875  21.815  0.00  0.00     0.029 C 
ENDBRANCH   8  10
ENDBRANCH   1   7
BRANCH   4  16
ATOM     16  N   UNL d   1     -50.178  13.848  23.698  0.00  0.00    -0.220 NA
BRANCH  16  17
ATOM     17  C   UNL d   1     -50.486  14.496  23.291  0.00  0.00     0.101 C 
BRANCH  17  18
ATOM     18  C   UNL d   1     -50.679  15.178  23.698  0.00  0.00     0.021 C 
ATOM     19  C   UNL d   1     -50.535  15.915  23.356  0.00  0.00     0.002 C 
ENDBRANCH  17  18
ENDBRANCH  16  17
ENDBRANCH   4  16
TORSDOF 5
ENDMDL
MODEL 8
REMARK VINA RESULT:      -4.3      8.645      9.808
REMARK  5 active torsions:
REMARK  status: ('A' for Active; 'I' for Inactive)
REMARK    1  A    between atoms: C_5  and  C_1 
REMARK    2  A    between atoms: N_15  and  C_4 
REMARK       I    between atoms: N_9  and  C_5 
REMARK    3  A    between atoms: C_7  and  N_9 
REMARK    4  A    between atoms: C_18  and  N_15 
REMARK    5  A    between atoms: C_16  and  C_18 
ROOT
ATOM      1  C   UNL d   1     -39.181  14.443  19.064  0.00  0.00     0.128 A 
ATOM      2  N   UNL d   1     -39.614  14.434  17.484  0.00  0.00    -0.200 NA
ATOM      3  C   UNL d   1     -38.894  13.859  18.562  0.00  0.00     0.196 A 
ATOM      4  C   UNL d   1     -39.900  15.017  17.986  0.00  0.00     0.196 A 
ATOM      5  S   UNL d   1     -39.687  15.022  18.764  0.00  0.00    -0.041 SA
ATOM      6  N   UNL d   1     -38.390  13.279  18.853  0.00  0.00    -0.126 N 
ENDROOT
BRANCH   1   7
ATOM      7  C   UNL d   1     -38.958  14.441  19.861  0.00  0.00     0.290 C 
ATOM      8  N   UNL d   1     -39.544  14.369  20.453  0.00  0.00    -0.186 NA
ATOM      9  O   UNL d   1     -38.162  14.509  20.080  0.00  0.00    -0.264 OA
BRANCH   8  10
ATOM     10  C   UNL d   1     -39.326  14.366  21.256  0.00  0.00     0.194 A 
ATOM     11  N   UNL d   1     -39.226  14.948  21.841  0.00  0.00    -0.107 NA
ATOM     12  O   UNL d   1     -38.999  14.741  22.601  0.00  0.00    -0.210 OA
ATOM     13  C   UNL d   1     -38.866  13.928  22.792  0.00  0.00     0.128 A 
ATOM     14  C   UNL d   1     -38.967  13.351  22.210  0.00  0.00     0.068 A 
ATOM     15  C   UNL d   1     -38.637  13.507  23.483  0.00  0.00     0.029 C 
ENDBRANCH   8  10
ENDBRANCH   1   7
BRANCH   4  16
ATOM     16  N   UNL d   1     -40.404  15.594  17.690  0.00  0.00    -0.220 NA
BRANCH  16  17
ATOM     17  C   UNL d   1     -40.996  15.383  17.156  0.00  0.00     0.101 C 
BRANCH  17  18
ATOM     18  C   UNL d   1     -41.579  15.922  16.960  0.00  0.00     0.021 C 
ATOM     19  C   UNL d   1     -41.922  15.901  16.211  0.00  0.00     0.002 C 
ENDBRANCH  17  18
ENDBRANCH  16  17
ENDBRANCH   4  16
TORSDOF 5
ENDMDL
MODEL 9
REMARK VINA RESULT:      -4.0      8.609      9.989
REMARK  5 active torsions:
REMARK  status: ('A' for Active; 'I' for Inactive)
REMARK    1  A    between atoms: C_5  and  C_1 
REMARK    2  A    between atoms: N_15  and  C_4 
REMARK       I    between atoms: N_9  and  C_5 
REMARK    3  A    between atoms: C_7  and  N_9 
REMARK    4  A    between atoms: C_18  and  N_15 
REMARK    5  A    between atoms: C_16  and  C_18 
ROOT
ATOM      1  C   UNL d   1     -39.876  14.777  18.218  0.00  0.00     0.128 A 
ATOM      2  N   UNL d   1     -39.820  15.003  16.596  0.00  0.00    -0.200 NA
ATOM      3  C   UNL d   1     -40.518  15.106  17.826  0.00  0.00     0.196 A 
ATOM      4  C   UNL d   1     -39.178  14.673  16.988  0.00  0.00     0.196 A 
ATOM      5  S   UNL d   1     -39.205  14.562  17.787  0.00  0.00    -0.041 SA
ATOM      6  N   UNL d   1     -41.190  15.323  18.247  0.00  0.00    -0.126 N 
ENDROOT
BRANCH   1   7
ATOM      7  C   UNL d   1     -39.912  14.665  19.037  0.00  0.00     0.290 C 
ATOM      8  N   UNL d   1     -39.273  14.915  19.515  0.00  0.00    -0.186 NA
ATOM      9  O   UNL d   1     -40.571  14.310  19.390  0.00  0.00    -0.264 OA
BRANCH   8  10
ATOM     10  C   UNL d   1     -39.303  14.807  20.339  0.00  0.00     0.194 A 
ATOM     11  N   UNL d   1     -39.528  15.275  20.987  0.00  0.00    -0.107 NA
ATOM     12  O   UNL d   1     -39.485  14.979  21.751  0.00  0.00    -0.210 OA
ATOM     13  C   UNL d   1     -39.208  14.191  21.880  0.00  0.00     0.128 A 
ATOM     14  C   UNL d   1     -38.984  13.727  21.235  0.00  0.00     0.068 A 
ATOM     15  C   UNL d   1     -39.087  13.704  22.555  0.00  0.00     0.029 C 
ENDBRANCH   8  10
ENDBRANCH   1   7
BRANCH   4  16
ATOM     16  N   UNL d   1     -38.510  14.459  16.562  0.00  0.00    -0.220 NA
BRANCH  16  17
ATOM     17  C   UNL d   1     -38.595  14.124  15.813  0.00  0.00     0.101 C 
BRANCH  17  18
ATOM     18  C   UNL d   1     -37.940  13.831  15.421  0.00  0.00     0.021 C 
ATOM     19  C   UNL d   1     -37.987  13.654  14.617  0.00  0.00     0.002 C 
ENDBRANCH  17  18
ENDBRANCH  16  17
ENDBRANCH   4  16
TORSDOF 5
ENDMDL
