MODEL 1
REMARK VINA RESULT:      -3.1      0.000      0.000
REMARK  8 active torsions:
REMARK  status: ('A' for Active; 'I' for Inactive)
REMARK    1  A    between atoms: C_6  and  N_1 
REMARK    2  A    between atoms: C_7  and  C_2 
REMARK    3  A    between atoms: C_3  and  C_9 
REMARK    4  A    between atoms: O_5  and  C_3 
REMARK    5  A    between atoms: C_4  and  O_5 
REMARK    6  A    between atoms: C_8  and  C_7 
REMARK    7  A    between atoms: C_12  and  C_8 
REMARK    8  A    between atoms: C_10  and  C_12 
ROOT
ATOM      1  C   UNL d   1      58.369   0.184  30.953  0.00  0.00     0.064 A 
ATOM      2  C   UNL d   1      58.093   0.305  31.722  0.00  0.00     0.106 A 
ATOM      3  C   UNL d   1      59.173   0.311  30.777  0.00  0.00     0.035 A 
ATOM      4  C   UNL d   1      58.621   0.553  32.317  0.00  0.00     0.027 A 
ATOM      5  C   UNL d   1      59.693   0.556  31.369  0.00  0.00     0.140 A 
ATOM      6  C   UNL d   1      59.417   0.678  32.138  0.00  0.00     0.032 A 
ATOM      7  F   UNL d   1      60.489   0.681  31.190  0.00  0.00    -0.204 F 
ENDROOT
BRANCH   2   8
ATOM      8  O   UNL d   1      57.295   0.182  31.905  0.00  0.00    -0.273 OA
BRANCH   8   9
ATOM      9  C   UNL d   1      57.039   0.251  32.688  0.00  0.00     0.300 C 
ATOM     10  O   UNL d   1      57.496   0.651  33.243  0.00  0.00    -0.259 OA
BRANCH   9  11
ATOM     11  C   UNL d   1      56.318  -0.083  32.909  0.00  0.00     0.065 A 
ATOM     12  C   UNL d   1      55.833   0.309  33.446  0.00  0.00     0.029 A 
ATOM     13  C   UNL d   1      55.115  -0.018  33.671  0.00  0.00     0.127 A 
ATOM     14  C   UNL d   1      54.891  -0.764  33.336  0.00  0.00     0.024 A 
ATOM     15  C   UNL d   1      55.361  -1.139  32.818  0.00  0.00     0.002 A 
ATOM     16  C   UNL d   1      56.086  -0.808  32.591  0.00  0.00     0.005 A 
BRANCH  13  17
ATOM     17  N   UNL d   1      54.613   0.368  34.215  0.00  0.00    -0.114 N 
ATOM     18  O   UNL d   1      53.872   0.626  33.979  0.00  0.00    -0.532 OA
ATOM     19  O   UNL d   1      54.871   0.486  34.990  0.00  0.00    -0.532 OA
ENDBRANCH  13  17
ENDBRANCH   9  11
ENDBRANCH   8   9
ENDBRANCH   2   8
BRANCH   1  20
ATOM     20  C   UNL d   1      57.845  -0.063  30.360  0.00  0.00     0.198 C 
ATOM     21  O   UNL d   1      57.057   0.182  30.377  0.00  0.00    -0.286 OA
BRANCH  20  22
ATOM     22  C   UNL d   1      58.113  -0.553  29.752  0.00  0.00     0.043 C 
BRANCH  22  23
ATOM     23  C   UNL d   1      58.115  -1.372  29.858  0.00  0.00     0.010 C 
BRANCH  23  24
ATOM     24  C   UNL d   1      58.570  -1.848  29.360  0.00  0.00     0.030 A 
ATOM     25  S   UNL d   1      59.168  -1.597  28.847  0.00  0.00    -0.086 SA
ATOM     26  C   UNL d   1      59.476  -2.255  28.457  0.00  0.00     0.035 A 
ATOM     27  C   UNL d   1      59.071  -2.922  28.725  0.00  0.00     0.007 A 
ATOM     28  C   UNL d   1      58.511  -2.673  29.283  0.00  0.00     0.007 A 
ENDBRANCH  23  24
ENDBRANCH  22  23
ENDBRANCH  20  22
ENDBRANCH   1  20
TORSDOF 8
ENDMDL
MODEL 2
REMARK VINA RESULT:      -2.6      2.433      4.935
REMARK  8 active torsions:
REMARK  status: ('A' for Active; 'I' for Inactive)
REMARK    1  A    between atoms: C_6  and  N_1 
REMARK    2  A    between atoms: C_7  and  C_2 
REMARK    3  A    between atoms: C_3  and  C_9 
REMARK    4  A    between atoms: O_5  and  C_3 
REMARK    5  A    between atoms: C_4  and  O_5 
REMARK    6  A    between atoms: C_8  and  C_7 
REMARK    7  A    between atoms: C_12  and  C_8 
REMARK    8  A    between atoms: C_10  and  C_12 
ROOT
ATOM      1  C   UNL d   1      57.388   0.187  32.510  0.00  0.00     0.064 A 
ATOM      2  C   UNL d   1      57.993   0.291  31.957  0.00  0.00     0.106 A 
ATOM      3  C   UNL d   1      57.540   0.318  33.319  0.00  0.00     0.035 A 
ATOM      4  C   UNL d   1      58.750   0.527  32.211  0.00  0.00     0.027 A 
ATOM      5  C   UNL d   1      58.291   0.552  33.566  0.00  0.00     0.140 A 
ATOM      6  C   UNL d   1      58.896   0.656  33.013  0.00  0.00     0.032 A 
ATOM      7  F   UNL d   1      58.437   0.681  34.368  0.00  0.00    -0.204 F 
ENDROOT
BRANCH   2   8
ATOM      8  O   UNL d   1      57.850   0.162  31.152  0.00  0.00    -0.273 OA
BRANCH   8   9
ATOM      9  C   UNL d   1      58.473   0.218  30.611  0.00  0.00     0.300 C 
ATOM     10  O   UNL d   1      59.138   0.669  30.787  0.00  0.00    -0.259 OA
BRANCH   9  11
ATOM     11  C   UNL d   1      58.422  -0.183  29.892  0.00  0.00     0.065 A 
ATOM     12  C   UNL d   1      58.722  -0.946  29.827  0.00  0.00     0.029 A 
ATOM     13  C   UNL d   1      58.674  -1.350  29.115  0.00  0.00     0.127 A 
ATOM     14  C   UNL d   1      58.311  -0.961  28.455  0.00  0.00     0.024 A 
ATOM     15  C   UNL d   1      58.023  -0.224  28.521  0.00  0.00     0.002 A 
ATOM     16  C   UNL d   1      58.071   0.184  29.241  0.00  0.00     0.005 A 
BRANCH  13  17
ATOM     17  N   UNL d   1      58.974  -2.126  29.034  0.00  0.00    -0.114 N 
ATOM     18  O   UNL d   1      58.508  -2.769  29.232  0.00  0.00    -0.532 OA
ATOM     19  O   UNL d   1      59.743  -2.234  28.754  0.00  0.00    -0.532 OA
ENDBRANCH  13  17
ENDBRANCH   9  11
ENDBRANCH   8   9
ENDBRANCH   2   8
BRANCH   1  20
ATOM     20  C   UNL d   1      56.634  -0.048  32.259  0.00  0.00     0.198 C 
ATOM     21  O   UNL d   1      56.554  -0.567  31.621  0.00  0.00    -0.286 OA
BRANCH  20  22
ATOM     22  C   UNL d   1      55.964   0.237  32.648  0.00  0.00     0.043 C 
BRANCH  22  23
ATOM     23  C   UNL d   1      55.356  -0.283  32.851  0.00  0.00     0.010 C 
BRANCH  23  24
ATOM     24  C   UNL d   1      54.761  -0.037  33.368  0.00  0.00     0.030 A 
ATOM     25  S   UNL d   1      54.315   0.657  33.313  0.00  0.00    -0.086 SA
ATOM     26  C   UNL d   1      53.784   0.682  33.944  0.00  0.00     0.035 A 
ATOM     27  C   UNL d   1      53.897   0.001  34.398  0.00  0.00     0.007 A 
ATOM     28  C   UNL d   1      54.500  -0.444  34.043  0.00  0.00     0.007 A 
ENDBRANCH  23  24
ENDBRANCH  22  23
ENDBRANCH  20  22
ENDBRANCH   1  20
TORSDOF 8
ENDMDL
MODEL 3
REMARK VINA RESULT:      -1.8      2.646      5.344
REMARK  8 active torsions:
REMARK  status: ('A' for Active; 'I' for Inactive)
REMARK    1  A    between atoms: C_6  and  N_1 
REMARK    2  A    between atoms: C_7  and  C_2 
REMARK    3  A    between atoms: C_3  and  C_9 
REMARK    4  A    between atoms: O_5  and  C_3 
REMARK    5  A    between atoms: C_4  and  O_5 
REMARK    6  A    between atoms: C_8  and  C_7 
REMARK    7  A    between atoms: C_12  and  C_8 
REMARK    8  A    between atoms: C_10  and  C_12 
ROOT
ATOM      1  C   UNL d   1      55.952  -0.516  32.665  0.00  0.00     0.064 A 
ATOM      2  C   UNL d   1      56.526  -0.614  32.079  0.00  0.00     0.106 A 
ATOM      3  C   UNL d   1      55.662  -1.181  33.075  0.00  0.00     0.035 A 
ATOM      4  C   UNL d   1      56.811  -1.376  31.902  0.00  0.00     0.027 A 
ATOM      5  C   UNL d   1      55.947  -1.934  32.896  0.00  0.00     0.140 A 
ATOM      6  C   UNL d   1      56.521  -2.032  32.310  0.00  0.00     0.032 A 
ATOM      7  F   UNL d   1      55.657  -2.590  33.305  0.00  0.00    -0.204 F 
ENDROOT
BRANCH   2   8
ATOM      8  O   UNL d   1      56.819   0.042  31.667  0.00  0.00    -0.273 OA
BRANCH   8   9
ATOM      9  C   UNL d   1      57.618   0.070  31.457  0.00  0.00     0.300 C 
ATOM     10  O   UNL d   1      58.200   0.109  32.037  0.00  0.00    -0.259 OA
BRANCH   9  11
ATOM     11  C   UNL d   1      57.828   0.060  30.660  0.00  0.00     0.065 A 
ATOM     12  C   UNL d   1      58.268  -0.568  30.361  0.00  0.00     0.029 A 
ATOM     13  C   UNL d   1      58.480  -0.584  29.569  0.00  0.00     0.127 A 
ATOM     14  C   UNL d   1      58.235   0.058  29.073  0.00  0.00     0.024 A 
ATOM     15  C   UNL d   1      57.810   0.662  29.365  0.00  0.00     0.002 A 
ATOM     16  C   UNL d   1      57.596   0.678  30.165  0.00  0.00     0.005 A 
BRANCH  13  17
ATOM     17  N   UNL d   1      58.927  -1.214  29.251  0.00  0.00    -0.114 N 
ATOM     18  O   UNL d   1      58.592  -1.718  28.700  0.00  0.00    -0.532 OA
ATOM     19  O   UNL d   1      59.707  -1.322  29.500  0.00  0.00    -0.532 OA
ENDBRANCH  13  17
ENDBRANCH   9  11
ENDBRANCH   8   9
ENDBRANCH   2   8
BRANCH   1  20
ATOM     20  C   UNL d   1      55.666   0.241  32.843  0.00  0.00     0.198 C 
ATOM     21  O   UNL d   1      55.275   0.681  32.264  0.00  0.00    -0.286 OA
BRANCH  20  22
ATOM     22  C   UNL d   1      55.774   0.555  33.599  0.00  0.00     0.043 C 
BRANCH  22  23
ATOM     23  C   UNL d   1      55.130   0.624  34.110  0.00  0.00     0.010 C 
BRANCH  23  24
ATOM     24  C   UNL d   1      55.253   0.646  34.925  0.00  0.00     0.030 A 
ATOM     25  S   UNL d   1      55.983   0.664  35.314  0.00  0.00    -0.086 SA
ATOM     26  C   UNL d   1      55.849   0.682  36.128  0.00  0.00     0.035 A 
ATOM     27  C   UNL d   1      55.033   0.676  36.252  0.00  0.00     0.007 A 
ATOM     28  C   UNL d   1      54.664   0.653  35.510  0.00  0.00     0.007 A 
ENDBRANCH  23  24
ENDBRANCH  22  23
ENDBRANCH  20  22
ENDBRANCH   1  20
TORSDOF 8
ENDMDL
