MODEL 1
REMARK VINA RESULT:      56.6      0.000      0.000
REMARK  5 active torsions:
REMARK  status: ('A' for Active; 'I' for Inactive)
REMARK    1  A    between atoms: C_15  and  C_3 
REMARK    2  A    between atoms: S_9  and  C_4 
REMARK       I    between atoms: N_6  and  C_8 
REMARK    3  A    between atoms: C_16  and  N_7 
REMARK    4  A    between atoms: C_8  and  C_14 
REMARK    5  A    between atoms: C_14  and  S_9 
ROOT
ATOM      1  N   UNL d   1      13.807  15.293  -5.442  0.00  0.00    -0.269 N 
ATOM      2  N   UNL d   1      13.883  16.914  -5.740  0.00  0.00    -0.301 N 
ATOM      3  C   UNL d   1      13.767  14.478  -5.286  0.00  0.00     0.272 C 
ATOM      4  C   UNL d   1      13.596  15.837  -4.859  0.00  0.00     0.102 A 
ATOM      5  C   UNL d   1      14.057  15.564  -6.176  0.00  0.00     0.102 A 
ATOM      6  C   UNL d   1      14.097  16.378  -6.333  0.00  0.00     0.100 A 
ATOM      7  C   UNL d   1      13.633  16.648  -5.006  0.00  0.00     0.100 A 
ATOM      8  O   UNL d   1      13.976  13.934  -5.865  0.00  0.00    -0.266 OA
ENDROOT
BRANCH   3   9
ATOM      9  C   UNL d   1      13.516  14.216  -4.548  0.00  0.00     0.100 C 
BRANCH   9  10
ATOM     10  S   UNL d   1      13.055  13.533  -4.482  0.00  0.00    -0.036 SA
BRANCH  10  11
ATOM     11  C   UNL d   1      13.230  12.958  -3.904  0.00  0.00     0.236 A 
ATOM     12  O   UNL d   1      13.595  13.078  -3.186  0.00  0.00    -0.263 OA
ATOM     13  C   UNL d   1      13.650  12.348  -2.798  0.00  0.00     0.205 A 
ATOM     14  N   UNL d   1      13.315  11.781  -3.287  0.00  0.00    -0.120 NA
ATOM     15  N   UNL d   1      13.051  12.161  -3.979  0.00  0.00    -0.114 NA
BRANCH  13  16
ATOM     16  C   UNL d   1      13.977  12.186  -2.057  0.00  0.00     0.043 A 
ATOM     17  C   UNL d   1      13.484  12.008  -1.424  0.00  0.00     0.004 A 
ATOM     18  C   UNL d   1      13.810  11.846  -0.683  0.00  0.00     0.000 A 
ATOM     19  C   UNL d   1      14.628  11.864  -0.580  0.00  0.00     0.000 A 
ATOM     20  C   UNL d   1      15.121  12.043  -1.217  0.00  0.00     0.000 A 
ATOM     21  C   UNL d   1      14.794  12.203  -1.954  0.00  0.00     0.004 A 
ENDBRANCH  13  16
ENDBRANCH  10  11
ENDBRANCH   9  10
ENDBRANCH   3   9
BRANCH   2  22
ATOM     22  C   UNL d   1      13.923  17.725  -5.895  0.00  0.00     0.064 A 
ATOM     23  C   UNL d   1      14.606  18.140  -5.710  0.00  0.00     0.018 A 
ATOM     24  C   UNL d   1      14.655  18.958  -5.863  0.00  0.00     0.002 A 
ATOM     25  C   UNL d   1      14.015  19.344  -6.200  0.00  0.00     0.000 A 
ATOM     26  C   UNL d   1      13.324  18.930  -6.389  0.00  0.00     0.002 A 
ATOM     27  C   UNL d   1      13.284  18.115  -6.233  0.00  0.00     0.018 A 
ENDBRANCH   2  22
TORSDOF 5
ENDMDL
MODEL 2
REMARK VINA RESULT:      57.1      2.530      6.794
REMARK  5 active torsions:
REMARK  status: ('A' for Active; 'I' for Inactive)
REMARK    1  A    between atoms: C_15  and  C_3 
REMARK    2  A    between atoms: S_9  and  C_4 
REMARK       I    between atoms: N_6  and  C_8 
REMARK    3  A    between atoms: C_16  and  N_7 
REMARK    4  A    between atoms: C_8  and  C_14 
REMARK    5  A    between atoms: C_14  and  S_9 
ROOT
ATOM      1  N   UNL d   1      14.927  15.642  -1.425  0.00  0.00    -0.269 N 
ATOM      2  N   UNL d   1      14.776  14.095  -0.869  0.00  0.00    -0.301 N 
ATOM      3  C   UNL d   1      15.002  16.419  -1.711  0.00  0.00     0.272 C 
ATOM      4  C   UNL d   1      14.735  15.028  -1.941  0.00  0.00     0.102 A 
ATOM      5  C   UNL d   1      15.044  15.479  -0.629  0.00  0.00     0.102 A 
ATOM      6  C   UNL d   1      14.969  14.704  -0.342  0.00  0.00     0.100 A 
ATOM      7  C   UNL d   1      14.659  14.254  -1.665  0.00  0.00     0.100 A 
ATOM      8  O   UNL d   1      15.193  17.032  -1.200  0.00  0.00    -0.266 OA
ENDROOT
BRANCH   3   9
ATOM      9  C   UNL d   1      14.884  16.571  -2.510  0.00  0.00     0.100 C 
BRANCH   9  10
ATOM     10  S   UNL d   1      15.369  17.109  -2.909  0.00  0.00    -0.036 SA
BRANCH  10  11
ATOM     11  C   UNL d   1      15.198  17.335  -3.692  0.00  0.00     0.236 A 
ATOM     12  O   UNL d   1      14.899  18.050  -3.944  0.00  0.00    -0.263 OA
ATOM     13  C   UNL d   1      14.819  18.023  -4.768  0.00  0.00     0.205 A 
ATOM     14  N   UNL d   1      15.072  17.284  -5.018  0.00  0.00    -0.120 NA
ATOM     15  N   UNL d   1      15.309  16.852  -4.347  0.00  0.00    -0.114 NA
BRANCH  13  16
ATOM     16  C   UNL d   1      14.540  18.612  -5.275  0.00  0.00     0.043 A 
ATOM     17  C   UNL d   1      14.022  18.418  -5.881  0.00  0.00     0.004 A 
ATOM     18  C   UNL d   1      13.743  19.007  -6.388  0.00  0.00     0.000 A 
ATOM     19  C   UNL d   1      13.984  19.788  -6.284  0.00  0.00     0.000 A 
ATOM     20  C   UNL d   1      14.505  19.981  -5.673  0.00  0.00     0.000 A 
ATOM     21  C   UNL d   1      14.781  19.393  -5.170  0.00  0.00     0.004 A 
ENDBRANCH  13  16
ENDBRANCH  10  11
ENDBRANCH   9  10
ENDBRANCH   3   9
BRANCH   2  22
ATOM     22  C   UNL d   1      14.701  13.323  -0.585  0.00  0.00     0.064 A 
ATOM     23  C   UNL d   1      15.365  12.845  -0.533  0.00  0.00     0.018 A 
ATOM     24  C   UNL d   1      15.300  12.064  -0.247  0.00  0.00     0.002 A 
ATOM     25  C   UNL d   1      14.566  11.779  -0.018  0.00  0.00     0.000 A 
ATOM     26  C   UNL d   1      13.893  12.259  -0.068  0.00  0.00     0.002 A 
ATOM     27  C   UNL d   1      13.968  13.034  -0.354  0.00  0.00     0.018 A 
ENDBRANCH   2  22
TORSDOF 5
ENDMDL
