MODEL 1
REMARK VINA RESULT:     123.1      0.000      0.000
REMARK  5 active torsions:
REMARK  status: ('A' for Active; 'I' for Inactive)
REMARK    1  A    between atoms: N_7  and  C_1 
REMARK    2  A    between atoms: C_12  and  C_2 
REMARK       I    between atoms: C_8  and  N_7 
REMARK    3  A    between atoms: C_10  and  C_8 
REMARK    4  A    between atoms: N_9  and  C_16 
REMARK    5  A    between atoms: C_16  and  C_10 
ROOT
ATOM      1  C   UNL d   1      61.448  46.781  49.879  0.00  0.00     0.142 A 
ATOM      2  C   UNL d   1      61.460  45.976  50.067  0.00  0.00     0.024 A 
ATOM      3  C   UNL d   1      61.982  47.092  49.361  0.00  0.00     0.297 A 
ATOM      4  C   UNL d   1      62.029  45.495  49.714  0.00  0.00     0.020 A 
ATOM      5  N   UNL d   1      62.555  46.612  49.004  0.00  0.00    -0.207 NA
ATOM      6  C   UNL d   1      62.574  45.812  49.184  0.00  0.00     0.085 A 
ATOM      7  C   UNL d   1      62.044  44.691  49.899  0.00  0.00     0.008 A 
ATOM      8  O   UNL d   1      61.958  47.903  49.182  0.00  0.00    -0.264 OA
ATOM      9  C   UNL d   1      63.138  45.328  48.836  0.00  0.00     0.020 A 
ATOM     10  C   UNL d   1      62.619  44.205  49.541  0.00  0.00     0.035 A 
ATOM     11  C   UNL d   1      63.152  44.515  49.023  0.00  0.00     0.008 A 
ATOM     12 BR   UNL d   1      62.650  43.397  49.714  0.00  0.00    -0.049 Br
ENDROOT
BRANCH   1  13
ATOM     13  N   UNL d   1      60.886  47.279  50.224  0.00  0.00    -0.203 NA
ATOM     14  C   UNL d   1      60.974  48.098  50.208  0.00  0.00     0.281 C 
ATOM     15  O   UNL d   1      61.352  48.894  50.026  0.00  0.00    -0.265 OA
BRANCH  14  16
ATOM     16  C   UNL d   1      60.414  48.592  50.550  0.00  0.00     0.082 C 
BRANCH  16  17
ATOM     17  C   UNL d   1      60.619  49.318  50.869  0.00  0.00     0.085 C 
BRANCH  17  18
ATOM     18  N   UNL d   1      60.664  49.442  51.679  0.00  0.00    -0.299 N 
ATOM     19  C   UNL d   1      61.381  49.570  52.062  0.00  0.00     0.107 A 
ATOM     20  C   UNL d   1      61.409  49.691  52.868  0.00  0.00     0.142 A 
ATOM     21  O   UNL d   1      60.703  49.687  53.316  0.00  0.00    -0.300 OA
ATOM     22  C   UNL d   1      60.006  49.563  52.946  0.00  0.00     0.142 A 
ATOM     23  C   UNL d   1      59.958  49.437  52.127  0.00  0.00     0.107 A 
ENDBRANCH  17  18
ENDBRANCH  16  17
ENDBRANCH  14  16
ENDBRANCH   1  13
BRANCH   2  24
ATOM     24  C   UNL d   1      60.921  45.662  50.590  0.00  0.00     0.002 A 
ATOM     25  C   UNL d   1      60.965  45.840  51.395  0.00  0.00     0.000 A 
ATOM     26  C   UNL d   1      60.418  45.521  51.927  0.00  0.00     0.000 A 
ATOM     27  C   UNL d   1      59.832  45.028  51.649  0.00  0.00     0.000 A 
ATOM     28  C   UNL d   1      59.768  44.840  50.862  0.00  0.00     0.000 A 
ATOM     29  C   UNL d   1      60.321  45.161  50.325  0.00  0.00     0.000 A 
ENDBRANCH   2  24
TORSDOF 5
ENDMDL
MODEL 2
REMARK VINA RESULT:     125.6      0.828      1.211
REMARK  5 active torsions:
REMARK  status: ('A' for Active; 'I' for Inactive)
REMARK    1  A    between atoms: N_7  and  C_1 
REMARK    2  A    between atoms: C_12  and  C_2 
REMARK       I    between atoms: C_8  and  N_7 
REMARK    3  A    between atoms: C_10  and  C_8 
REMARK    4  A    between atoms: N_9  and  C_16 
REMARK    5  A    between atoms: C_16  and  C_10 
ROOT
ATOM      1  C   UNL d   1      61.747  45.906  49.809  0.00  0.00     0.142 A 
ATOM      2  C   UNL d   1      61.603  45.214  50.238  0.00  0.00     0.024 A 
ATOM      3  C   UNL d   1      62.330  45.933  49.253  0.00  0.00     0.297 A 
ATOM      4  C   UNL d   1      62.068  44.550  50.086  0.00  0.00     0.020 A 
ATOM      5  N   UNL d   1      62.799  45.269  49.098  0.00  0.00    -0.207 NA
ATOM      6  C   UNL d   1      62.663  44.577  49.519  0.00  0.00     0.085 A 
ATOM      7  C   UNL d   1      61.927  43.857  50.512  0.00  0.00     0.008 A 
ATOM      8  O   UNL d   1      62.464  46.636  48.830  0.00  0.00    -0.264 OA
ATOM      9  C   UNL d   1      63.123  43.912  49.372  0.00  0.00     0.020 A 
ATOM     10  C   UNL d   1      62.396  43.186  50.359  0.00  0.00     0.035 A 
ATOM     11  C   UNL d   1      62.979  43.213  49.803  0.00  0.00     0.008 A 
ATOM     12 BR   UNL d   1      62.270  42.483  50.776  0.00  0.00    -0.049 Br
ENDROOT
BRANCH   1  13
ATOM     13  N   UNL d   1      61.292  46.582  49.947  0.00  0.00    -0.203 NA
ATOM     14  C   UNL d   1      61.603  47.336  49.833  0.00  0.00     0.281 C 
ATOM     15  O   UNL d   1      62.209  47.967  49.624  0.00  0.00    -0.265 OA
BRANCH  14  16
ATOM     16  C   UNL d   1      61.150  48.008  49.970  0.00  0.00     0.082 C 
BRANCH  16  17
ATOM     17  C   UNL d   1      61.349  48.550  50.550  0.00  0.00     0.085 C 
BRANCH  17  18
ATOM     18  N   UNL d   1      60.782  48.929  51.006  0.00  0.00    -0.299 N 
ATOM     19  C   UNL d   1      59.985  48.934  50.798  0.00  0.00     0.107 A 
ATOM     20  C   UNL d   1      59.434  49.315  51.262  0.00  0.00     0.142 A 
ATOM     21  O   UNL d   1      59.675  49.708  51.960  0.00  0.00    -0.300 OA
ATOM     22  C   UNL d   1      60.447  49.704  52.164  0.00  0.00     0.142 A 
ATOM     23  C   UNL d   1      61.023  49.321  51.704  0.00  0.00     0.107 A 
ENDBRANCH  17  18
ENDBRANCH  16  17
ENDBRANCH  14  16
ENDBRANCH   1  13
BRANCH   2  24
ATOM     24  C   UNL d   1      61.015  45.187  50.800  0.00  0.00     0.002 A 
ATOM     25  C   UNL d   1      61.178  45.364  51.589  0.00  0.00     0.000 A 
ATOM     26  C   UNL d   1      60.580  45.336  52.159  0.00  0.00     0.000 A 
ATOM     27  C   UNL d   1      59.824  45.132  51.935  0.00  0.00     0.000 A 
ATOM     28  C   UNL d   1      59.639  44.954  51.165  0.00  0.00     0.000 A 
ATOM     29  C   UNL d   1      60.243  44.981  50.590  0.00  0.00     0.000 A 
ENDBRANCH   2  24
TORSDOF 5
ENDMDL
