MODEL 1
REMARK VINA RESULT:      -5.5      0.000      0.000
REMARK  1 active torsions:
REMARK  status: ('A' for Active; 'I' for Inactive)
REMARK    1  A    between atoms: C_6  and  C_1 
ROOT
ATOM      1  C   UNL d   1     -42.048-122.001 -54.607  0.00  0.00     0.168 A 
ATOM      2  N   UNL d   1     -42.184-121.480 -53.957  0.00  0.00    -0.142 NA
ATOM      3  C   UNL d   1     -41.699-122.684 -54.324  0.00  0.00     0.045 A 
ATOM      4  N   UNL d   1     -41.906-121.867 -53.266  0.00  0.00    -0.148 NA
ATOM      5  C   UNL d   1     -41.605-122.611 -53.489  0.00  0.00     0.105 A 
ATOM      6  C   UNL d   1     -41.401-123.418 -54.539  0.00  0.00     0.003 A 
ATOM      7  C   UNL d   1     -41.249-123.307 -53.201  0.00  0.00     0.021 A 
ATOM      8  C   UNL d   1     -41.123-123.817 -53.879  0.00  0.00     0.002 A 
ENDROOT
BRANCH   1   9
ATOM      9  C   UNL d   1     -42.234-121.847 -55.383  0.00  0.00     0.231 C 
ATOM     10  O   UNL d   1     -41.662-121.578 -55.912  0.00  0.00    -0.643 OA
ATOM     11  O   UNL d   1     -42.995-121.945 -55.701  0.00  0.00    -0.643 OA
ENDBRANCH   1   9
TORSDOF 1
ENDMDL
MODEL 2
REMARK VINA RESULT:      -5.3      1.073      1.389
REMARK  1 active torsions:
REMARK  status: ('A' for Active; 'I' for Inactive)
REMARK    1  A    between atoms: C_6  and  C_1 
ROOT
ATOM      1  C   UNL d   1     -41.976-122.541 -54.297  0.00  0.00     0.168 A 
ATOM      2  N   UNL d   1     -41.986-123.353 -54.529  0.00  0.00    -0.142 NA
ATOM      3  C   UNL d   1     -41.653-122.490 -53.548  0.00  0.00     0.045 A 
ATOM      4  N   UNL d   1     -41.658-123.797 -53.897  0.00  0.00    -0.148 NA
ATOM      5  C   UNL d   1     -41.451-123.267 -53.288  0.00  0.00     0.105 A 
ATOM      6  C   UNL d   1     -41.448-121.971 -52.945  0.00  0.00     0.003 A 
ATOM      7  C   UNL d   1     -41.122-123.214 -52.525  0.00  0.00     0.021 A 
ATOM      8  C   UNL d   1     -41.124-122.382 -52.313  0.00  0.00     0.002 A 
ENDROOT
BRANCH   1   9
ATOM      9  C   UNL d   1     -42.243-121.919 -54.745  0.00  0.00     0.231 C 
ATOM     10  O   UNL d   1     -41.769-121.580 -55.329  0.00  0.00    -0.643 OA
ATOM     11  O   UNL d   1     -42.995-121.578 -54.656  0.00  0.00    -0.643 OA
ENDBRANCH   1   9
TORSDOF 1
ENDMDL
MODEL 3
REMARK VINA RESULT:      -5.0      1.864      2.488
REMARK  1 active torsions:
REMARK  status: ('A' for Active; 'I' for Inactive)
REMARK    1  A    between atoms: C_6  and  C_1 
ROOT
ATOM      1  C   UNL d   1     -41.507-122.614 -53.261  0.00  0.00     0.168 A 
ATOM      2  N   UNL d   1     -41.123-123.358 -53.365  0.00  0.00    -0.142 NA
ATOM      3  C   UNL d   1     -41.793-122.365 -53.985  0.00  0.00     0.045 A 
ATOM      4  N   UNL d   1     -41.183-123.557 -54.179  0.00  0.00    -0.148 NA
ATOM      5  C   UNL d   1     -41.596-122.946 -54.565  0.00  0.00     0.105 A 
ATOM      6  C   UNL d   1     -42.200-121.765 -54.370  0.00  0.00     0.003 A 
ATOM      7  C   UNL d   1     -41.887-122.692 -55.303  0.00  0.00     0.021 A 
ATOM      8  C   UNL d   1     -42.272-121.937 -55.170  0.00  0.00     0.002 A 
ENDROOT
BRANCH   1   9
ATOM      9  C   UNL d   1     -41.580-122.214 -52.557  0.00  0.00     0.231 C 
ATOM     10  O   UNL d   1     -42.123-122.455 -51.985  0.00  0.00    -0.643 OA
ATOM     11  O   UNL d   1     -41.127-121.547 -52.359  0.00  0.00    -0.643 OA
ENDBRANCH   1   9
TORSDOF 1
ENDMDL
MODEL 4
REMARK VINA RESULT:      -3.9      3.448      4.027
REMARK  1 active torsions:
REMARK  status: ('A' for Active; 'I' for Inactive)
REMARK    1  A    between atoms: C_6  and  C_1 
ROOT
ATOM      1  C   UNL d   1     -41.964-122.345 -50.921  0.00  0.00     0.168 A 
ATOM      2  N   UNL d   1     -42.752-122.066 -50.805  0.00  0.00    -0.142 NA
ATOM      3  C   UNL d   1     -41.737-122.765 -50.257  0.00  0.00     0.045 A 
ATOM      4  N   UNL d   1     -43.001-122.329 -50.048  0.00  0.00    -0.148 NA
ATOM      5  C   UNL d   1     -42.376-122.762 -49.706  0.00  0.00     0.105 A 
ATOM      6  C   UNL d   1     -41.124-123.192 -49.916  0.00  0.00     0.003 A 
ATOM      7  C   UNL d   1     -42.145-123.190 -49.030  0.00  0.00     0.021 A 
ATOM      8  C   UNL d   1     -41.344-123.461 -49.173  0.00  0.00     0.002 A 
ENDROOT
BRANCH   1   9
ATOM      9  C   UNL d   1     -41.510-122.216 -51.581  0.00  0.00     0.231 C 
ATOM     10  O   UNL d   1     -41.122-121.497 -51.698  0.00  0.00    -0.643 OA
ATOM     11  O   UNL d   1     -41.398-122.781 -52.180  0.00  0.00    -0.643 OA
ENDBRANCH   1   9
TORSDOF 1
ENDMDL
MODEL 5
REMARK VINA RESULT:      -3.3      3.395      4.034
REMARK  1 active torsions:
REMARK  status: ('A' for Active; 'I' for Inactive)
REMARK    1  A    between atoms: C_6  and  C_1 
ROOT
ATOM      1  C   UNL d   1     -42.178-122.623 -50.533  0.00  0.00     0.168 A 
ATOM      2  N   UNL d   1     -42.241-121.830 -50.816  0.00  0.00    -0.142 NA
ATOM      3  C   UNL d   1     -41.779-123.067 -51.091  0.00  0.00     0.045 A 
ATOM      4  N   UNL d   1     -41.866-121.803 -51.566  0.00  0.00    -0.148 NA
ATOM      5  C   UNL d   1     -41.579-122.566 -51.740  0.00  0.00     0.105 A 
ATOM      6  C   UNL d   1     -41.494-123.817 -51.266  0.00  0.00     0.003 A 
ATOM      7  C   UNL d   1     -41.172-123.019 -52.308  0.00  0.00     0.021 A 
ATOM      8  C   UNL d   1     -41.122-123.817 -51.998  0.00  0.00     0.002 A 
ENDROOT
BRANCH   1   9
ATOM      9  C   UNL d   1     -42.467-122.896 -49.825  0.00  0.00     0.231 C 
ATOM     10  O   UNL d   1     -43.259-123.112 -49.743  0.00  0.00    -0.643 OA
ATOM     11  O   UNL d   1     -42.004-122.979 -49.140  0.00  0.00    -0.643 OA
ENDBRANCH   1   9
TORSDOF 1
ENDMDL
MODEL 6
REMARK VINA RESULT:      -2.8     10.196     10.445
REMARK  1 active torsions:
REMARK  status: ('A' for Active; 'I' for Inactive)
REMARK    1  A    between atoms: C_6  and  C_1 
ROOT
ATOM      1  C   UNL d   1     -43.151-115.181 -47.230  0.00  0.00     0.168 A 
ATOM      2  N   UNL d   1     -42.926-115.841 -46.756  0.00  0.00    -0.142 NA
ATOM      3  C   UNL d   1     -42.477-114.766 -47.436  0.00  0.00     0.045 A 
ATOM      4  N   UNL d   1     -42.090-115.817 -46.677  0.00  0.00    -0.148 NA
ATOM      5  C   UNL d   1     -41.809-115.154 -47.096  0.00  0.00     0.105 A 
ATOM      6  C   UNL d   1     -42.196-114.113 -47.847  0.00  0.00     0.003 A 
ATOM      7  C   UNL d   1     -41.123-114.731 -47.305  0.00  0.00     0.021 A 
ATOM      8  C   UNL d   1     -41.379-114.068 -47.785  0.00  0.00     0.002 A 
ENDROOT
BRANCH   1   9
ATOM      9  C   UNL d   1     -43.911-114.991 -47.446  0.00  0.00     0.231 C 
ATOM     10  O   UNL d   1     -44.411-114.584 -46.931  0.00  0.00    -0.643 OA
ATOM     11  O   UNL d   1     -44.242-115.184 -48.183  0.00  0.00    -0.643 OA
ENDBRANCH   1   9
TORSDOF 1
ENDMDL
