MODEL 1
REMARK VINA RESULT:      -9.5      0.000      0.000
REMARK  1 active torsions:
REMARK  status: ('A' for Active; 'I' for Inactive)
REMARK    1  A    between atoms: C_9  and  C_3 
REMARK       I    between atoms: C_10  and  N_4 
ROOT
ATOM      1  N   UNL d   1     -47.998  11.757  23.071  0.00  0.00    -0.047 N 
ATOM      2  N   UNL d   1     -48.381  12.429  22.802  0.00  0.00    -0.188 N 
ATOM      3  C   UNL d   1     -49.170  12.267  22.623  0.00  0.00     0.194 A 
ATOM      4  N   UNL d   1     -47.267  11.908  23.237  0.00  0.00    -0.172 N 
ATOM      5  N   UNL d   1     -49.309  11.454  22.781  0.00  0.00    -0.083 NA
ATOM      6  C   UNL d   1     -47.836  13.012  22.812  0.00  0.00     0.104 A 
ATOM      7  O   UNL d   1     -48.570  11.137  23.063  0.00  0.00    -0.089 OA
ATOM      8  C   UNL d   1     -47.129  12.688  23.087  0.00  0.00     0.106 A 
ATOM      9  C   UNL d   1     -46.713  11.336  23.529  0.00  0.00     0.282 C 
ATOM     10  O   UNL d   1     -46.945  10.564  23.652  0.00  0.00    -0.265 OA
ATOM     11  C   UNL d   1     -47.879  13.819  22.605  0.00  0.00     0.021 A 
ATOM     12  C   UNL d   1     -46.470  13.169  23.153  0.00  0.00     0.021 A 
ATOM     13  C   UNL d   1     -45.927  11.558  23.694  0.00  0.00     0.068 C 
ATOM     14  C   UNL d   1     -46.484  13.951  22.960  0.00  0.00     0.002 A 
ATOM     15  C   UNL d   1     -47.201  14.299  22.677  0.00  0.00     0.002 A 
ENDROOT
BRANCH   3  16
ATOM     16  C   UNL d   1     -49.665  12.850  22.344  0.00  0.00     0.038 A 
ATOM     17  C   UNL d   1     -49.729  12.996  21.562  0.00  0.00     0.003 A 
ATOM     18  C   UNL d   1     -50.250  13.607  21.297  0.00  0.00     0.000 A 
ATOM     19  C   UNL d   1     -49.301  12.569  21.000  0.00  0.00     0.000 C 
ATOM     20  C   UNL d   1     -50.337  13.782  20.495  0.00  0.00     0.000 C 
ATOM     21  C   UNL d   1     -50.661  14.020  21.829  0.00  0.00     0.000 A 
ATOM     22  C   UNL d   1     -50.598  13.874  22.611  0.00  0.00     0.000 A 
ATOM     23  C   UNL d   1     -50.102  13.290  22.889  0.00  0.00     0.003 A 
ATOM     24  C   UNL d   1     -51.051  14.328  23.187  0.00  0.00     0.000 C 
ATOM     25  C   UNL d   1     -50.037  13.139  23.698  0.00  0.00     0.000 C 
ENDBRANCH   3  16
TORSDOF 1
ENDMDL
MODEL 2
REMARK VINA RESULT:      -8.4      8.788     10.472
REMARK  1 active torsions:
REMARK  status: ('A' for Active; 'I' for Inactive)
REMARK    1  A    between atoms: C_9  and  C_3 
REMARK       I    between atoms: C_10  and  N_4 
ROOT
ATOM      1  N   UNL d   1     -40.491  14.443  19.318  0.00  0.00    -0.047 N 
ATOM      2  N   UNL d   1     -39.891  14.612  18.787  0.00  0.00    -0.188 N 
ATOM      3  C   UNL d   1     -40.079  14.333  18.033  0.00  0.00     0.194 A 
ATOM      4  N   UNL d   1     -40.317  14.701  20.017  0.00  0.00    -0.172 N 
ATOM      5  N   UNL d   1     -40.832  13.966  18.073  0.00  0.00    -0.083 NA
ATOM      6  C   UNL d   1     -39.329  14.995  19.204  0.00  0.00     0.104 A 
ATOM      7  O   UNL d   1     -41.089  14.037  18.882  0.00  0.00    -0.089 OA
ATOM      8  C   UNL d   1     -39.594  15.054  19.983  0.00  0.00     0.106 A 
ATOM      9  C   UNL d   1     -40.816  14.619  20.697  0.00  0.00     0.282 C 
ATOM     10  O   UNL d   1     -41.538  14.243  20.635  0.00  0.00    -0.265 OA
ATOM     11  C   UNL d   1     -38.589  15.311  18.984  0.00  0.00     0.021 A 
ATOM     12  C   UNL d   1     -39.119  15.427  20.536  0.00  0.00     0.021 A 
ATOM     13  C   UNL d   1     -40.575  14.920  21.435  0.00  0.00     0.068 C 
ATOM     14  C   UNL d   1     -38.401  15.741  20.350  0.00  0.00     0.002 A 
ATOM     15  C   UNL d   1     -38.116  15.688  19.556  0.00  0.00     0.002 A 
ENDROOT
BRANCH   3  16
ATOM     16  C   UNL d   1     -39.565  14.436  17.408  0.00  0.00     0.038 A 
ATOM     17  C   UNL d   1     -39.588  15.099  16.964  0.00  0.00     0.003 A 
ATOM     18  C   UNL d   1     -39.045  15.183  16.321  0.00  0.00     0.000 A 
ATOM     19  C   UNL d   1     -40.125  15.708  17.111  0.00  0.00     0.000 C 
ATOM     20  C   UNL d   1     -39.043  15.857  15.843  0.00  0.00     0.000 C 
ATOM     21  C   UNL d   1     -38.529  14.605  16.175  0.00  0.00     0.000 A 
ATOM     22  C   UNL d   1     -38.507  13.943  16.619  0.00  0.00     0.000 A 
ATOM     23  C   UNL d   1     -39.020  13.839  17.244  0.00  0.00     0.003 A 
ATOM     24  C   UNL d   1     -37.940  13.314  16.454  0.00  0.00     0.000 C 
ATOM     25  C   UNL d   1     -38.997  13.154  17.703  0.00  0.00     0.000 C 
ENDBRANCH   3  16
TORSDOF 1
ENDMDL
MODEL 3
REMARK VINA RESULT:      -7.5      8.584     10.134
REMARK  1 active torsions:
REMARK  status: ('A' for Active; 'I' for Inactive)
REMARK    1  A    between atoms: C_9  and  C_3 
REMARK       I    between atoms: C_10  and  N_4 
ROOT
ATOM      1  N   UNL d   1     -40.570  15.327  18.589  0.00  0.00    -0.047 N 
ATOM      2  N   UNL d   1     -40.113  14.944  19.150  0.00  0.00    -0.188 N 
ATOM      3  C   UNL d   1     -40.237  15.265  19.900  0.00  0.00     0.194 A 
ATOM      4  N   UNL d   1     -40.455  15.030  17.894  0.00  0.00    -0.172 N 
ATOM      5  N   UNL d   1     -40.799  15.884  19.827  0.00  0.00    -0.083 NA
ATOM      6  C   UNL d   1     -39.703  14.385  18.756  0.00  0.00     0.104 A 
ATOM      7  O   UNL d   1     -41.006  15.921  19.001  0.00  0.00    -0.089 OA
ATOM      8  C   UNL d   1     -39.915  14.434  17.960  0.00  0.00     0.106 A 
ATOM      9  C   UNL d   1     -40.840  15.297  17.187  0.00  0.00     0.282 C 
ATOM     10  O   UNL d   1     -41.375  15.911  17.217  0.00  0.00    -0.265 OA
ATOM     11  C   UNL d   1     -39.148  13.817  19.010  0.00  0.00     0.021 A 
ATOM     12  C   UNL d   1     -39.574  13.918  17.425  0.00  0.00     0.021 A 
ATOM     13  C   UNL d   1     -40.675  14.934  16.455  0.00  0.00     0.068 C 
ATOM     14  C   UNL d   1     -39.035  13.361  17.644  0.00  0.00     0.002 A 
ATOM     15  C   UNL d   1     -38.807  13.297  18.455  0.00  0.00     0.002 A 
ENDROOT
BRANCH   3  16
ATOM     16  C   UNL d   1     -39.843  14.975  20.551  0.00  0.00     0.038 A 
ATOM     17  C   UNL d   1     -40.151  14.381  20.986  0.00  0.00     0.003 A 
ATOM     18  C   UNL d   1     -39.723  14.096  21.658  0.00  0.00     0.000 A 
ATOM     19  C   UNL d   1     -40.877  14.033  20.803  0.00  0.00     0.000 C 
ATOM     20  C   UNL d   1     -40.015  13.483  22.127  0.00  0.00     0.000 C 
ATOM     21  C   UNL d   1     -39.029  14.423  21.839  0.00  0.00     0.000 A 
ATOM     22  C   UNL d   1     -38.721  15.017  21.404  0.00  0.00     0.000 A 
ATOM     23  C   UNL d   1     -39.115  15.308  20.753  0.00  0.00     0.003 A 
ATOM     24  C   UNL d   1     -37.961  15.371  21.607  0.00  0.00     0.000 C 
ATOM     25  C   UNL d   1     -38.797  15.922  20.303  0.00  0.00     0.000 C 
ENDBRANCH   3  16
TORSDOF 1
ENDMDL
MODEL 4
REMARK VINA RESULT:      -7.3      9.013     10.695
REMARK  1 active torsions:
REMARK  status: ('A' for Active; 'I' for Inactive)
REMARK    1  A    between atoms: C_9  and  C_3 
REMARK       I    between atoms: C_10  and  N_4 
ROOT
ATOM      1  N   UNL d   1     -39.240  15.017  17.448  0.00  0.00    -0.047 N 
ATOM      2  N   UNL d   1     -39.290  14.762  18.225  0.00  0.00    -0.188 N 
ATOM      3  C   UNL d   1     -39.729  15.292  18.681  0.00  0.00     0.194 A 
ATOM      4  N   UNL d   1     -38.833  14.525  17.026  0.00  0.00    -0.172 N 
ATOM      5  N   UNL d   1     -39.976  15.919  18.182  0.00  0.00    -0.083 NA
ATOM      6  C   UNL d   1     -38.885  14.075  18.258  0.00  0.00     0.104 A 
ATOM      7  O   UNL d   1     -39.667  15.743  17.407  0.00  0.00    -0.089 OA
ATOM      8  C   UNL d   1     -38.594  13.921  17.502  0.00  0.00     0.106 A 
ATOM      9  C   UNL d   1     -38.674  14.621  16.199  0.00  0.00     0.282 C 
ATOM     10  O   UNL d   1     -38.960  15.270  15.796  0.00  0.00    -0.265 OA
ATOM     11  C   UNL d   1     -38.732  13.548  18.886  0.00  0.00     0.021 A 
ATOM     12  C   UNL d   1     -38.152  13.243  17.377  0.00  0.00     0.021 A 
ATOM     13  C   UNL d   1     -38.224  14.053  15.788  0.00  0.00     0.068 C 
ATOM     14  C   UNL d   1     -37.990  12.717  17.965  0.00  0.00     0.002 A 
ATOM     15  C   UNL d   1     -38.281  12.861  18.745  0.00  0.00     0.002 A 
ENDROOT
BRANCH   3  16
ATOM     16  C   UNL d   1     -39.856  15.157  19.474  0.00  0.00     0.038 A 
ATOM     17  C   UNL d   1     -40.479  14.726  19.723  0.00  0.00     0.003 A 
ATOM     18  C   UNL d   1     -40.590  14.599  20.551  0.00  0.00     0.000 A 
ATOM     19  C   UNL d   1     -41.023  14.397  19.196  0.00  0.00     0.000 C 
ATOM     20  C   UNL d   1     -41.226  14.158  20.840  0.00  0.00     0.000 C 
ATOM     21  C   UNL d   1     -40.074  14.910  21.060  0.00  0.00     0.000 A 
ATOM     22  C   UNL d   1     -39.450  15.341  20.812  0.00  0.00     0.000 A 
ATOM     23  C   UNL d   1     -39.324  15.476  20.018  0.00  0.00     0.003 A 
ATOM     24  C   UNL d   1     -38.890  15.679  21.373  0.00  0.00     0.000 C 
ATOM     25  C   UNL d   1     -38.679  15.922  19.762  0.00  0.00     0.000 C 
ENDBRANCH   3  16
TORSDOF 1
ENDMDL
MODEL 5
REMARK VINA RESULT:      -7.3      1.628      3.645
REMARK  1 active torsions:
REMARK  status: ('A' for Active; 'I' for Inactive)
REMARK    1  A    between atoms: C_9  and  C_3 
REMARK       I    between atoms: C_10  and  N_4 
ROOT
ATOM      1  N   UNL d   1     -49.363  13.403  21.469  0.00  0.00    -0.047 N 
ATOM      2  N   UNL d   1     -48.723  13.367  21.978  0.00  0.00    -0.188 N 
ATOM      3  C   UNL d   1     -48.197  12.774  21.750  0.00  0.00     0.194 A 
ATOM      4  N   UNL d   1     -49.850  13.953  21.681  0.00  0.00    -0.172 N 
ATOM      5  N   UNL d   1     -48.505  12.406  21.062  0.00  0.00    -0.083 NA
ATOM      6  C   UNL d   1     -48.845  13.935  22.525  0.00  0.00     0.104 A 
ATOM      7  O   UNL d   1     -49.239  12.804  20.888  0.00  0.00    -0.089 OA
ATOM      8  C   UNL d   1     -49.557  14.309  22.342  0.00  0.00     0.106 A 
ATOM      9  C   UNL d   1     -50.571  14.139  21.275  0.00  0.00     0.282 C 
ATOM     10  O   UNL d   1     -50.787  13.721  20.609  0.00  0.00    -0.265 OA
ATOM     11  C   UNL d   1     -48.399  14.178  23.187  0.00  0.00     0.021 A 
ATOM     12  C   UNL d   1     -49.819  14.921  22.818  0.00  0.00     0.021 A 
ATOM     13  C   UNL d   1     -51.064  14.750  21.551  0.00  0.00     0.068 C 
ATOM     14  C   UNL d   1     -49.408  15.174  23.463  0.00  0.00     0.002 A 
ATOM     15  C   UNL d   1     -48.677  14.802  23.664  0.00  0.00     0.002 A 
ENDROOT
BRANCH   3  16
ATOM     16  C   UNL d   1     -47.515  12.632  22.173  0.00  0.00     0.038 A 
ATOM     17  C   UNL d   1     -46.867  13.086  22.071  0.00  0.00     0.003 A 
ATOM     18  C   UNL d   1     -46.171  12.919  22.521  0.00  0.00     0.000 A 
ATOM     19  C   UNL d   1     -46.851  13.715  21.537  0.00  0.00     0.000 C 
ATOM     20  C   UNL d   1     -45.484  13.370  22.438  0.00  0.00     0.000 C 
ATOM     21  C   UNL d   1     -46.178  12.319  23.033  0.00  0.00     0.000 A 
ATOM     22  C   UNL d   1     -46.827  11.865  23.136  0.00  0.00     0.000 A 
ATOM     23  C   UNL d   1     -47.509  12.007  22.712  0.00  0.00     0.003 A 
ATOM     24  C   UNL d   1     -46.829  11.211  23.697  0.00  0.00     0.000 C 
ATOM     25  C   UNL d   1     -48.179  11.539  22.818  0.00  0.00     0.000 C 
ENDBRANCH   3  16
TORSDOF 1
ENDMDL
MODEL 6
REMARK VINA RESULT:      -7.0      8.701     10.414
REMARK  1 active torsions:
REMARK  status: ('A' for Active; 'I' for Inactive)
REMARK    1  A    between atoms: C_9  and  C_3 
REMARK       I    between atoms: C_10  and  N_4 
ROOT
ATOM      1  N   UNL d   1     -38.717  15.300  20.452  0.00  0.00    -0.047 N 
ATOM      2  N   UNL d   1     -39.116  14.958  19.825  0.00  0.00    -0.188 N 
ATOM      3  C   UNL d   1     -38.671  15.007  19.131  0.00  0.00     0.194 A 
ATOM      4  N   UNL d   1     -39.129  15.254  21.095  0.00  0.00    -0.172 N 
ATOM      5  N   UNL d   1     -37.951  15.397  19.313  0.00  0.00    -0.083 NA
ATOM      6  C   UNL d   1     -39.808  14.695  20.121  0.00  0.00     0.104 A 
ATOM      7  O   UNL d   1     -37.982  15.580  20.145  0.00  0.00    -0.089 OA
ATOM      8  C   UNL d   1     -39.822  14.880  20.925  0.00  0.00     0.106 A 
ATOM      9  C   UNL d   1     -38.879  15.555  21.848  0.00  0.00     0.282 C 
ATOM     10  O   UNL d   1     -38.155  15.922  21.925  0.00  0.00    -0.265 OA
ATOM     11  C   UNL d   1     -40.452  14.300  19.768  0.00  0.00     0.021 A 
ATOM     12  C   UNL d   1     -40.476  14.671  21.370  0.00  0.00     0.021 A 
ATOM     13  C   UNL d   1     -39.371  15.477  22.516  0.00  0.00     0.068 C 
ATOM     14  C   UNL d   1     -41.111  14.289  21.054  0.00  0.00     0.002 A 
ATOM     15  C   UNL d   1     -41.113  14.092  20.232  0.00  0.00     0.002 A 
ENDROOT
BRANCH   3  16
ATOM     16  C   UNL d   1     -38.953  14.703  18.430  0.00  0.00     0.038 A 
ATOM     17  C   UNL d   1     -39.415  15.142  17.949  0.00  0.00     0.003 A 
ATOM     18  C   UNL d   1     -39.696  14.805  17.226  0.00  0.00     0.000 A 
ATOM     19  C   UNL d   1     -39.629  15.918  18.134  0.00  0.00     0.000 C 
ATOM     20  C   UNL d   1     -40.175  15.234  16.708  0.00  0.00     0.000 C 
ATOM     21  C   UNL d   1     -39.496  14.064  17.043  0.00  0.00     0.000 A 
ATOM     22  C   UNL d   1     -39.035  13.626  17.524  0.00  0.00     0.000 A 
ATOM     23  C   UNL d   1     -38.752  13.929  18.226  0.00  0.00     0.003 A 
ATOM     24  C   UNL d   1     -38.819  12.816  17.319  0.00  0.00     0.000 C 
ATOM     25  C   UNL d   1     -38.275  13.475  18.723  0.00  0.00     0.000 C 
ENDBRANCH   3  16
TORSDOF 1
ENDMDL
MODEL 7
REMARK VINA RESULT:      -6.5      8.600     10.316
REMARK  1 active torsions:
REMARK  status: ('A' for Active; 'I' for Inactive)
REMARK    1  A    between atoms: C_9  and  C_3 
REMARK       I    between atoms: C_10  and  N_4 
ROOT
ATOM      1  N   UNL d   1     -38.839  13.855  18.072  0.00  0.00    -0.047 N 
ATOM      2  N   UNL d   1     -39.319  14.293  18.570  0.00  0.00    -0.188 N 
ATOM      3  C   UNL d   1     -39.255  14.028  19.349  0.00  0.00     0.194 A 
ATOM      4  N   UNL d   1     -38.898  14.101  17.350  0.00  0.00    -0.172 N 
ATOM      5  N   UNL d   1     -38.710  13.391  19.361  0.00  0.00    -0.083 NA
ATOM      6  C   UNL d   1     -39.684  14.830  18.107  0.00  0.00     0.104 A 
ATOM      7  O   UNL d   1     -38.449  13.284  18.557  0.00  0.00    -0.089 OA
ATOM      8  C   UNL d   1     -39.421  14.714  17.333  0.00  0.00     0.106 A 
ATOM      9  C   UNL d   1     -38.475  13.770  16.694  0.00  0.00     0.282 C 
ATOM     10  O   UNL d   1     -37.962  13.146  16.807  0.00  0.00    -0.265 OA
ATOM     11  C   UNL d   1     -40.237  15.431  18.278  0.00  0.00     0.021 A 
ATOM     12  C   UNL d   1     -39.710  15.195  16.738  0.00  0.00     0.021 A 
ATOM     13  C   UNL d   1     -38.579  14.078  15.927  0.00  0.00     0.068 C 
ATOM     14  C   UNL d   1     -40.244  15.782  16.877  0.00  0.00     0.002 A 
ATOM     15  C   UNL d   1     -40.524  15.915  17.664  0.00  0.00     0.002 A 
ENDROOT
BRANCH   3  16
ATOM     16  C   UNL d   1     -39.683  14.379  19.947  0.00  0.00     0.038 A 
ATOM     17  C   UNL d   1     -40.438  14.165  20.092  0.00  0.00     0.003 A 
ATOM     18  C   UNL d   1     -40.861  14.543  20.718  0.00  0.00     0.000 A 
ATOM     19  C   UNL d   1     -40.822  13.584  19.649  0.00  0.00     0.000 C 
ATOM     20  C   UNL d   1     -41.644  14.344  20.893  0.00  0.00     0.000 C 
ATOM     21  C   UNL d   1     -40.501  15.099  21.146  0.00  0.00     0.000 A 
ATOM     22  C   UNL d   1     -39.746  15.313  21.001  0.00  0.00     0.000 A 
ATOM     23  C   UNL d   1     -39.318  14.962  20.403  0.00  0.00     0.003 A 
ATOM     24  C   UNL d   1     -39.356  15.922  21.472  0.00  0.00     0.000 C 
ATOM     25  C   UNL d   1     -38.537  15.184  20.253  0.00  0.00     0.000 C 
ENDBRANCH   3  16
TORSDOF 1
ENDMDL
