MODEL 1
REMARK VINA RESULT:      -7.7      0.000      0.000
REMARK  5 active torsions:
REMARK  status: ('A' for Active; 'I' for Inactive)
REMARK    1  A    between atoms: C_2  and  C_1 
REMARK       I    between atoms: N_3  and  C_1 
REMARK       I    between atoms: N_4  and  C_2 
REMARK    2  A    between atoms: C_5  and  N_3 
REMARK    3  A    between atoms: C_10  and  N_4 
REMARK    4  A    between atoms: C_12  and  C_10 
REMARK    5  A    between atoms: O_13  and  C_11 
ROOT
ATOM      1  C   UNL d   1      51.648  33.137  52.978  0.00  0.00     0.337 C 
ATOM      2  N   UNL d   1      51.550  33.841  52.573  0.00  0.00    -0.204 NA
ATOM      3  O   UNL d   1      50.992  32.756  53.302  0.00  0.00    -0.260 OA
ENDROOT
BRANCH   1   4
ATOM      4  C   UNL d   1      52.400  32.808  53.063  0.00  0.00     0.337 C 
ATOM      5  N   UNL d   1      52.899  33.069  53.660  0.00  0.00    -0.202 NA
ATOM      6  O   UNL d   1      52.650  32.214  52.547  0.00  0.00    -0.260 OA
BRANCH   5   7
ATOM      7  C   UNL d   1      53.646  32.742  53.745  0.00  0.00     0.102 C 
BRANCH   7   8
ATOM      8  C   UNL d   1      54.174  33.055  54.297  0.00  0.00     0.022 A 
ATOM      9  C   UNL d   1      54.843  33.446  54.039  0.00  0.00     0.022 A 
ATOM     10  C   UNL d   1      55.371  33.759  54.591  0.00  0.00     0.099 A 
ATOM     11  N   UNL d   1      55.221  33.677  55.397  0.00  0.00    -0.242 NA
ATOM     12  C   UNL d   1      54.544  33.280  55.653  0.00  0.00     0.099 A 
ATOM     13  C   UNL d   1      54.024  32.972  55.103  0.00  0.00     0.022 A 
ENDBRANCH   7   8
ENDBRANCH   5   7
ENDBRANCH   1   4
BRANCH   2  14
ATOM     14  C   UNL d   1      50.798  34.170  52.488  0.00  0.00     0.087 A 
ATOM     15  C   UNL d   1      50.402  34.112  51.766  0.00  0.00     0.043 A 
ATOM     16  C   UNL d   1      49.651  34.441  51.681  0.00  0.00     0.096 A 
ATOM     17  C   UNL d   1      49.295  34.828  52.317  0.00  0.00     0.024 A 
ATOM     18  C   UNL d   1      49.692  34.886  53.039  0.00  0.00     0.004 A 
ATOM     19  C   UNL d   1      50.442  34.557  53.124  0.00  0.00     0.019 A 
BRANCH  16  20
ATOM     20  O   UNL d   1      49.242  34.389  50.959  0.00  0.00    -0.328 OA
ATOM     21  C   UNL d   1      48.489  34.738  50.887  0.00  0.00     0.181 C 
ENDBRANCH  16  20
ENDBRANCH   2  14
TORSDOF 5
ENDMDL
MODEL 2
REMARK VINA RESULT:      -7.0      1.528      5.062
REMARK  5 active torsions:
REMARK  status: ('A' for Active; 'I' for Inactive)
REMARK    1  A    between atoms: C_2  and  C_1 
REMARK       I    between atoms: N_3  and  C_1 
REMARK       I    between atoms: N_4  and  C_2 
REMARK    2  A    between atoms: C_5  and  N_3 
REMARK    3  A    between atoms: C_10  and  N_4 
REMARK    4  A    between atoms: C_12  and  C_10 
REMARK    5  A    between atoms: O_13  and  C_11 
ROOT
ATOM      1  C   UNL d   1      51.544  33.544  53.263  0.00  0.00     0.337 C 
ATOM      2  N   UNL d   1      52.322  33.454  53.027  0.00  0.00    -0.204 NA
ATOM      3  O   UNL d   1      51.180  32.952  53.709  0.00  0.00    -0.260 OA
ENDROOT
BRANCH   1   4
ATOM      4  C   UNL d   1      51.123  34.222  53.056  0.00  0.00     0.337 C 
ATOM      5  N   UNL d   1      50.431  34.160  52.619  0.00  0.00    -0.202 NA
ATOM      6  O   UNL d   1      51.398  34.965  53.289  0.00  0.00    -0.260 OA
BRANCH   5   7
ATOM      7  C   UNL d   1      50.012  34.835  52.414  0.00  0.00     0.102 C 
BRANCH   7   8
ATOM      8  C   UNL d   1      49.356  34.778  51.916  0.00  0.00     0.022 A 
ATOM      9  C   UNL d   1      48.631  35.057  52.169  0.00  0.00     0.022 A 
ATOM     10  C   UNL d   1      47.975  35.000  51.671  0.00  0.00     0.099 A 
ATOM     11  N   UNL d   1      48.053  34.663  50.923  0.00  0.00    -0.242 NA
ATOM     12  C   UNL d   1      48.788  34.382  50.672  0.00  0.00     0.099 A 
ATOM     13  C   UNL d   1      49.434  34.441  51.168  0.00  0.00     0.022 A 
ENDBRANCH   7   8
ENDBRANCH   5   7
ENDBRANCH   1   4
BRANCH   2  14
ATOM     14  C   UNL d   1      52.743  32.775  53.234  0.00  0.00     0.087 A 
ATOM     15  C   UNL d   1      52.629  32.074  52.813  0.00  0.00     0.043 A 
ATOM     16  C   UNL d   1      53.050  31.396  53.020  0.00  0.00     0.096 A 
ATOM     17  C   UNL d   1      53.586  31.418  53.648  0.00  0.00     0.024 A 
ATOM     18  C   UNL d   1      53.700  32.119  54.069  0.00  0.00     0.004 A 
ATOM     19  C   UNL d   1      53.279  32.797  53.862  0.00  0.00     0.019 A 
BRANCH  16  20
ATOM     20  O   UNL d   1      52.943  30.685  52.603  0.00  0.00    -0.328 OA
ATOM     21  C   UNL d   1      52.888  29.967  53.022  0.00  0.00     0.181 C 
ENDBRANCH  16  20
ENDBRANCH   2  14
TORSDOF 5
ENDMDL
MODEL 3
REMARK VINA RESULT:      -6.9      1.849      5.204
REMARK  5 active torsions:
REMARK  status: ('A' for Active; 'I' for Inactive)
REMARK    1  A    between atoms: C_2  and  C_1 
REMARK       I    between atoms: N_3  and  C_1 
REMARK       I    between atoms: N_4  and  C_2 
REMARK    2  A    between atoms: C_5  and  N_3 
REMARK    3  A    between atoms: C_10  and  N_4 
REMARK    4  A    between atoms: C_12  and  C_10 
REMARK    5  A    between atoms: O_13  and  C_11 
ROOT
ATOM      1  C   UNL d   1      50.703  34.184  52.882  0.00  0.00     0.337 C 
ATOM      2  N   UNL d   1      51.451  34.446  52.681  0.00  0.00    -0.204 NA
ATOM      3  O   UNL d   1      50.606  33.675  53.524  0.00  0.00    -0.260 OA
ENDROOT
BRANCH   1   4
ATOM      4  C   UNL d   1      50.046  34.428  52.446  0.00  0.00     0.337 C 
ATOM      5  N   UNL d   1      49.476  34.907  52.793  0.00  0.00    -0.202 NA
ATOM      6  O   UNL d   1      49.962  34.190  51.660  0.00  0.00    -0.260 OA
BRANCH   5   7
ATOM      7  C   UNL d   1      48.824  35.149  52.360  0.00  0.00     0.102 C 
BRANCH   7   8
ATOM      8  C   UNL d   1      48.277  35.670  52.693  0.00  0.00     0.022 A 
ATOM      9  C   UNL d   1      47.656  35.949  52.241  0.00  0.00     0.022 A 
ATOM     10  C   UNL d   1      47.110  36.470  52.574  0.00  0.00     0.099 A 
ATOM     11  N   UNL d   1      47.192  36.707  53.359  0.00  0.00    -0.242 NA
ATOM     12  C   UNL d   1      47.821  36.423  53.812  0.00  0.00     0.099 A 
ATOM     13  C   UNL d   1      48.360  35.907  53.478  0.00  0.00     0.022 A 
ENDBRANCH   7   8
ENDBRANCH   5   7
ENDBRANCH   1   4
BRANCH   2  14
ATOM     14  C   UNL d   1      52.108  34.202  53.116  0.00  0.00     0.087 A 
ATOM     15  C   UNL d   1      52.491  33.496  52.926  0.00  0.00     0.043 A 
ATOM     16  C   UNL d   1      53.147  33.252  53.361  0.00  0.00     0.096 A 
ATOM     17  C   UNL d   1      53.422  33.715  53.988  0.00  0.00     0.024 A 
ATOM     18  C   UNL d   1      53.039  34.421  54.178  0.00  0.00     0.004 A 
ATOM     19  C   UNL d   1      52.383  34.664  53.743  0.00  0.00     0.019 A 
BRANCH  16  20
ATOM     20  O   UNL d   1      53.540  32.543  53.178  0.00  0.00    -0.328 OA
ATOM     21  C   UNL d   1      53.807  32.051  53.795  0.00  0.00     0.181 C 
ENDBRANCH  16  20
ENDBRANCH   2  14
TORSDOF 5
ENDMDL
MODEL 4
REMARK VINA RESULT:      -6.6      2.686      3.742
REMARK  5 active torsions:
REMARK  status: ('A' for Active; 'I' for Inactive)
REMARK    1  A    between atoms: C_2  and  C_1 
REMARK       I    between atoms: N_3  and  C_1 
REMARK       I    between atoms: N_4  and  C_2 
REMARK    2  A    between atoms: C_5  and  N_3 
REMARK    3  A    between atoms: C_10  and  N_4 
REMARK    4  A    between atoms: C_12  and  C_10 
REMARK    5  A    between atoms: O_13  and  C_11 
ROOT
ATOM      1  C   UNL d   1      53.074  32.274  53.092  0.00  0.00     0.337 C 
ATOM      2  N   UNL d   1      52.450  32.743  53.337  0.00  0.00    -0.204 NA
ATOM      3  O   UNL d   1      53.820  32.609  52.984  0.00  0.00    -0.260 OA
ENDROOT
BRANCH   1   4
ATOM      4  C   UNL d   1      52.960  31.469  52.953  0.00  0.00     0.337 C 
ATOM      5  N   UNL d   1      53.144  30.920  53.535  0.00  0.00    -0.202 NA
ATOM      6  O   UNL d   1      52.659  31.215  52.228  0.00  0.00    -0.260 OA
BRANCH   5   7
ATOM      7  C   UNL d   1      53.030  30.120  53.397  0.00  0.00     0.102 C 
BRANCH   7   8
ATOM      8  C   UNL d   1      53.177  29.572  53.997  0.00  0.00     0.022 A 
ATOM      9  C   UNL d   1      53.652  28.925  53.845  0.00  0.00     0.022 A 
ATOM     10  C   UNL d   1      53.799  28.377  54.446  0.00  0.00     0.099 A 
ATOM     11  N   UNL d   1      53.468  28.485  55.192  0.00  0.00    -0.242 NA
ATOM     12  C   UNL d   1      52.989  29.141  55.341  0.00  0.00     0.099 A 
ATOM     13  C   UNL d   1      52.846  29.680  54.744  0.00  0.00     0.022 A 
ENDBRANCH   7   8
ENDBRANCH   5   7
ENDBRANCH   1   4
BRANCH   2  14
ATOM     14  C   UNL d   1      52.565  33.548  53.476  0.00  0.00     0.087 A 
ATOM     15  C   UNL d   1      52.852  33.804  54.207  0.00  0.00     0.043 A 
ATOM     16  C   UNL d   1      52.967  34.608  54.346  0.00  0.00     0.096 A 
ATOM     17  C   UNL d   1      52.794  35.158  53.755  0.00  0.00     0.024 A 
ATOM     18  C   UNL d   1      52.506  34.902  53.024  0.00  0.00     0.004 A 
ATOM     19  C   UNL d   1      52.392  34.098  52.885  0.00  0.00     0.019 A 
BRANCH  16  20
ATOM     20  O   UNL d   1      53.256  34.877  55.077  0.00  0.00    -0.328 OA
ATOM     21  C   UNL d   1      53.177  35.682  55.279  0.00  0.00     0.181 C 
ENDBRANCH  16  20
ENDBRANCH   2  14
TORSDOF 5
ENDMDL
MODEL 5
REMARK VINA RESULT:      -6.6      1.761      2.318
REMARK  5 active torsions:
REMARK  status: ('A' for Active; 'I' for Inactive)
REMARK    1  A    between atoms: C_2  and  C_1 
REMARK       I    between atoms: N_3  and  C_1 
REMARK       I    between atoms: N_4  and  C_2 
REMARK    2  A    between atoms: C_5  and  N_3 
REMARK    3  A    between atoms: C_10  and  N_4 
REMARK    4  A    between atoms: C_12  and  C_10 
REMARK    5  A    between atoms: O_13  and  C_11 
ROOT
ATOM      1  C   UNL d   1      51.640  34.059  52.777  0.00  0.00     0.337 C 
ATOM      2  N   UNL d   1      50.905  33.956  53.119  0.00  0.00    -0.204 NA
ATOM      3  O   UNL d   1      51.717  34.534  52.106  0.00  0.00    -0.260 OA
ENDROOT
BRANCH   1   4
ATOM      4  C   UNL d   1      52.304  33.691  53.100  0.00  0.00     0.337 C 
ATOM      5  N   UNL d   1      52.405  32.881  53.020  0.00  0.00    -0.202 NA
ATOM      6  O   UNL d   1      52.868  34.139  53.503  0.00  0.00    -0.260 OA
BRANCH   5   7
ATOM      7  C   UNL d   1      53.065  32.515  53.341  0.00  0.00     0.102 C 
BRANCH   7   8
ATOM      8  C   UNL d   1      53.129  31.692  53.327  0.00  0.00     0.022 A 
ATOM      9  C   UNL d   1      53.692  31.322  53.789  0.00  0.00     0.022 A 
ATOM     10  C   UNL d   1      53.756  30.499  53.775  0.00  0.00     0.099 A 
ATOM     11  N   UNL d   1      53.254  30.055  53.297  0.00  0.00    -0.242 NA
ATOM     12  C   UNL d   1      52.686  30.433  52.831  0.00  0.00     0.099 A 
ATOM     13  C   UNL d   1      52.627  31.248  52.848  0.00  0.00     0.022 A 
ENDBRANCH   7   8
ENDBRANCH   5   7
ENDBRANCH   1   4
BRANCH   2  14
ATOM     14  C   UNL d   1      50.240  34.324  52.796  0.00  0.00     0.087 A 
ATOM     15  C   UNL d   1      49.838  34.901  53.228  0.00  0.00     0.043 A 
ATOM     16  C   UNL d   1      49.174  35.269  52.906  0.00  0.00     0.096 A 
ATOM     17  C   UNL d   1      48.912  35.060  52.151  0.00  0.00     0.024 A 
ATOM     18  C   UNL d   1      49.315  34.482  51.720  0.00  0.00     0.004 A 
ATOM     19  C   UNL d   1      49.978  34.115  52.042  0.00  0.00     0.019 A 
BRANCH  16  20
ATOM     20  O   UNL d   1      48.761  35.851  53.331  0.00  0.00    -0.328 OA
ATOM     21  C   UNL d   1      47.968  36.016  53.138  0.00  0.00     0.181 C 
ENDBRANCH  16  20
ENDBRANCH   2  14
TORSDOF 5
ENDMDL
MODEL 6
REMARK VINA RESULT:      -6.5      2.533      4.357
REMARK  5 active torsions:
REMARK  status: ('A' for Active; 'I' for Inactive)
REMARK    1  A    between atoms: C_2  and  C_1 
REMARK       I    between atoms: N_3  and  C_1 
REMARK       I    between atoms: N_4  and  C_2 
REMARK    2  A    between atoms: C_5  and  N_3 
REMARK    3  A    between atoms: C_10  and  N_4 
REMARK    4  A    between atoms: C_12  and  C_10 
REMARK    5  A    between atoms: O_13  and  C_11 
ROOT
ATOM      1  C   UNL d   1      52.531  31.869  53.060  0.00  0.00     0.337 C 
ATOM      2  N   UNL d   1      53.172  31.362  53.077  0.00  0.00    -0.204 NA
ATOM      3  O   UNL d   1      51.773  31.576  53.202  0.00  0.00    -0.260 OA
ENDROOT
BRANCH   1   4
ATOM      4  C   UNL d   1      52.640  32.672  52.902  0.00  0.00     0.337 C 
ATOM      5  N   UNL d   1      52.810  33.192  53.514  0.00  0.00    -0.202 NA
ATOM      6  O   UNL d   1      52.578  32.952  52.128  0.00  0.00    -0.260 OA
BRANCH   5   7
ATOM      7  C   UNL d   1      52.918  33.990  53.357  0.00  0.00     0.102 C 
BRANCH   7   8
ATOM      8  C   UNL d   1      53.033  34.521  53.978  0.00  0.00     0.022 A 
ATOM      9  C   UNL d   1      52.670  35.253  53.956  0.00  0.00     0.022 A 
ATOM     10  C   UNL d   1      52.785  35.785  54.577  0.00  0.00     0.099 A 
ATOM     11  N   UNL d   1      53.262  35.576  55.216  0.00  0.00    -0.242 NA
ATOM     12  C   UNL d   1      53.626  34.835  55.234  0.00  0.00     0.099 A 
ATOM     13  C   UNL d   1      53.510  34.312  54.617  0.00  0.00     0.022 A 
ENDBRANCH   7   8
ENDBRANCH   5   7
ENDBRANCH   1   4
BRANCH   2  14
ATOM     14  C   UNL d   1      53.063  30.560  53.234  0.00  0.00     0.087 A 
ATOM     15  C   UNL d   1      53.205  30.265  53.993  0.00  0.00     0.043 A 
ATOM     16  C   UNL d   1      53.096  29.463  54.150  0.00  0.00     0.096 A 
ATOM     17  C   UNL d   1      52.846  28.955  53.550  0.00  0.00     0.024 A 
ATOM     18  C   UNL d   1      52.704  29.250  52.792  0.00  0.00     0.004 A 
ATOM     19  C   UNL d   1      52.813  30.051  52.634  0.00  0.00     0.019 A 
BRANCH  16  20
ATOM     20  O   UNL d   1      53.236  29.156  54.910  0.00  0.00    -0.328 OA
ATOM     21  C   UNL d   1      53.576  28.400  54.991  0.00  0.00     0.181 C 
ENDBRANCH  16  20
ENDBRANCH   2  14
TORSDOF 5
ENDMDL
