MODEL 1
REMARK VINA RESULT:      30.0      0.000      0.000
REMARK  2 active torsions:
REMARK  status: ('A' for Active; 'I' for Inactive)
REMARK    1  A    between atoms: C_4  and  C_1 
REMARK    2  A    between atoms: N_2  and  C_9 
REMARK       I    between atoms: N_7  and  C_4 
ROOT
ATOM      1  C   UNL d   1      58.950  49.595  50.320  0.00  0.00     0.086 A 
ATOM      2  S   UNL d   1      59.678  49.660  50.003  0.00  0.00    -0.082 SA
ATOM      3  C   UNL d   1      58.988  49.547  51.131  0.00  0.00     0.012 A 
ATOM      4  C   UNL d   1      59.787  49.584  51.341  0.00  0.00     0.008 A 
ATOM      5  C   UNL d   1      60.217  49.655  50.640  0.00  0.00     0.030 A 
ATOM      6  C   UNL d   1      61.006  49.614  52.091  0.00  0.00     0.127 A 
ATOM      7  C   UNL d   1      60.180  49.565  52.053  0.00  0.00     0.024 A 
ATOM      8  C   UNL d   1      61.039  49.706  50.651  0.00  0.00     0.008 A 
ATOM      9  C   UNL d   1      61.435  49.685  51.390  0.00  0.00     0.024 A 
ENDROOT
BRANCH   1  10
ATOM     10  C   UNL d   1      58.239  49.578  49.863  0.00  0.00     0.271 C 
ATOM     11  N   UNL d   1      57.512  49.614  50.225  0.00  0.00    -0.272 N 
ATOM     12  C   UNL d   1      57.466  49.667  51.047  0.00  0.00     0.083 A 
ATOM     13  C   UNL d   1      56.809  49.598  49.774  0.00  0.00     0.083 A 
ATOM     14  C   UNL d   1      56.736  49.703  51.426  0.00  0.00     0.019 A 
ATOM     15  C   UNL d   1      56.040  49.688  50.983  0.00  0.00     0.003 A 
ATOM     16  C   UNL d   1      56.078  49.635  50.157  0.00  0.00     0.019 A 
ATOM     17  O   UNL d   1      58.301  49.525  49.041  0.00  0.00    -0.266 OA
ENDBRANCH   1  10
BRANCH   6  18
ATOM     18  N   UNL d   1      61.404  49.594  52.829  0.00  0.00    -0.114 N 
ATOM     19  O   UNL d   1      60.962  49.651  53.539  0.00  0.00    -0.532 OA
ATOM     20  O   UNL d   1      62.219  49.518  52.856  0.00  0.00    -0.532 OA
ENDBRANCH   6  18
TORSDOF 2
ENDMDL
