MODEL 1
REMARK VINA RESULT:      71.3      0.000      0.000
REMARK  3 active torsions:
REMARK  status: ('A' for Active; 'I' for Inactive)
REMARK    1  A    between atoms: C_11  and  N_2 
REMARK    2  A    between atoms: N_7  and  C_4 
REMARK    3  A    between atoms: C_14  and  C_11 
ROOT
ATOM      1  C   UNL d   1     -50.185  26.361  33.874  0.00  0.00     0.091 A 
ATOM      2  N   UNL d   1     -49.239  27.362  34.244  0.00  0.00    -0.211 N 
ATOM      3  C   UNL d   1     -49.407  26.621  33.933  0.00  0.00     0.170 A 
ATOM      4  C   UNL d   1     -50.345  25.618  33.562  0.00  0.00     0.154 A 
ATOM      5  N   UNL d   1     -49.855  27.847  34.498  0.00  0.00    -0.162 NA
ATOM      6  C   UNL d   1     -50.637  27.585  34.438  0.00  0.00     0.127 A 
ATOM      7  N   UNL d   1     -48.791  26.137  33.680  0.00  0.00    -0.205 NA
ATOM      8  N   UNL d   1     -49.740  25.133  33.309  0.00  0.00    -0.206 NA
ATOM      9  C   UNL d   1     -48.955  25.395  33.368  0.00  0.00     0.202 A 
ENDROOT
BRANCH   2  10
ATOM     10  C   UNL d   1     -48.460  27.623  34.303  0.00  0.00     0.102 C 
BRANCH  10  11
ATOM     11  C   UNL d   1     -48.285  28.309  34.717  0.00  0.00     0.019 A 
ATOM     12  C   UNL d   1     -48.412  29.044  34.371  0.00  0.00     0.002 A 
ATOM     13  C   UNL d   1     -48.235  29.732  34.788  0.00  0.00     0.011 A 
ATOM     14  C   UNL d   1     -47.932  29.683  35.552  0.00  0.00     0.058 A 
ATOM     15  C   UNL d   1     -47.803  28.938  35.903  0.00  0.00     0.011 A 
ATOM     16 CL   UNL d   1     -47.753  30.374  35.975  0.00  0.00    -0.082 Cl
ATOM     17  C   UNL d   1     -47.980  28.256  35.483  0.00  0.00     0.002 A 
ENDBRANCH  10  11
ENDBRANCH   2  10
BRANCH   4  18
ATOM     18  N   UNL d   1     -51.153  25.348  33.501  0.00  0.00    -0.289 N 
ATOM     19  C   UNL d   1     -51.779  25.930  33.405  0.00  0.00     0.082 A 
ATOM     20  C   UNL d   1     -52.593  25.669  33.343  0.00  0.00     0.019 A 
ATOM     21  C   UNL d   1     -52.771  24.829  33.377  0.00  0.00     0.003 A 
ATOM     22  C   UNL d   1     -52.151  24.255  33.471  0.00  0.00     0.019 A 
ATOM     23  C   UNL d   1     -53.581  24.569  33.315  0.00  0.00     0.000 C 
ATOM     24  C   UNL d   1     -51.341  24.515  33.533  0.00  0.00     0.082 A 
ENDBRANCH   4  18
TORSDOF 3
ENDMDL
MODEL 2
REMARK VINA RESULT:      72.9      1.538      2.704
REMARK  3 active torsions:
REMARK  status: ('A' for Active; 'I' for Inactive)
REMARK    1  A    between atoms: C_11  and  N_2 
REMARK    2  A    between atoms: N_7  and  C_4 
REMARK    3  A    between atoms: C_14  and  C_11 
ROOT
ATOM      1  C   UNL d   1     -52.145  24.801  33.729  0.00  0.00     0.091 A 
ATOM      2  N   UNL d   1     -51.125  25.779  33.534  0.00  0.00    -0.211 N 
ATOM      3  C   UNL d   1     -51.352  24.995  33.621  0.00  0.00     0.170 A 
ATOM      4  C   UNL d   1     -52.364  24.014  33.815  0.00  0.00     0.154 A 
ATOM      5  N   UNL d   1     -51.694  26.373  33.556  0.00  0.00    -0.162 NA
ATOM      6  C   UNL d   1     -52.490  26.179  33.664  0.00  0.00     0.127 A 
ATOM      7  N   UNL d   1     -50.782  24.401  33.599  0.00  0.00    -0.205 NA
ATOM      8  N   UNL d   1     -51.806  23.420  33.794  0.00  0.00    -0.206 NA
ATOM      9  C   UNL d   1     -51.006  23.616  33.686  0.00  0.00     0.202 A 
ENDROOT
BRANCH   2  10
ATOM     10  C   UNL d   1     -50.331  25.973  33.426  0.00  0.00     0.102 C 
BRANCH  10  11
ATOM     11  C   UNL d   1     -50.039  26.685  33.710  0.00  0.00     0.019 A 
ATOM     12  C   UNL d   1     -49.438  26.690  34.272  0.00  0.00     0.002 A 
ATOM     13  C   UNL d   1     -49.145  27.406  34.556  0.00  0.00     0.011 A 
ATOM     14  C   UNL d   1     -49.455  28.116  34.277  0.00  0.00     0.058 A 
ATOM     15  C   UNL d   1     -50.064  28.111  33.707  0.00  0.00     0.011 A 
ATOM     16 CL   UNL d   1     -49.162  28.839  34.561  0.00  0.00    -0.082 Cl
ATOM     17  C   UNL d   1     -50.351  27.395  33.428  0.00  0.00     0.002 A 
ENDBRANCH  10  11
ENDBRANCH   2  10
BRANCH   4  18
ATOM     18  N   UNL d   1     -53.187  23.813  33.926  0.00  0.00    -0.289 N 
ATOM     19  C   UNL d   1     -53.419  23.398  34.643  0.00  0.00     0.082 A 
ATOM     20  C   UNL d   1     -54.242  23.192  34.764  0.00  0.00     0.019 A 
ATOM     21  C   UNL d   1     -54.823  23.403  34.167  0.00  0.00     0.003 A 
ATOM     22  C   UNL d   1     -54.592  23.814  33.459  0.00  0.00     0.019 A 
ATOM     23  C   UNL d   1     -55.643  23.198  34.287  0.00  0.00     0.000 C 
ATOM     24  C   UNL d   1     -53.773  24.018  33.339  0.00  0.00     0.082 A 
ENDBRANCH   4  18
TORSDOF 3
ENDMDL
MODEL 3
REMARK VINA RESULT:      73.7      1.976      5.176
REMARK  3 active torsions:
REMARK  status: ('A' for Active; 'I' for Inactive)
REMARK    1  A    between atoms: C_11  and  N_2 
REMARK    2  A    between atoms: N_7  and  C_4 
REMARK    3  A    between atoms: C_14  and  C_11 
ROOT
ATOM      1  C   UNL d   1     -49.280  28.016  34.470  0.00  0.00     0.091 A 
ATOM      2  N   UNL d   1     -50.075  26.985  33.887  0.00  0.00    -0.211 N 
ATOM      3  C   UNL d   1     -49.814  27.764  33.897  0.00  0.00     0.170 A 
ATOM      4  C   UNL d   1     -49.024  28.797  34.473  0.00  0.00     0.154 A 
ATOM      5  N   UNL d   1     -49.800  26.456  34.455  0.00  0.00    -0.162 NA
ATOM      6  C   UNL d   1     -49.264  26.710  35.031  0.00  0.00     0.127 A 
ATOM      7  N   UNL d   1     -50.089  28.292  33.328  0.00  0.00    -0.205 NA
ATOM      8  N   UNL d   1     -49.292  29.326  33.913  0.00  0.00    -0.206 NA
ATOM      9  C   UNL d   1     -49.830  29.071  33.335  0.00  0.00     0.202 A 
ENDROOT
BRANCH   2  10
ATOM     10  C   UNL d   1     -50.609  26.732  33.314  0.00  0.00     0.102 C 
BRANCH  10  11
ATOM     11  C   UNL d   1     -50.876  25.956  33.312  0.00  0.00     0.019 A 
ATOM     12  C   UNL d   1     -51.683  25.796  33.315  0.00  0.00     0.002 A 
ATOM     13  C   UNL d   1     -51.949  25.017  33.314  0.00  0.00     0.011 A 
ATOM     14  C   UNL d   1     -51.406  24.397  33.310  0.00  0.00     0.058 A 
ATOM     15  C   UNL d   1     -50.588  24.559  33.307  0.00  0.00     0.011 A 
ATOM     16 CL   UNL d   1     -51.671  23.611  33.308  0.00  0.00    -0.082 Cl
ATOM     17  C   UNL d   1     -50.329  25.337  33.308  0.00  0.00     0.002 A 
ENDBRANCH  10  11
ENDBRANCH   2  10
BRANCH   4  18
ATOM     18  N   UNL d   1     -48.470  29.059  35.067  0.00  0.00    -0.289 N 
ATOM     19  C   UNL d   1     -47.743  29.444  34.817  0.00  0.00     0.082 A 
ATOM     20  C   UNL d   1     -47.181  29.710  35.406  0.00  0.00     0.019 A 
ATOM     21  C   UNL d   1     -47.353  29.590  36.240  0.00  0.00     0.003 A 
ATOM     22  C   UNL d   1     -48.072  29.209  36.486  0.00  0.00     0.019 A 
ATOM     23  C   UNL d   1     -46.793  29.855  36.827  0.00  0.00     0.000 C 
ATOM     24  C   UNL d   1     -48.631  28.944  35.898  0.00  0.00     0.082 A 
ENDBRANCH   4  18
TORSDOF 3
ENDMDL
