MODEL 1
REMARK VINA RESULT:      35.6      0.000      0.000
REMARK  3 active torsions:
REMARK  status: ('A' for Active; 'I' for Inactive)
REMARK    1  A    between atoms: N_6  and  C_1 
REMARK    2  A    between atoms: C_7  and  N_2 
REMARK    3  A    between atoms: C_8  and  N_6 
ROOT
ATOM      1  C   UNL d   1      58.867  49.591  51.122  0.00  0.00     0.735 A 
ATOM      2  N   UNL d   1      59.575  49.486  51.537  0.00  0.00    -0.139 N 
ATOM      3  N   UNL d   1      59.043  49.692  50.319  0.00  0.00    -0.059 NA
ATOM      4  C   UNL d   1      60.194  49.521  50.991  0.00  0.00     0.100 A 
ATOM      5  C   UNL d   1      59.859  49.648  50.239  0.00  0.00     0.116 A 
ATOM      6  C   UNL d   1      61.011  49.454  51.074  0.00  0.00     0.020 A 
ATOM      7  C   UNL d   1      60.356  49.707  49.581  0.00  0.00     0.021 A 
ATOM      8  C   UNL d   1      61.498  49.514  50.416  0.00  0.00     0.002 A 
ATOM      9  C   UNL d   1      61.173  49.641  49.663  0.00  0.00     0.002 A 
ENDROOT
BRANCH   1  10
ATOM     10  N   UNL d   1      58.110  49.596  51.451  0.00  0.00    -0.061 NA
BRANCH  10  11
ATOM     11  C   UNL d   1      57.447  49.591  50.967  0.00  0.00     0.100 A 
ATOM     12  C   UNL d   1      57.539  49.470  50.161  0.00  0.00     0.020 A 
ATOM     13  C   UNL d   1      56.880  49.463  49.665  0.00  0.00     0.002 A 
ATOM     14  C   UNL d   1      56.119  49.578  49.984  0.00  0.00     0.000 A 
ATOM     15  C   UNL d   1      56.034  49.699  50.797  0.00  0.00     0.002 A 
ATOM     16  C   UNL d   1      56.693  49.705  51.283  0.00  0.00     0.020 A 
ENDBRANCH  10  11
ENDBRANCH   1  10
BRANCH   2  17
ATOM     17  C   UNL d   1      59.649  49.367  52.348  0.00  0.00     0.082 C 
ATOM     18  C   UNL d   1      60.275  48.913  52.644  0.00  0.00     0.020 C 
ATOM     19  C   UNL d   1      59.105  49.697  52.870  0.00  0.00     0.020 C 
ENDBRANCH   2  17
TORSDOF 3
ENDMDL
