MODEL 1
REMARK VINA RESULT:      -3.1      0.000      0.000
REMARK  8 active torsions:
REMARK  status: ('A' for Active; 'I' for Inactive)
REMARK    1  A    between atoms: N_3  and  C_1 
REMARK    2  A    between atoms: S_2  and  C_9 
REMARK    3  A    between atoms: N_10  and  S_2 
REMARK       I    between atoms: C_8  and  N_3 
REMARK    4  A    between atoms: C_15  and  C_8 
REMARK    5  A    between atoms: C_27  and  N_10 
REMARK       I    between atoms: C_16  and  N_17 
REMARK    6  A    between atoms: N_17  and  C_18 
REMARK    7  A    between atoms: C_30  and  C_27 
REMARK    8  A    between atoms: C_31  and  C_30 
ROOT
ATOM      1  N   UNL d   1      32.807  21.052 -21.895  0.00  0.00    -0.184 NA
ATOM      2  C   UNL d   1      32.983  20.254 -21.777  0.00  0.00     0.281 C 
ATOM      3  O   UNL d   1      33.234  19.986 -21.030  0.00  0.00    -0.265 OA
ENDROOT
BRANCH   2   4
ATOM      4  C   UNL d   1      32.912  19.717 -22.399  0.00  0.00     0.058 A 
ATOM      5  C   UNL d   1      33.166  18.937 -22.303  0.00  0.00     0.005 A 
ATOM      6  C   UNL d   1      33.094  18.400 -22.926  0.00  0.00     0.013 A 
ATOM      7  C   UNL d   1      32.769  18.632 -23.650  0.00  0.00     0.104 A 
ATOM      8  C   UNL d   1      32.515  19.410 -23.746  0.00  0.00     0.013 A 
ATOM      9  C   UNL d   1      32.586  19.952 -23.121  0.00  0.00     0.005 A 
BRANCH   7  10
ATOM     10  S   UNL d   1      32.698  18.084 -24.279  0.00  0.00     0.271 S 
ATOM     11  O   UNL d   1      32.621  17.535 -24.897  0.00  0.00    -0.200 OA
ATOM     12  O   UNL d   1      33.240  18.513 -24.718  0.00  0.00    -0.200 OA
BRANCH  10  13
ATOM     13  N   UNL d   1      32.148  17.653 -23.826  0.00  0.00    -0.228 N 
ATOM     14  C   UNL d   1      32.397  17.219 -23.163  0.00  0.00     0.111 C 
BRANCH  13  15
ATOM     15  C   UNL d   1      31.351  17.658 -24.036  0.00  0.00     0.092 C 
BRANCH  15  16
ATOM     16  C   UNL d   1      30.972  16.954 -24.209  0.00  0.00     0.020 C 
BRANCH  16  17
ATOM     17  C   UNL d   1      30.171  16.950 -24.359  0.00  0.00     0.002 C 
ATOM     18  C   UNL d   1      29.636  16.780 -23.735  0.00  0.00     0.000 C 
ENDBRANCH  16  17
ENDBRANCH  15  16
ENDBRANCH  13  15
ENDBRANCH  10  13
ENDBRANCH   7  10
ENDBRANCH   2   4
BRANCH   1  19
ATOM     19  C   UNL d   1      32.879  21.593 -21.266  0.00  0.00     0.182 A 
ATOM     20  N   UNL d   1      32.877  22.412 -21.336  0.00  0.00    -0.283 N 
ATOM     21  C   UNL d   1      32.962  22.745 -20.588  0.00  0.00     0.072 A 
ATOM     22  C   UNL d   1      32.801  22.833 -22.053  0.00  0.00     0.101 C 
ATOM     23  C   UNL d   1      32.995  23.533 -20.331  0.00  0.00     0.020 A 
ATOM     24  C   UNL d   1      33.018  22.137 -20.035  0.00  0.00     0.050 A 
ATOM     25  C   UNL d   1      33.084  23.696 -19.532  0.00  0.00     0.021 A 
ATOM     26  C   UNL d   1      33.140  23.087 -18.981  0.00  0.00     0.085 A 
ATOM     27  C   UNL d   1      33.107  22.302 -19.234  0.00  0.00     0.027 A 
ATOM     28  S   UNL d   1      32.967  21.420 -20.454  0.00  0.00    -0.048 SA
BRANCH  26  29
ATOM     29  N   UNL d   1      33.231  23.262 -18.167  0.00  0.00    -0.208 NA
ATOM     30  C   UNL d   1      32.573  23.528 -17.733  0.00  0.00     0.279 C 
ATOM     31  O   UNL d   1      32.656  23.701 -16.932  0.00  0.00    -0.265 OA
ATOM     32  C   UNL d   1      31.845  23.614 -18.112  0.00  0.00     0.068 C 
ENDBRANCH  26  29
ENDBRANCH   1  19
TORSDOF 8
ENDMDL
