MODEL 1
REMARK VINA RESULT:      41.9      0.000      0.000
REMARK  4 active torsions:
REMARK  status: ('A' for Active; 'I' for Inactive)
REMARK    1  A    between atoms: C_15  and  C_2 
REMARK    2  A    between atoms: C_6  and  S_16 
REMARK    3  A    between atoms: N_8  and  C_11 
REMARK    4  A    between atoms: S_16  and  C_15 
ROOT
ATOM      1  C   UNL d   1      13.124  13.060  -4.158  0.00  0.00     0.141 A 
ATOM      2  N   UNL d   1      13.677  13.521  -3.786  0.00  0.00    -0.232 NA
ATOM      3  S   UNL d   1      12.863  13.456  -4.836  0.00  0.00    -0.060 SA
ATOM      4  C   UNL d   1      13.772  14.220  -4.227  0.00  0.00     0.090 A 
ATOM      5  C   UNL d   1      14.230  15.515  -4.662  0.00  0.00     0.128 A 
ATOM      6  C   UNL d   1      13.276  14.188  -4.873  0.00  0.00     0.049 A 
ATOM      7  C   UNL d   1      14.257  14.882  -4.108  0.00  0.00     0.043 A 
ATOM      8  C   UNL d   1      13.734  15.476  -5.303  0.00  0.00     0.024 A 
ATOM      9  C   UNL d   1      13.253  14.816  -5.416  0.00  0.00     0.010 A 
ENDROOT
BRANCH   1  10
ATOM     10  S   UNL d   1      12.869  12.314  -3.896  0.00  0.00    -0.059 SA
BRANCH  10  11
ATOM     11  C   UNL d   1      13.404  11.795  -3.557  0.00  0.00     0.059 C 
BRANCH  11  12
ATOM     12  C   UNL d   1      13.517  11.793  -2.731  0.00  0.00     0.112 A 
ATOM     13  C   UNL d   1      14.269  11.795  -2.356  0.00  0.00     0.119 A 
ATOM     14  N   UNL d   1      14.105  11.792  -1.541  0.00  0.00    -0.284 N 
ATOM     15 BR   UNL d   1      15.005  11.798  -2.732  0.00  0.00    -0.028 Br
ATOM     16  C   UNL d   1      13.294  11.789  -1.430  0.00  0.00     0.148 A 
ATOM     17  C   UNL d   1      14.614  11.792  -0.899  0.00  0.00     0.082 A 
ATOM     18  N   UNL d   1      12.936  11.789  -2.173  0.00  0.00    -0.226 NA
ATOM     19  C   UNL d   1      12.973  11.786  -0.674  0.00  0.00     0.037 A 
ATOM     20  C   UNL d   1      13.486  11.786  -0.029  0.00  0.00     0.005 A 
ATOM     21  C   UNL d   1      14.297  11.789  -0.140  0.00  0.00     0.019 A 
ENDBRANCH  11  12
ENDBRANCH  10  11
ENDBRANCH   1  10
BRANCH   5  22
ATOM     22  N   UNL d   1      14.732  16.192  -4.533  0.00  0.00    -0.114 N 
ATOM     23  O   UNL d   1      14.909  16.705  -5.156  0.00  0.00    -0.532 OA
ATOM     24  O   UNL d   1      15.041  16.332  -3.780  0.00  0.00    -0.532 OA
ENDBRANCH   5  22
TORSDOF 4
ENDMDL
