MODEL 1
REMARK VINA RESULT:      73.8      0.000      0.000
REMARK  9 active torsions:
REMARK  status: ('A' for Active; 'I' for Inactive)
REMARK    1  A    between atoms: C_6  and  N_1 
REMARK    2  A    between atoms: C_7  and  C_2 
REMARK    3  A    between atoms: C_3  and  C_9 
REMARK    4  A    between atoms: O_5  and  C_3 
REMARK    5  A    between atoms: C_4  and  O_5 
REMARK    6  A    between atoms: C_8  and  C_7 
REMARK    7  A    between atoms: C_12  and  C_8 
REMARK    8  A    between atoms: C_10  and  C_12 
REMARK    9  A    between atoms: O_25  and  C_23 
ROOT
ATOM      1  C   UNL d   1     -47.841  30.022  35.270  0.00  0.00     0.064 A 
ATOM      2  C   UNL d   1     -48.064  29.239  35.404  0.00  0.00     0.106 A 
ATOM      3  C   UNL d   1     -47.297  30.388  35.781  0.00  0.00     0.029 A 
ATOM      4  C   UNL d   1     -47.745  28.822  36.048  0.00  0.00     0.027 A 
ATOM      5  C   UNL d   1     -46.983  29.972  36.417  0.00  0.00     0.094 A 
ATOM      6  C   UNL d   1     -47.207  29.189  36.551  0.00  0.00     0.026 A 
ENDROOT
BRANCH   2   7
ATOM      7  O   UNL d   1     -48.604  28.868  34.902  0.00  0.00    -0.273 OA
BRANCH   7   8
ATOM      8  C   UNL d   1     -48.927  28.139  35.113  0.00  0.00     0.300 C 
ATOM      9  O   UNL d   1     -48.910  27.889  35.895  0.00  0.00    -0.259 OA
BRANCH   8  10
ATOM     10  C   UNL d   1     -49.266  27.663  34.534  0.00  0.00     0.065 A 
ATOM     11  C   UNL d   1     -50.076  27.529  34.541  0.00  0.00     0.029 A 
ATOM     12  C   UNL d   1     -50.422  27.056  33.968  0.00  0.00     0.127 A 
ATOM     13  C   UNL d   1     -49.956  26.709  33.376  0.00  0.00     0.024 A 
ATOM     14  C   UNL d   1     -49.143  26.847  33.372  0.00  0.00     0.002 A 
ATOM     15  C   UNL d   1     -48.794  27.324  33.952  0.00  0.00     0.005 A 
BRANCH  12  16
ATOM     16  N   UNL d   1     -51.243  26.917  33.972  0.00  0.00    -0.114 N 
ATOM     17  O   UNL d   1     -51.699  27.119  33.321  0.00  0.00    -0.532 OA
ATOM     18  O   UNL d   1     -51.588  26.574  34.642  0.00  0.00    -0.532 OA
ENDBRANCH  12  16
ENDBRANCH   8  10
ENDBRANCH   7   8
ENDBRANCH   2   7
BRANCH   1  19
ATOM     19  C   UNL d   1     -48.158  30.437  34.630  0.00  0.00     0.198 C 
ATOM     20  O   UNL d   1     -48.650  30.051  34.092  0.00  0.00    -0.286 OA
BRANCH  19  21
ATOM     21  C   UNL d   1     -47.983  31.235  34.529  0.00  0.00     0.043 C 
BRANCH  21  22
ATOM     22  C   UNL d   1     -48.189  31.615  33.828  0.00  0.00     0.010 C 
BRANCH  22  23
ATOM     23  C   UNL d   1     -47.916  32.376  33.678  0.00  0.00     0.030 A 
ATOM     24  S   UNL d   1     -48.374  33.037  33.493  0.00  0.00    -0.086 SA
ATOM     25  C   UNL d   1     -47.874  33.684  33.387  0.00  0.00     0.035 A 
ATOM     26  C   UNL d   1     -47.100  33.429  33.506  0.00  0.00     0.007 A 
ATOM     27  C   UNL d   1     -47.124  32.622  33.686  0.00  0.00     0.007 A 
ENDBRANCH  22  23
ENDBRANCH  21  22
ENDBRANCH  19  21
ENDBRANCH   1  19
BRANCH   5  28
ATOM     28  O   UNL d   1     -46.444  30.338  36.921  0.00  0.00    -0.328 OA
ATOM     29  C   UNL d   1     -46.701  30.655  37.636  0.00  0.00     0.181 C 
ENDBRANCH   5  28
TORSDOF 9
ENDMDL
MODEL 2
REMARK VINA RESULT:      75.2      2.336      5.060
REMARK  9 active torsions:
REMARK  status: ('A' for Active; 'I' for Inactive)
REMARK    1  A    between atoms: C_6  and  N_1 
REMARK    2  A    between atoms: C_7  and  C_2 
REMARK    3  A    between atoms: C_3  and  C_9 
REMARK    4  A    between atoms: O_5  and  C_3 
REMARK    5  A    between atoms: C_4  and  O_5 
REMARK    6  A    between atoms: C_8  and  C_7 
REMARK    7  A    between atoms: C_12  and  C_8 
REMARK    8  A    between atoms: C_10  and  C_12 
REMARK    9  A    between atoms: O_25  and  C_23 
ROOT
ATOM      1  C   UNL d   1     -49.447  27.627  35.764  0.00  0.00     0.064 A 
ATOM      2  C   UNL d   1     -49.073  28.284  36.093  0.00  0.00     0.106 A 
ATOM      3  C   UNL d   1     -49.947  27.159  36.234  0.00  0.00     0.029 A 
ATOM      4  C   UNL d   1     -49.200  28.475  36.892  0.00  0.00     0.027 A 
ATOM      5  C   UNL d   1     -50.071  27.351  37.025  0.00  0.00     0.094 A 
ATOM      6  C   UNL d   1     -49.697  28.009  37.354  0.00  0.00     0.026 A 
ENDROOT
BRANCH   2   7
ATOM      7  O   UNL d   1     -48.574  28.754  35.634  0.00  0.00    -0.273 OA
BRANCH   7   8
ATOM      8  C   UNL d   1     -48.079  29.305  35.997  0.00  0.00     0.300 C 
ATOM      9  O   UNL d   1     -48.022  29.335  36.815  0.00  0.00    -0.259 OA
BRANCH   8  10
ATOM     10  C   UNL d   1     -47.641  29.825  35.533  0.00  0.00     0.065 A 
ATOM     11  C   UNL d   1     -47.911  30.591  35.416  0.00  0.00     0.029 A 
ATOM     12  C   UNL d   1     -47.482  31.115  34.955  0.00  0.00     0.127 A 
ATOM     13  C   UNL d   1     -46.770  30.875  34.603  0.00  0.00     0.024 A 
ATOM     14  C   UNL d   1     -46.502  30.104  34.722  0.00  0.00     0.002 A 
ATOM     15  C   UNL d   1     -46.937  29.575  35.188  0.00  0.00     0.005 A 
BRANCH  12  16
ATOM     16  N   UNL d   1     -47.752  31.893  34.834  0.00  0.00    -0.114 N 
ATOM     17  O   UNL d   1     -48.405  32.035  34.359  0.00  0.00    -0.532 OA
ATOM     18  O   UNL d   1     -47.350  32.518  35.201  0.00  0.00    -0.532 OA
ENDBRANCH  12  16
ENDBRANCH   8  10
ENDBRANCH   7   8
ENDBRANCH   2   7
BRANCH   1  19
ATOM     19  C   UNL d   1     -49.321  27.436  34.970  0.00  0.00     0.198 C 
ATOM     20  O   UNL d   1     -48.552  27.350  34.684  0.00  0.00    -0.286 OA
BRANCH  19  21
ATOM     21  C   UNL d   1     -49.962  27.333  34.464  0.00  0.00     0.043 C 
BRANCH  21  22
ATOM     22  C   UNL d   1     -49.918  26.784  33.852  0.00  0.00     0.010 C 
BRANCH  22  23
ATOM     23  C   UNL d   1     -50.583  26.349  33.642  0.00  0.00     0.030 A 
ATOM     24  S   UNL d   1     -51.342  26.642  33.506  0.00  0.00    -0.086 SA
ATOM     25  C   UNL d   1     -51.838  26.013  33.310  0.00  0.00     0.035 A 
ATOM     26  C   UNL d   1     -51.389  25.323  33.323  0.00  0.00     0.007 A 
ATOM     27  C   UNL d   1     -50.615  25.528  33.527  0.00  0.00     0.007 A 
ENDBRANCH  22  23
ENDBRANCH  21  22
ENDBRANCH  19  21
ENDBRANCH   1  19
BRANCH   5  28
ATOM     28  O   UNL d   1     -50.568  26.885  37.487  0.00  0.00    -0.328 OA
ATOM     29  C   UNL d   1     -51.370  26.840  37.311  0.00  0.00     0.181 C 
ENDBRANCH   5  28
TORSDOF 9
ENDMDL
