MODEL 1
REMARK VINA RESULT:      -8.0      0.000      0.000
REMARK  2 active torsions:
REMARK  status: ('A' for Active; 'I' for Inactive)
REMARK    1  A    between atoms: C_3  and  C_4 
REMARK       I    between atoms: N_7  and  C_3 
REMARK    2  A    between atoms: C_11  and  N_7 
ROOT
ATOM      1  C   UNL d   1     -50.057  13.492  23.329  0.00  0.00     0.300 A 
ATOM      2  O   UNL d   1     -49.312  13.209  23.090  0.00  0.00    -0.268 OA
ATOM      3  C   UNL d   1     -48.701  13.750  22.917  0.00  0.00     0.161 A 
ATOM      4  C   UNL d   1     -50.196  14.305  23.396  0.00  0.00     0.064 A 
ATOM      5  C   UNL d   1     -49.580  14.840  23.222  0.00  0.00     0.007 A 
ATOM      6  C   UNL d   1     -48.837  14.567  22.984  0.00  0.00     0.030 A 
ATOM      7  O   UNL d   1     -50.659  12.959  23.499  0.00  0.00    -0.259 OA
ATOM      8  C   UNL d   1     -49.719  15.654  23.290  0.00  0.00     0.000 A 
ATOM      9  C   UNL d   1     -50.931  14.581  23.632  0.00  0.00     0.005 A 
ATOM     10  C   UNL d   1     -50.462  15.922  23.528  0.00  0.00     0.000 A 
ATOM     11  C   UNL d   1     -51.064  15.388  23.698  0.00  0.00     0.000 A 
ENDROOT
BRANCH   3  12
ATOM     12  C   UNL d   1     -47.966  13.469  22.681  0.00  0.00     0.302 C 
ATOM     13  N   UNL d   1     -47.304  13.590  23.151  0.00  0.00    -0.206 NA
ATOM     14  O   UNL d   1     -47.898  13.063  21.970  0.00  0.00    -0.263 OA
BRANCH  13  15
ATOM     15  C   UNL d   1     -46.574  13.305  22.908  0.00  0.00     0.085 A 
ATOM     16  C   UNL d   1     -46.081  13.762  22.441  0.00  0.00     0.019 A 
ATOM     17  C   UNL d   1     -45.357  13.482  22.198  0.00  0.00     0.002 A 
ATOM     18  C   UNL d   1     -45.108  12.722  22.424  0.00  0.00     0.000 A 
ATOM     19  C   UNL d   1     -45.600  12.259  22.894  0.00  0.00     0.002 A 
ATOM     20  C   UNL d   1     -44.380  12.439  22.181  0.00  0.00     0.000 C 
ATOM     21  C   UNL d   1     -46.340  12.546  23.142  0.00  0.00     0.019 A 
ENDBRANCH  13  15
ENDBRANCH   3  12
TORSDOF 2
ENDMDL
MODEL 2
REMARK VINA RESULT:      -8.0      1.062      1.304
REMARK  2 active torsions:
REMARK  status: ('A' for Active; 'I' for Inactive)
REMARK    1  A    between atoms: C_3  and  C_4 
REMARK       I    between atoms: N_7  and  C_3 
REMARK    2  A    between atoms: C_11  and  N_7 
ROOT
ATOM      1  C   UNL d   1     -50.295  13.700  22.255  0.00  0.00     0.300 A 
ATOM      2  O   UNL d   1     -49.610  13.229  22.288  0.00  0.00    -0.268 OA
ATOM      3  C   UNL d   1     -48.969  13.464  22.766  0.00  0.00     0.161 A 
ATOM      4  C   UNL d   1     -50.344  14.400  22.695  0.00  0.00     0.064 A 
ATOM      5  C   UNL d   1     -49.699  14.629  23.171  0.00  0.00     0.007 A 
ATOM      6  C   UNL d   1     -49.015  14.166  23.208  0.00  0.00     0.030 A 
ATOM      7  O   UNL d   1     -50.927  13.468  21.784  0.00  0.00    -0.259 OA
ATOM      8  C   UNL d   1     -49.748  15.330  23.610  0.00  0.00     0.000 A 
ATOM      9  C   UNL d   1     -51.020  14.863  22.661  0.00  0.00     0.005 A 
ATOM     10  C   UNL d   1     -50.433  15.789  23.570  0.00  0.00     0.000 A 
ATOM     11  C   UNL d   1     -51.064  15.557  23.098  0.00  0.00     0.000 A 
ENDROOT
BRANCH   3  12
ATOM     12  C   UNL d   1     -48.294  12.997  22.796  0.00  0.00     0.302 C 
ATOM     13  N   UNL d   1     -48.061  12.648  23.502  0.00  0.00    -0.206 NA
ATOM     14  O   UNL d   1     -47.852  12.881  22.113  0.00  0.00    -0.263 OA
BRANCH  13  15
ATOM     15  C   UNL d   1     -47.386  12.182  23.522  0.00  0.00     0.085 A 
ATOM     16  C   UNL d   1     -46.648  12.510  23.392  0.00  0.00     0.019 A 
ATOM     17  C   UNL d   1     -45.976  12.052  23.412  0.00  0.00     0.002 A 
ATOM     18  C   UNL d   1     -46.034  11.237  23.566  0.00  0.00     0.000 A 
ATOM     19  C   UNL d   1     -46.774  10.903  23.698  0.00  0.00     0.002 A 
ATOM     20  C   UNL d   1     -45.360  10.774  23.587  0.00  0.00     0.000 C 
ATOM     21  C   UNL d   1     -47.460  11.373  23.677  0.00  0.00     0.019 A 
ENDBRANCH  13  15
ENDBRANCH   3  12
TORSDOF 2
ENDMDL
MODEL 3
REMARK VINA RESULT:      -7.3      0.915      4.612
REMARK  2 active torsions:
REMARK  status: ('A' for Active; 'I' for Inactive)
REMARK    1  A    between atoms: C_3  and  C_4 
REMARK       I    between atoms: N_7  and  C_3 
REMARK    2  A    between atoms: C_11  and  N_7 
ROOT
ATOM      1  C   UNL d   1     -46.344  12.058  23.231  0.00  0.00     0.300 A 
ATOM      2  O   UNL d   1     -47.091  12.424  23.215  0.00  0.00    -0.268 OA
ATOM      3  C   UNL d   1     -47.208  13.104  22.746  0.00  0.00     0.161 A 
ATOM      4  C   UNL d   1     -45.717  12.363  22.784  0.00  0.00     0.064 A 
ATOM      5  C   UNL d   1     -45.842  13.043  22.317  0.00  0.00     0.007 A 
ATOM      6  C   UNL d   1     -46.581  13.412  22.296  0.00  0.00     0.030 A 
ATOM      7  O   UNL d   1     -46.228  11.389  23.693  0.00  0.00    -0.259 OA
ATOM      8  C   UNL d   1     -45.214  13.348  21.870  0.00  0.00     0.000 A 
ATOM      9  C   UNL d   1     -44.982  12.001  22.801  0.00  0.00     0.005 A 
ATOM     10  C   UNL d   1     -44.478  12.976  21.894  0.00  0.00     0.000 A 
ATOM     11  C   UNL d   1     -44.363  12.306  22.357  0.00  0.00     0.000 A 
ENDROOT
BRANCH   3  12
ATOM     12  C   UNL d   1     -47.946  13.463  22.732  0.00  0.00     0.302 C 
ATOM     13  N   UNL d   1     -48.101  14.112  23.210  0.00  0.00    -0.206 NA
ATOM     14  O   UNL d   1     -48.530  13.168  22.235  0.00  0.00    -0.263 OA
BRANCH  13  15
ATOM     15  C   UNL d   1     -48.842  14.466  23.190  0.00  0.00     0.085 A 
ATOM     16  C   UNL d   1     -49.474  14.133  23.588  0.00  0.00     0.019 A 
ATOM     17  C   UNL d   1     -50.210  14.481  23.570  0.00  0.00     0.002 A 
ATOM     18  C   UNL d   1     -50.326  15.184  23.143  0.00  0.00     0.000 A 
ATOM     19  C   UNL d   1     -49.693  15.522  22.741  0.00  0.00     0.002 A 
ATOM     20  C   UNL d   1     -51.064  15.535  23.123  0.00  0.00     0.000 C 
ATOM     21  C   UNL d   1     -48.942  15.166  22.760  0.00  0.00     0.019 A 
ENDBRANCH  13  15
ENDBRANCH   3  12
TORSDOF 2
ENDMDL
MODEL 4
REMARK VINA RESULT:      -6.6      1.862      5.002
REMARK  2 active torsions:
REMARK  status: ('A' for Active; 'I' for Inactive)
REMARK    1  A    between atoms: C_3  and  C_4 
REMARK       I    between atoms: N_7  and  C_3 
REMARK    2  A    between atoms: C_11  and  N_7 
ROOT
ATOM      1  C   UNL d   1     -45.007  11.591  23.130  0.00  0.00     0.300 A 
ATOM      2  O   UNL d   1     -45.810  11.711  23.316  0.00  0.00    -0.268 OA
ATOM      3  C   UNL d   1     -46.236  12.319  22.935  0.00  0.00     0.161 A 
ATOM      4  C   UNL d   1     -44.630  12.071  22.571  0.00  0.00     0.064 A 
ATOM      5  C   UNL d   1     -45.062  12.677  22.195  0.00  0.00     0.007 A 
ATOM      6  C   UNL d   1     -45.859  12.802  22.374  0.00  0.00     0.030 A 
ATOM      7  O   UNL d   1     -44.588  10.993  23.505  0.00  0.00    -0.259 OA
ATOM      8  C   UNL d   1     -44.684  13.157  21.635  0.00  0.00     0.000 A 
ATOM      9  C   UNL d   1     -43.839  11.952  22.390  0.00  0.00     0.005 A 
ATOM     10  C   UNL d   1     -43.888  13.029  21.460  0.00  0.00     0.000 A 
ATOM     11  C   UNL d   1     -43.468  12.430  21.835  0.00  0.00     0.000 A 
ENDROOT
BRANCH   3  12
ATOM     12  C   UNL d   1     -47.027  12.434  23.120  0.00  0.00     0.302 C 
ATOM     13  N   UNL d   1     -47.610  11.998  22.741  0.00  0.00    -0.206 NA
ATOM     14  O   UNL d   1     -47.233  12.991  23.689  0.00  0.00    -0.263 OA
BRANCH  13  15
ATOM     15  C   UNL d   1     -48.399  12.120  22.932  0.00  0.00     0.085 A 
ATOM     16  C   UNL d   1     -48.766  11.666  23.505  0.00  0.00     0.019 A 
ATOM     17  C   UNL d   1     -49.548  11.784  23.697  0.00  0.00     0.002 A 
ATOM     18  C   UNL d   1     -49.986  12.374  23.308  0.00  0.00     0.000 A 
ATOM     19  C   UNL d   1     -49.621  12.833  22.731  0.00  0.00     0.002 A 
ATOM     20  C   UNL d   1     -50.772  12.495  23.499  0.00  0.00     0.000 C 
ATOM     21  C   UNL d   1     -48.822  12.711  22.536  0.00  0.00     0.019 A 
ENDBRANCH  13  15
ENDBRANCH   3  12
TORSDOF 2
ENDMDL
MODEL 5
REMARK VINA RESULT:      -6.4      9.159      9.809
REMARK  2 active torsions:
REMARK  status: ('A' for Active; 'I' for Inactive)
REMARK    1  A    between atoms: C_3  and  C_4 
REMARK       I    between atoms: N_7  and  C_3 
REMARK    2  A    between atoms: C_11  and  N_7 
ROOT
ATOM      1  C   UNL d   1     -39.189  15.325  22.197  0.00  0.00     0.300 A 
ATOM      2  O   UNL d   1     -39.389  15.465  21.401  0.00  0.00    -0.268 OA
ATOM      3  C   UNL d   1     -39.287  14.859  20.837  0.00  0.00     0.161 A 
ATOM      4  C   UNL d   1     -38.890  14.590  22.431  0.00  0.00     0.064 A 
ATOM      5  C   UNL d   1     -38.790  13.989  21.862  0.00  0.00     0.007 A 
ATOM      6  C   UNL d   1     -38.987  14.120  21.070  0.00  0.00     0.030 A 
ATOM      7  O   UNL d   1     -39.289  15.922  22.753  0.00  0.00    -0.259 OA
ATOM      8  C   UNL d   1     -38.491  13.253  22.097  0.00  0.00     0.000 A 
ATOM      9  C   UNL d   1     -38.693  14.454  23.216  0.00  0.00     0.005 A 
ATOM     10  C   UNL d   1     -38.296  13.127  22.889  0.00  0.00     0.000 A 
ATOM     11  C   UNL d   1     -38.396  13.724  23.445  0.00  0.00     0.000 A 
ENDROOT
BRANCH   3  12
ATOM     12  C   UNL d   1     -39.486  14.999  20.053  0.00  0.00     0.302 C 
ATOM     13  N   UNL d   1     -40.246  14.846  19.783  0.00  0.00    -0.206 NA
ATOM     14  O   UNL d   1     -38.917  15.296  19.539  0.00  0.00    -0.263 OA
BRANCH  13  15
ATOM     15  C   UNL d   1     -40.435  14.990  18.997  0.00  0.00     0.085 A 
ATOM     16  C   UNL d   1     -40.429  14.384  18.448  0.00  0.00     0.019 A 
ATOM     17  C   UNL d   1     -40.616  14.523  17.668  0.00  0.00     0.002 A 
ATOM     18  C   UNL d   1     -40.818  15.290  17.420  0.00  0.00     0.000 A 
ATOM     19  C   UNL d   1     -40.826  15.903  17.969  0.00  0.00     0.002 A 
ATOM     20  C   UNL d   1     -41.007  15.432  16.637  0.00  0.00     0.000 C 
ATOM     21  C   UNL d   1     -40.634  15.759  18.765  0.00  0.00     0.019 A 
ENDBRANCH  13  15
ENDBRANCH   3  12
TORSDOF 2
ENDMDL
MODEL 6
REMARK VINA RESULT:      -6.1      9.028     10.517
REMARK  2 active torsions:
REMARK  status: ('A' for Active; 'I' for Inactive)
REMARK    1  A    between atoms: C_3  and  C_4 
REMARK       I    between atoms: N_7  and  C_3 
REMARK    2  A    between atoms: C_11  and  N_7 
ROOT
ATOM      1  C   UNL d   1     -39.744  14.457  20.797  0.00  0.00     0.300 A 
ATOM      2  O   UNL d   1     -39.530  14.489  19.993  0.00  0.00    -0.268 OA
ATOM      3  C   UNL d   1     -38.823  14.125  19.740  0.00  0.00     0.161 A 
ATOM      4  C   UNL d   1     -39.262  14.068  21.345  0.00  0.00     0.064 A 
ATOM      5  C   UNL d   1     -38.557  13.707  21.084  0.00  0.00     0.007 A 
ATOM      6  C   UNL d   1     -38.337  13.734  20.288  0.00  0.00     0.030 A 
ATOM      7  O   UNL d   1     -40.441  14.816  21.047  0.00  0.00    -0.259 OA
ATOM      8  C   UNL d   1     -38.074  13.317  21.633  0.00  0.00     0.000 A 
ATOM      9  C   UNL d   1     -39.475  14.038  22.136  0.00  0.00     0.005 A 
ATOM     10  C   UNL d   1     -38.297  13.293  22.427  0.00  0.00     0.000 A 
ATOM     11  C   UNL d   1     -38.994  13.651  22.677  0.00  0.00     0.000 A 
ENDROOT
BRANCH   3  12
ATOM     12  C   UNL d   1     -38.614  14.158  18.946  0.00  0.00     0.302 C 
ATOM     13  N   UNL d   1     -38.953  13.642  18.406  0.00  0.00    -0.206 NA
ATOM     14  O   UNL d   1     -38.062  14.713  18.696  0.00  0.00    -0.263 OA
BRANCH  13  15
ATOM     15  C   UNL d   1     -38.738  13.681  17.615  0.00  0.00     0.085 A 
ATOM     16  C   UNL d   1     -39.092  14.221  17.112  0.00  0.00     0.019 A 
ATOM     17  C   UNL d   1     -38.881  14.263  16.327  0.00  0.00     0.002 A 
ATOM     18  C   UNL d   1     -38.299  13.753  16.026  0.00  0.00     0.000 A 
ATOM     19  C   UNL d   1     -37.940  13.208  16.528  0.00  0.00     0.002 A 
ATOM     20  C   UNL d   1     -38.085  13.793  15.237  0.00  0.00     0.000 C 
ATOM     21  C   UNL d   1     -38.156  13.166  17.329  0.00  0.00     0.019 A 
ENDBRANCH  13  15
ENDBRANCH   3  12
TORSDOF 2
ENDMDL
