MODEL 1
REMARK VINA RESULT:       1.7      0.000      0.000
REMARK  6 active torsions:
REMARK  status: ('A' for Active; 'I' for Inactive)
REMARK    1  A    between atoms: C_11  and  N_3 
REMARK    2  A    between atoms: C_10  and  C_7 
REMARK       I    between atoms: N_19  and  C_10 
REMARK    3  A    between atoms: C_21  and  C_11 
REMARK    4  A    between atoms: N_15  and  C_23 
REMARK    5  A    between atoms: C_22  and  N_19 
REMARK    6  A    between atoms: C_23  and  C_22 
ROOT
ATOM      1  C   UNL d   1      30.750  17.576 -24.473  0.00  0.00     0.154 A 
ATOM      2  C   UNL d   1      30.284  18.082 -24.018  0.00  0.00     0.093 A 
ATOM      3  N   UNL d   1      31.521  17.872 -24.466  0.00  0.00    -0.286 N 
ATOM      4  N   UNL d   1      30.413  16.916 -24.832  0.00  0.00    -0.210 NA
ATOM      5  C   UNL d   1      29.481  17.928 -23.922  0.00  0.00     0.269 A 
ATOM      6  N   UNL d   1      29.144  17.268 -24.281  0.00  0.00    -0.258 N 
ATOM      7  C   UNL d   1      31.534  18.554 -24.011  0.00  0.00     0.124 A 
ATOM      8  C   UNL d   1      29.610  16.762 -24.736  0.00  0.00     0.152 A 
ATOM      9  C   UNL d   1      30.770  18.688 -23.732  0.00  0.00     0.030 A 
ATOM     10  C   UNL d   1      28.341  17.114 -24.184  0.00  0.00     0.084 A 
ATOM     11  O   UNL d   1      29.015  18.434 -23.467  0.00  0.00    -0.266 OA
ATOM     12  C   UNL d   1      29.273  16.102 -25.095  0.00  0.00     0.038 A 
ATOM     13  C   UNL d   1      28.000  16.452 -24.544  0.00  0.00     0.019 A 
ATOM     14  C   UNL d   1      28.466  15.946 -24.999  0.00  0.00     0.005 A 
ENDROOT
BRANCH   7  15
ATOM     15  C   UNL d   1      32.198  19.020 -23.864  0.00  0.00     0.295 C 
ATOM     16  O   UNL d   1      32.799  19.082 -24.422  0.00  0.00    -0.264 OA
ATOM     17  N   UNL d   1      32.255  19.428 -23.143  0.00  0.00    -0.204 NA
BRANCH  17  18
ATOM     18  C   UNL d   1      32.920  19.899 -22.987  0.00  0.00     0.121 C 
BRANCH  18  19
ATOM     19  C   UNL d   1      33.224  19.943 -22.224  0.00  0.00     0.101 C 
BRANCH  19  20
ATOM     20  N   UNL d   1      33.161  20.644 -21.794  0.00  0.00    -0.298 N 
ATOM     21  C   UNL d   1      33.029  21.361 -22.190  0.00  0.00     0.107 A 
ATOM     22  C   UNL d   1      32.966  22.069 -21.755  0.00  0.00     0.142 A 
ATOM     23  O   UNL d   1      33.035  22.053 -20.929  0.00  0.00    -0.300 OA
ATOM     24  C   UNL d   1      33.166  21.340 -20.538  0.00  0.00     0.142 A 
ATOM     25  C   UNL d   1      33.230  20.632 -20.972  0.00  0.00     0.107 A 
ENDBRANCH  19  20
ENDBRANCH  18  19
ENDBRANCH  17  18
ENDBRANCH   7  15
BRANCH   3  26
ATOM     26  C   UNL d   1      32.167  17.532 -24.855  0.00  0.00     0.082 C 
BRANCH  26  27
ATOM     27  C   UNL d   1      32.507  16.839 -24.569  0.00  0.00     0.018 A 
ATOM     28  C   UNL d   1      32.577  16.714 -23.760  0.00  0.00     0.002 A 
ATOM     29  C   UNL d   1      32.913  16.029 -23.477  0.00  0.00     0.000 A 
ATOM     30  C   UNL d   1      33.188  15.453 -24.000  0.00  0.00     0.000 A 
ATOM     31  C   UNL d   1      33.123  15.568 -24.808  0.00  0.00     0.000 A 
ATOM     32  C   UNL d   1      32.782  16.261 -25.093  0.00  0.00     0.002 A 
ENDBRANCH  26  27
ENDBRANCH   3  26
TORSDOF 6
ENDMDL
MODEL 2
REMARK VINA RESULT:       2.2      1.719      5.886
REMARK  6 active torsions:
REMARK  status: ('A' for Active; 'I' for Inactive)
REMARK    1  A    between atoms: C_11  and  N_3 
REMARK    2  A    between atoms: C_10  and  C_7 
REMARK       I    between atoms: N_19  and  C_10 
REMARK    3  A    between atoms: C_21  and  C_11 
REMARK    4  A    between atoms: N_15  and  C_23 
REMARK    5  A    between atoms: C_22  and  N_19 
REMARK    6  A    between atoms: C_23  and  C_22 
ROOT
ATOM      1  C   UNL d   1      32.885  21.453 -22.412  0.00  0.00     0.154 A 
ATOM      2  C   UNL d   1      32.578  20.935 -21.847  0.00  0.00     0.093 A 
ATOM      3  N   UNL d   1      32.954  21.036 -23.122  0.00  0.00    -0.286 N 
ATOM      4  N   UNL d   1      33.062  22.230 -22.207  0.00  0.00    -0.210 NA
ATOM      5  C   UNL d   1      32.447  21.196 -21.078  0.00  0.00     0.269 A 
ATOM      6  N   UNL d   1      32.623  21.973 -20.872  0.00  0.00    -0.258 N 
ATOM      7  C   UNL d   1      32.692  20.269 -23.000  0.00  0.00     0.124 A 
ATOM      8  C   UNL d   1      32.930  22.490 -21.436  0.00  0.00     0.152 A 
ATOM      9  C   UNL d   1      32.458  20.202 -22.213  0.00  0.00     0.030 A 
ATOM     10  C   UNL d   1      32.492  22.233 -20.102  0.00  0.00     0.084 A 
ATOM     11  O   UNL d   1      32.139  20.678 -20.514  0.00  0.00    -0.266 OA
ATOM     12  C   UNL d   1      33.107  23.268 -21.231  0.00  0.00     0.038 A 
ATOM     13  C   UNL d   1      32.668  23.014 -19.893  0.00  0.00     0.019 A 
ATOM     14  C   UNL d   1      32.975  23.531 -20.457  0.00  0.00     0.005 A 
ENDROOT
BRANCH   7  15
ATOM     15  C   UNL d   1      32.669  19.673 -23.571  0.00  0.00     0.295 C 
ATOM     16  O   UNL d   1      33.222  19.654 -24.179  0.00  0.00    -0.264 OA
ATOM     17  N   UNL d   1      32.079  19.091 -23.524  0.00  0.00    -0.204 NA
BRANCH  17  18
ATOM     18  C   UNL d   1      32.049  18.488 -24.094  0.00  0.00     0.121 C 
BRANCH  18  19
ATOM     19  C   UNL d   1      32.245  17.717 -23.889  0.00  0.00     0.101 C 
BRANCH  19  20
ATOM     20  N   UNL d   1      31.750  17.093 -24.104  0.00  0.00    -0.298 N 
ATOM     21  C   UNL d   1      31.257  17.167 -24.767  0.00  0.00     0.107 A 
ATOM     22  C   UNL d   1      30.756  16.537 -24.984  0.00  0.00     0.142 A 
ATOM     23  O   UNL d   1      30.754  15.840 -24.536  0.00  0.00    -0.300 OA
ATOM     24  C   UNL d   1      31.244  15.768 -23.878  0.00  0.00     0.142 A 
ATOM     25  C   UNL d   1      31.745  16.398 -23.661  0.00  0.00     0.107 A 
ENDBRANCH  19  20
ENDBRANCH  18  19
ENDBRANCH  17  18
ENDBRANCH   7  15
BRANCH   3  26
ATOM     26  C   UNL d   1      33.240  21.348 -23.832  0.00  0.00     0.082 C 
BRANCH  26  27
ATOM     27  C   UNL d   1      32.858  21.981 -24.193  0.00  0.00     0.018 A 
ATOM     28  C   UNL d   1      32.106  21.886 -24.510  0.00  0.00     0.002 A 
ATOM     29  C   UNL d   1      31.728  22.512 -24.867  0.00  0.00     0.000 A 
ATOM     30  C   UNL d   1      32.096  23.249 -24.915  0.00  0.00     0.000 A 
ATOM     31  C   UNL d   1      32.845  23.354 -24.602  0.00  0.00     0.000 A 
ATOM     32  C   UNL d   1      33.227  22.720 -24.241  0.00  0.00     0.002 A 
ENDBRANCH  26  27
ENDBRANCH   3  26
TORSDOF 6
ENDMDL
MODEL 3
REMARK VINA RESULT:       4.4      1.973      6.424
REMARK  6 active torsions:
REMARK  status: ('A' for Active; 'I' for Inactive)
REMARK    1  A    between atoms: C_11  and  N_3 
REMARK    2  A    between atoms: C_10  and  C_7 
REMARK       I    between atoms: N_19  and  C_10 
REMARK    3  A    between atoms: C_21  and  C_11 
REMARK    4  A    between atoms: N_15  and  C_23 
REMARK    5  A    between atoms: C_22  and  N_19 
REMARK    6  A    between atoms: C_23  and  C_22 
ROOT
ATOM      1  C   UNL d   1      33.056  21.943 -20.984  0.00  0.00     0.154 A 
ATOM      2  C   UNL d   1      32.896  21.278 -20.522  0.00  0.00     0.093 A 
ATOM      3  N   UNL d   1      33.091  21.697 -21.772  0.00  0.00    -0.286 N 
ATOM      4  N   UNL d   1      33.147  22.680 -20.628  0.00  0.00    -0.210 NA
ATOM      5  C   UNL d   1      32.828  21.349 -19.706  0.00  0.00     0.269 A 
ATOM      6  N   UNL d   1      32.919  22.086 -19.349  0.00  0.00    -0.258 N 
ATOM      7  C   UNL d   1      32.956  20.890 -21.800  0.00  0.00     0.124 A 
ATOM      8  C   UNL d   1      33.078  22.751 -19.810  0.00  0.00     0.152 A 
ATOM      9  C   UNL d   1      32.835  20.626 -21.029  0.00  0.00     0.030 A 
ATOM     10  C   UNL d   1      32.851  22.158 -18.532  0.00  0.00     0.084 A 
ATOM     11  O   UNL d   1      32.669  20.684 -19.244  0.00  0.00    -0.266 OA
ATOM     12  C   UNL d   1      33.170  23.488 -19.455  0.00  0.00     0.038 A 
ATOM     13  C   UNL d   1      32.942  22.897 -18.172  0.00  0.00     0.019 A 
ATOM     14  C   UNL d   1      33.101  23.562 -18.634  0.00  0.00     0.005 A 
ENDROOT
BRANCH   7  15
ATOM     15  C   UNL d   1      32.944  20.428 -22.484  0.00  0.00     0.295 C 
ATOM     16  O   UNL d   1      32.952  20.780 -23.227  0.00  0.00    -0.264 OA
ATOM     17  N   UNL d   1      32.924  19.601 -22.413  0.00  0.00    -0.204 NA
BRANCH  17  18
ATOM     18  C   UNL d   1      32.912  19.130 -23.097  0.00  0.00     0.121 C 
BRANCH  18  19
ATOM     19  C   UNL d   1      32.219  18.750 -23.324  0.00  0.00     0.101 C 
BRANCH  19  20
ATOM     20  N   UNL d   1      32.254  18.049 -23.757  0.00  0.00    -0.298 N 
ATOM     21  C   UNL d   1      31.884  18.004 -24.499  0.00  0.00     0.107 A 
ATOM     22  C   UNL d   1      31.920  17.296 -24.937  0.00  0.00     0.142 A 
ATOM     23  O   UNL d   1      32.325  16.641 -24.629  0.00  0.00    -0.300 OA
ATOM     24  C   UNL d   1      32.691  16.689 -23.893  0.00  0.00     0.142 A 
ATOM     25  C   UNL d   1      32.655  17.396 -23.455  0.00  0.00     0.107 A 
ENDBRANCH  19  20
ENDBRANCH  18  19
ENDBRANCH  17  18
ENDBRANCH   7  15
BRANCH   3  26
ATOM     26  C   UNL d   1      33.239  22.191 -22.419  0.00  0.00     0.082 C 
BRANCH  26  27
ATOM     27  C   UNL d   1      32.653  22.694 -22.702  0.00  0.00     0.018 A 
ATOM     28  C   UNL d   1      32.681  22.968 -23.477  0.00  0.00     0.002 A 
ATOM     29  C   UNL d   1      32.102  23.465 -23.758  0.00  0.00     0.000 A 
ATOM     30  C   UNL d   1      31.481  23.702 -23.268  0.00  0.00     0.000 A 
ATOM     31  C   UNL d   1      31.446  23.434 -22.495  0.00  0.00     0.000 A 
ATOM     32  C   UNL d   1      32.031  22.931 -22.212  0.00  0.00     0.002 A 
ENDBRANCH  26  27
ENDBRANCH   3  26
TORSDOF 6
ENDMDL
