MODEL 1
REMARK VINA RESULT:      29.0      0.000      0.000
REMARK  3 active torsions:
REMARK  status: ('A' for Active; 'I' for Inactive)
REMARK    1  A    between atoms: C_15  and  N_5 
REMARK    2  A    between atoms: C_21  and  C_15 
REMARK    3  A    between atoms: O_20  and  C_21 
ROOT
ATOM      1  C   UNL d   1      23.898  12.718  -2.170  0.00  0.00     0.137 A 
ATOM      2  C   UNL d   1      24.438  12.094  -2.157  0.00  0.00     0.192 A 
ATOM      3  C   UNL d   1      23.606  13.030  -1.475  0.00  0.00     0.272 A 
ATOM      4  N   UNL d   1      24.687  11.780  -1.437  0.00  0.00    -0.204 NA
ATOM      5  N   UNL d   1      23.858  12.713  -0.741  0.00  0.00    -0.256 N 
ATOM      6  C   UNL d   1      23.648  13.034  -2.891  0.00  0.00     0.205 A 
ATOM      7  C   UNL d   1      24.392  12.095  -0.734  0.00  0.00     0.152 A 
ATOM      8  C   UNL d   1      23.939  12.725  -3.598  0.00  0.00     0.062 A 
ATOM      9  O   UNL d   1      24.723  11.791  -2.869  0.00  0.00    -0.289 OA
ATOM     10  C   UNL d   1      24.478  12.100  -3.585  0.00  0.00     0.105 A 
ATOM     11  O   UNL d   1      23.067  13.654  -1.489  0.00  0.00    -0.266 OA
ATOM     12  O   UNL d   1      23.112  13.654  -2.912  0.00  0.00    -0.286 OA
ATOM     13  C   UNL d   1      23.687  13.042  -4.315  0.00  0.00     0.012 A 
ATOM     14  C   UNL d   1      24.767  11.793  -4.288  0.00  0.00     0.025 A 
ATOM     15  C   UNL d   1      23.979  12.731  -5.027  0.00  0.00     0.035 A 
ATOM     16  C   UNL d   1      24.639  11.783  -0.015  0.00  0.00     0.041 C 
ATOM     17  C   UNL d   1      24.517  12.108  -5.010  0.00  0.00     0.009 A 
ATOM     18 BR   UNL d   1      23.727  13.049  -5.759  0.00  0.00    -0.049 Br
ENDROOT
BRANCH   5  19
ATOM     19  C   UNL d   1      23.566  13.023  -0.030  0.00  0.00     0.111 C 
BRANCH  19  20
ATOM     20  C   UNL d   1      22.928  13.546  -0.040  0.00  0.00     0.135 C 
BRANCH  20  21
ATOM     21  O   UNL d   1      22.156  13.254  -0.027  0.00  0.00    -0.325 OA
ATOM     22  C   UNL d   1      21.518  13.777  -0.015  0.00  0.00     0.182 C 
ENDBRANCH  20  21
ENDBRANCH  19  20
ENDBRANCH   5  19
TORSDOF 3
ENDMDL
