MODEL 1
REMARK VINA RESULT:     -10.2      0.000      0.000
REMARK  2 active torsions:
REMARK  status: ('A' for Active; 'I' for Inactive)
REMARK    1  A    between atoms: C_7  and  C_1 
REMARK    2  A    between atoms: C_5  and  C_3 
ROOT
ATOM      1  C   UNL d   1      53.501  32.448  53.787  0.00  0.00     0.067 A 
ATOM      2  N   UNL d   1      52.209  32.048  52.840  0.00  0.00    -0.244 NA
ATOM      3  C   UNL d   1      52.323  32.833  53.061  0.00  0.00     0.104 A 
ATOM      4  C   UNL d   1      52.967  33.035  53.534  0.00  0.00     0.027 A 
ATOM      5  C   UNL d   1      53.385  31.663  53.565  0.00  0.00     0.024 A 
ATOM      6  C   UNL d   1      52.742  31.461  53.093  0.00  0.00     0.082 A 
ATOM      7  C   UNL d   1      53.913  31.081  53.816  0.00  0.00     0.002 A 
ATOM      8  C   UNL d   1      52.622  30.671  52.867  0.00  0.00     0.019 A 
ATOM      9  C   UNL d   1      53.799  30.296  53.594  0.00  0.00     0.000 A 
ATOM     10  C   UNL d   1      53.150  30.089  53.118  0.00  0.00     0.002 A 
ENDROOT
BRANCH   3  11
ATOM     11  C   UNL d   1      51.793  33.418  52.810  0.00  0.00     0.118 A 
ATOM     12  O   UNL d   1      51.831  33.889  52.133  0.00  0.00    -0.304 OA
ATOM     13  C   UNL d   1      51.170  34.383  52.138  0.00  0.00     0.123 A 
ATOM     14  C   UNL d   1      50.732  34.219  52.804  0.00  0.00     0.029 A 
ATOM     15  C   UNL d   1      51.119  33.621  53.220  0.00  0.00     0.028 A 
ENDBRANCH   3  11
BRANCH   1  16
ATOM     16  C   UNL d   1      54.153  32.655  54.267  0.00  0.00     0.211 C 
ATOM     17  O   UNL d   1      54.863  32.879  53.910  0.00  0.00    -0.644 OA
ATOM     18  O   UNL d   1      54.086  32.636  55.090  0.00  0.00    -0.644 OA
ENDBRANCH   1  16
TORSDOF 2
ENDMDL
MODEL 2
REMARK VINA RESULT:     -10.1      1.201      3.014
REMARK  2 active torsions:
REMARK  status: ('A' for Active; 'I' for Inactive)
REMARK    1  A    between atoms: C_7  and  C_1 
REMARK    2  A    between atoms: C_5  and  C_3 
ROOT
ATOM      1  C   UNL d   1      53.920  33.047  54.330  0.00  0.00     0.067 A 
ATOM      2  N   UNL d   1      52.710  32.661  53.276  0.00  0.00    -0.244 NA
ATOM      3  C   UNL d   1      53.218  32.072  53.545  0.00  0.00     0.104 A 
ATOM      4  C   UNL d   1      53.823  32.261  54.071  0.00  0.00     0.027 A 
ATOM      5  C   UNL d   1      53.412  33.636  54.061  0.00  0.00     0.024 A 
ATOM      6  C   UNL d   1      52.807  33.447  53.535  0.00  0.00     0.082 A 
ATOM      7  C   UNL d   1      53.508  34.414  54.318  0.00  0.00     0.002 A 
ATOM      8  C   UNL d   1      52.292  34.038  53.261  0.00  0.00     0.019 A 
ATOM      9  C   UNL d   1      53.000  35.003  54.049  0.00  0.00     0.000 A 
ATOM     10  C   UNL d   1      52.389  34.816  53.518  0.00  0.00     0.002 A 
ENDROOT
BRANCH   3  11
ATOM     11  C   UNL d   1      53.121  31.290  53.287  0.00  0.00     0.118 A 
ATOM     12  O   UNL d   1      52.866  31.021  52.550  0.00  0.00    -0.304 OA
ATOM     13  C   UNL d   1      52.865  30.195  52.575  0.00  0.00     0.123 A 
ATOM     14  C   UNL d   1      53.116  29.961  53.313  0.00  0.00     0.029 A 
ATOM     15  C   UNL d   1      53.274  30.640  53.754  0.00  0.00     0.028 A 
ENDBRANCH   3  11
BRANCH   1  16
ATOM     16  C   UNL d   1      54.535  33.237  54.865  0.00  0.00     0.211 C 
ATOM     17  O   UNL d   1      54.402  33.166  55.676  0.00  0.00    -0.644 OA
ATOM     18  O   UNL d   1      55.268  33.493  54.580  0.00  0.00    -0.644 OA
ENDBRANCH   1  16
TORSDOF 2
ENDMDL
MODEL 3
REMARK VINA RESULT:      -9.8      1.085      2.787
REMARK  2 active torsions:
REMARK  status: ('A' for Active; 'I' for Inactive)
REMARK    1  A    between atoms: C_7  and  C_1 
REMARK    2  A    between atoms: C_5  and  C_3 
ROOT
ATOM      1  C   UNL d   1      52.815  32.448  53.321  0.00  0.00     0.067 A 
ATOM      2  N   UNL d   1      54.103  31.796  54.121  0.00  0.00    -0.244 NA
ATOM      3  C   UNL d   1      53.976  32.608  54.150  0.00  0.00     0.104 A 
ATOM      4  C   UNL d   1      53.334  32.937  53.752  0.00  0.00     0.027 A 
ATOM      5  C   UNL d   1      52.944  31.635  53.292  0.00  0.00     0.024 A 
ATOM      6  C   UNL d   1      53.585  31.307  53.690  0.00  0.00     0.082 A 
ATOM      7  C   UNL d   1      52.430  31.151  52.865  0.00  0.00     0.002 A 
ATOM      8  C   UNL d   1      53.717  30.488  53.663  0.00  0.00     0.019 A 
ATOM      9  C   UNL d   1      52.557  30.338  52.836  0.00  0.00     0.000 A 
ATOM     10  C   UNL d   1      53.204  30.003  53.236  0.00  0.00     0.002 A 
ENDROOT
BRANCH   3  11
ATOM     11  C   UNL d   1      54.492  33.095  54.579  0.00  0.00     0.118 A 
ATOM     12  O   UNL d   1      55.192  33.450  54.325  0.00  0.00    -0.304 OA
ATOM     13  C   UNL d   1      55.498  33.878  54.962  0.00  0.00     0.123 A 
ATOM     14  C   UNL d   1      54.995  33.788  55.596  0.00  0.00     0.029 A 
ATOM     15  C   UNL d   1      54.372  33.303  55.357  0.00  0.00     0.028 A 
ENDBRANCH   3  11
BRANCH   1  16
ATOM     16  C   UNL d   1      52.164  32.784  52.917  0.00  0.00     0.211 C 
ATOM     17  O   UNL d   1      52.263  33.053  52.144  0.00  0.00    -0.644 OA
ATOM     18  O   UNL d   1      51.430  32.844  53.292  0.00  0.00    -0.644 OA
ENDBRANCH   1  16
TORSDOF 2
ENDMDL
MODEL 4
REMARK VINA RESULT:      -9.7      1.225      2.213
REMARK  2 active torsions:
REMARK  status: ('A' for Active; 'I' for Inactive)
REMARK    1  A    between atoms: C_7  and  C_1 
REMARK    2  A    between atoms: C_5  and  C_3 
ROOT
ATOM      1  C   UNL d   1      53.339  32.522  53.767  0.00  0.00     0.067 A 
ATOM      2  N   UNL d   1      52.702  34.018  54.052  0.00  0.00    -0.244 NA
ATOM      3  C   UNL d   1      52.320  33.506  53.532  0.00  0.00     0.104 A 
ATOM      4  C   UNL d   1      52.636  32.759  53.388  0.00  0.00     0.027 A 
ATOM      5  C   UNL d   1      53.720  33.035  54.286  0.00  0.00     0.024 A 
ATOM      6  C   UNL d   1      53.405  33.781  54.431  0.00  0.00     0.082 A 
ATOM      7  C   UNL d   1      54.416  32.801  54.661  0.00  0.00     0.002 A 
ATOM      8  C   UNL d   1      53.786  34.301  54.954  0.00  0.00     0.019 A 
ATOM      9  C   UNL d   1      54.798  33.312  55.181  0.00  0.00     0.000 A 
ATOM     10  C   UNL d   1      54.483  34.067  55.329  0.00  0.00     0.002 A 
ENDROOT
BRANCH   3  11
ATOM     11  C   UNL d   1      51.621  33.742  53.155  0.00  0.00     0.118 A 
ATOM     12  O   UNL d   1      50.841  33.618  53.396  0.00  0.00    -0.304 OA
ATOM     13  C   UNL d   1      50.349  33.960  52.828  0.00  0.00     0.123 A 
ATOM     14  C   UNL d   1      50.817  34.290  52.249  0.00  0.00     0.029 A 
ATOM     15  C   UNL d   1      51.605  34.154  52.453  0.00  0.00     0.028 A 
ENDBRANCH   3  11
BRANCH   1  16
ATOM     16  C   UNL d   1      53.657  31.763  53.618  0.00  0.00     0.211 C 
ATOM     17  O   UNL d   1      54.217  31.669  53.020  0.00  0.00    -0.644 OA
ATOM     18  O   UNL d   1      53.411  31.115  54.069  0.00  0.00    -0.644 OA
ENDBRANCH   1  16
TORSDOF 2
ENDMDL
MODEL 5
REMARK VINA RESULT:      -9.6      1.344      3.472
REMARK  2 active torsions:
REMARK  status: ('A' for Active; 'I' for Inactive)
REMARK    1  A    between atoms: C_7  and  C_1 
REMARK    2  A    between atoms: C_5  and  C_3 
ROOT
ATOM      1  C   UNL d   1      52.028  33.584  53.001  0.00  0.00     0.067 A 
ATOM      2  N   UNL d   1      53.274  32.834  53.783  0.00  0.00    -0.244 NA
ATOM      3  C   UNL d   1      52.789  32.399  53.280  0.00  0.00     0.104 A 
ATOM      4  C   UNL d   1      52.166  32.770  52.889  0.00  0.00     0.027 A 
ATOM      5  C   UNL d   1      52.514  34.018  53.505  0.00  0.00     0.024 A 
ATOM      6  C   UNL d   1      53.136  33.648  53.896  0.00  0.00     0.082 A 
ATOM      7  C   UNL d   1      52.377  34.824  53.616  0.00  0.00     0.002 A 
ATOM      8  C   UNL d   1      53.627  34.083  54.404  0.00  0.00     0.019 A 
ATOM      9  C   UNL d   1      52.862  35.260  54.119  0.00  0.00     0.000 A 
ATOM     10  C   UNL d   1      53.491  34.889  54.516  0.00  0.00     0.002 A 
ENDROOT
BRANCH   3  11
ATOM     11  C   UNL d   1      52.926  31.589  53.168  0.00  0.00     0.118 A 
ATOM     12  O   UNL d   1      52.682  31.109  52.544  0.00  0.00    -0.304 OA
ATOM     13  C   UNL d   1      52.961  30.346  52.694  0.00  0.00     0.123 A 
ATOM     14  C   UNL d   1      53.369  30.357  53.397  0.00  0.00     0.029 A 
ATOM     15  C   UNL d   1      53.347  31.127  53.691  0.00  0.00     0.028 A 
ENDBRANCH   3  11
BRANCH   1  16
ATOM     16  C   UNL d   1      51.396  33.959  52.602  0.00  0.00     0.211 C 
ATOM     17  O   UNL d   1      51.523  34.277  51.852  0.00  0.00    -0.644 OA
ATOM     18  O   UNL d   1      50.652  34.008  52.959  0.00  0.00    -0.644 OA
ENDBRANCH   1  16
TORSDOF 2
ENDMDL
MODEL 6
REMARK VINA RESULT:      -9.6      1.661      2.189
REMARK  2 active torsions:
REMARK  status: ('A' for Active; 'I' for Inactive)
REMARK    1  A    between atoms: C_7  and  C_1 
REMARK    2  A    between atoms: C_5  and  C_3 
ROOT
ATOM      1  C   UNL d   1      53.024  34.663  54.235  0.00  0.00     0.067 A 
ATOM      2  N   UNL d   1      52.548  33.350  53.354  0.00  0.00    -0.244 NA
ATOM      3  C   UNL d   1      52.140  34.061  53.277  0.00  0.00     0.104 A 
ATOM      4  C   UNL d   1      52.375  34.718  53.715  0.00  0.00     0.027 A 
ATOM      5  C   UNL d   1      53.431  33.952  54.311  0.00  0.00     0.024 A 
ATOM      6  C   UNL d   1      53.197  33.296  53.873  0.00  0.00     0.082 A 
ATOM      7  C   UNL d   1      54.074  33.897  54.826  0.00  0.00     0.002 A 
ATOM      8  C   UNL d   1      53.606  32.576  53.948  0.00  0.00     0.019 A 
ATOM      9  C   UNL d   1      54.482  33.187  54.903  0.00  0.00     0.000 A 
ATOM     10  C   UNL d   1      54.249  32.522  54.462  0.00  0.00     0.002 A 
ENDROOT
BRANCH   3  11
ATOM     11  C   UNL d   1      51.494  34.116  52.760  0.00  0.00     0.118 A 
ATOM     12  O   UNL d   1      51.500  34.198  51.939  0.00  0.00    -0.304 OA
ATOM     13  C   UNL d   1      50.714  34.227  51.688  0.00  0.00     0.123 A 
ATOM     14  C   UNL d   1      50.233  34.163  52.342  0.00  0.00     0.029 A 
ATOM     15  C   UNL d   1      50.718  34.094  53.006  0.00  0.00     0.028 A 
ENDBRANCH   3  11
BRANCH   1  16
ATOM     16  C   UNL d   1      53.260  35.331  54.679  0.00  0.00     0.211 C 
ATOM     17  O   UNL d   1      53.736  35.905  54.324  0.00  0.00    -0.644 OA
ATOM     18  O   UNL d   1      53.018  35.414  55.465  0.00  0.00    -0.644 OA
ENDBRANCH   1  16
TORSDOF 2
ENDMDL
MODEL 7
REMARK VINA RESULT:      -9.1      1.396      3.430
REMARK  2 active torsions:
REMARK  status: ('A' for Active; 'I' for Inactive)
REMARK    1  A    between atoms: C_7  and  C_1 
REMARK    2  A    between atoms: C_5  and  C_3 
ROOT
ATOM      1  C   UNL d   1      52.693  32.513  53.272  0.00  0.00     0.067 A 
ATOM      2  N   UNL d   1      52.984  33.980  53.971  0.00  0.00    -0.244 NA
ATOM      3  C   UNL d   1      53.465  33.338  54.158  0.00  0.00     0.104 A 
ATOM      4  C   UNL d   1      53.322  32.605  53.810  0.00  0.00     0.027 A 
ATOM      5  C   UNL d   1      52.213  33.156  53.086  0.00  0.00     0.024 A 
ATOM      6  C   UNL d   1      52.355  33.888  53.432  0.00  0.00     0.082 A 
ATOM      7  C   UNL d   1      51.590  33.065  52.553  0.00  0.00     0.002 A 
ATOM      8  C   UNL d   1      51.873  34.538  53.247  0.00  0.00     0.019 A 
ATOM      9  C   UNL d   1      51.109  33.706  52.366  0.00  0.00     0.000 A 
ATOM     10  C   UNL d   1      51.250  34.447  52.714  0.00  0.00     0.002 A 
ENDROOT
BRANCH   3  11
ATOM     11  C   UNL d   1      54.091  33.429  54.693  0.00  0.00     0.118 A 
ATOM     12  O   UNL d   1      54.125  33.201  55.485  0.00  0.00    -0.304 OA
ATOM     13  C   UNL d   1      54.869  33.416  55.773  0.00  0.00     0.123 A 
ATOM     14  C   UNL d   1      55.284  33.771  55.169  0.00  0.00     0.029 A 
ATOM     15  C   UNL d   1      54.801  33.778  54.500  0.00  0.00     0.028 A 
ENDBRANCH   3  11
BRANCH   1  16
ATOM     16  C   UNL d   1      52.550  31.767  52.920  0.00  0.00     0.211 C 
ATOM     17  O   UNL d   1      52.044  31.234  53.295  0.00  0.00    -0.644 OA
ATOM     18  O   UNL d   1      52.914  31.570  52.205  0.00  0.00    -0.644 OA
ENDBRANCH   1  16
TORSDOF 2
ENDMDL
