MODEL 1
REMARK VINA RESULT:      96.3      0.000      0.000
REMARK  6 active torsions:
REMARK  status: ('A' for Active; 'I' for Inactive)
REMARK    1  A    between atoms: N_13  and  C_2 
REMARK    2  A    between atoms: C_22  and  C_5 
REMARK    3  A    between atoms: C_23  and  C_6 
REMARK    4  A    between atoms: C_7  and  S_17 
REMARK       I    between atoms: C_16  and  N_13 
REMARK    5  A    between atoms: C_25  and  C_16 
REMARK    6  A    between atoms: S_17  and  C_25 
ROOT
ATOM      1  C   UNL d   1     -48.243  29.366  35.122  0.00  0.00     0.092 A 
ATOM      2  C   UNL d   1     -47.867  30.715  34.856  0.00  0.00     0.057 A 
ATOM      3  C   UNL d   1     -47.790  30.032  35.304  0.00  0.00     0.016 A 
ATOM      4  C   UNL d   1     -48.769  29.390  34.493  0.00  0.00     0.120 A 
ATOM      5  N   UNL d   1     -48.850  30.075  34.040  0.00  0.00    -0.239 NA
ATOM      6  C   UNL d   1     -48.397  30.741  34.222  0.00  0.00     0.081 A 
ATOM      7  C   UNL d   1     -47.413  31.374  35.044  0.00  0.00     0.193 A 
ATOM      8  C   UNL d   1     -48.162  28.681  35.574  0.00  0.00     0.103 C 
ATOM      9  N   UNL d   1     -48.089  27.991  36.019  0.00  0.00    -0.191 NA
ATOM     10  C   UNL d   1     -48.022  32.093  33.955  0.00  0.00     0.042 A 
ATOM     11  C   UNL d   1     -47.487  32.074  34.591  0.00  0.00     0.019 A 
ATOM     12  C   UNL d   1     -48.479  31.425  33.770  0.00  0.00    -0.003 A 
ATOM     13  O   UNL d   1     -46.881  31.353  35.677  0.00  0.00    -0.287 OA
ATOM     14  C   UNL d   1     -48.469  32.333  33.307  0.00  0.00     0.009 C 
ATOM     15  C   UNL d   1     -47.562  32.760  34.145  0.00  0.00     0.009 C 
ENDROOT
BRANCH   4  16
ATOM     16  S   UNL d   1     -49.223  28.725  34.310  0.00  0.00    -0.062 SA
BRANCH  16  17
ATOM     17  C   UNL d   1     -48.980  28.208  33.710  0.00  0.00     0.100 C 
BRANCH  17  18
ATOM     18  C   UNL d   1     -49.293  27.445  33.678  0.00  0.00     0.302 C 
ATOM     19  N   UNL d   1     -50.066  27.324  33.438  0.00  0.00    -0.018 NA
ATOM     20  O   UNL d   1     -48.828  26.802  33.887  0.00  0.00    -0.264 OA
BRANCH  19  21
ATOM     21  C   UNL d   1     -50.383  26.549  33.405  0.00  0.00     0.760 A 
ATOM     22  N   UNL d   1     -51.178  26.347  33.468  0.00  0.00    -0.051 NA
ATOM     23  C   UNL d   1     -51.234  25.534  33.406  0.00  0.00     0.147 A 
ATOM     24  S   UNL d   1     -50.480  25.235  33.306  0.00  0.00     0.052 SA
ATOM     25  N   UNL d   1     -49.953  25.866  33.306  0.00  0.00    -0.019 NA
BRANCH  23  26
ATOM     26  C   UNL d   1     -51.910  25.060  33.434  0.00  0.00     0.026 A 
ATOM     27  C   UNL d   1     -52.653  25.398  33.318  0.00  0.00     0.002 A 
ATOM     28  C   UNL d   1     -53.331  24.922  33.346  0.00  0.00     0.000 A 
ATOM     29  C   UNL d   1     -53.270  24.118  33.489  0.00  0.00     0.000 A 
ATOM     30  C   UNL d   1     -52.529  23.781  33.606  0.00  0.00     0.000 A 
ATOM     31  C   UNL d   1     -51.842  24.254  33.578  0.00  0.00     0.002 A 
ENDBRANCH  23  26
ENDBRANCH  19  21
ENDBRANCH  17  18
ENDBRANCH  16  17
ENDBRANCH   4  16
BRANCH   3  32
ATOM     32  C   UNL d   1     -47.263  30.006  35.933  0.00  0.00     0.001 A 
ATOM     33  C   UNL d   1     -46.628  29.478  35.915  0.00  0.00     0.000 A 
ATOM     34  C   UNL d   1     -46.102  29.452  36.544  0.00  0.00     0.000 A 
ATOM     35  C   UNL d   1     -46.200  29.948  37.195  0.00  0.00     0.000 A 
ATOM     36  C   UNL d   1     -46.834  30.477  37.212  0.00  0.00     0.000 A 
ATOM     37  C   UNL d   1     -47.368  30.506  36.580  0.00  0.00     0.000 A 
ENDBRANCH   3  32
TORSDOF 6
ENDMDL
