MODEL 1
REMARK VINA RESULT:      -7.4      0.000      0.000
REMARK  4 active torsions:
REMARK  status: ('A' for Active; 'I' for Inactive)
REMARK    1  A    between atoms: C_3  and  S_1 
REMARK       I    between atoms: C_2  and  N_6 
REMARK    2  A    between atoms: C_11  and  C_2 
REMARK    3  A    between atoms: N_6  and  C_12 
REMARK    4  A    between atoms: C_15  and  C_11 
ROOT
ATOM      1  C   UNL d   1     -46.468  12.131  23.215  0.00  0.00     0.107 A 
ATOM      2  C   UNL d   1     -46.897  12.137  22.514  0.00  0.00     0.015 A 
ATOM      3  C   UNL d   1     -46.426  12.813  23.679  0.00  0.00     0.015 A 
ATOM      4  C   UNL d   1     -47.244  13.503  22.734  0.00  0.00     0.085 A 
ATOM      5  C   UNL d   1     -46.814  13.498  23.438  0.00  0.00     0.020 A 
ATOM      6  C   UNL d   1     -47.285  12.823  22.274  0.00  0.00     0.020 A 
ENDROOT
BRANCH   4   7
ATOM      7  N   UNL d   1     -47.633  14.190  22.493  0.00  0.00    -0.208 NA
ATOM      8  C   UNL d   1     -48.338  14.414  22.858  0.00  0.00     0.279 C 
ATOM      9  O   UNL d   1     -48.653  13.953  23.463  0.00  0.00    -0.265 OA
BRANCH   8  10
ATOM     10  C   UNL d   1     -48.729  15.106  22.615  0.00  0.00     0.062 C 
BRANCH  10  11
ATOM     11  C   UNL d   1     -49.508  15.248  22.845  0.00  0.00     0.005 A 
ATOM     12  C   UNL d   1     -49.655  15.770  23.466  0.00  0.00     0.000 A 
ATOM     13  C   UNL d   1     -50.437  15.914  23.698  0.00  0.00     0.000 A 
ATOM     14  C   UNL d   1     -51.064  15.536  23.309  0.00  0.00     0.000 A 
ATOM     15  C   UNL d   1     -50.909  15.016  22.689  0.00  0.00     0.000 A 
ATOM     16  C   UNL d   1     -50.136  14.870  22.456  0.00  0.00     0.000 A 
ENDBRANCH  10  11
ENDBRANCH   8  10
ENDBRANCH   4   7
BRANCH   1  17
ATOM     17  S   UNL d   1     -46.080  11.444  23.457  0.00  0.00     0.302 S 
ATOM     18  O   UNL d   1     -45.351  11.808  23.318  0.00  0.00    -0.197 OA
ATOM     19  O   UNL d   1     -46.807  11.081  23.595  0.00  0.00    -0.197 OA
ATOM     20  N   UNL d   1     -45.691  10.757  23.698  0.00  0.00    -0.043 N 
ENDBRANCH   1  17
TORSDOF 4
ENDMDL
MODEL 2
REMARK VINA RESULT:      -6.9      1.426      1.740
REMARK  4 active torsions:
REMARK  status: ('A' for Active; 'I' for Inactive)
REMARK    1  A    between atoms: C_3  and  S_1 
REMARK       I    between atoms: C_2  and  N_6 
REMARK    2  A    between atoms: C_11  and  C_2 
REMARK    3  A    between atoms: N_6  and  C_12 
REMARK    4  A    between atoms: C_15  and  C_11 
ROOT
ATOM      1  C   UNL d   1     -45.775  12.845  22.661  0.00  0.00     0.107 A 
ATOM      2  C   UNL d   1     -46.197  12.254  23.045  0.00  0.00     0.015 A 
ATOM      3  C   UNL d   1     -46.127  13.579  22.522  0.00  0.00     0.015 A 
ATOM      4  C   UNL d   1     -47.323  13.122  23.154  0.00  0.00     0.085 A 
ATOM      5  C   UNL d   1     -46.901  13.717  22.769  0.00  0.00     0.020 A 
ATOM      6  C   UNL d   1     -46.971  12.393  23.292  0.00  0.00     0.020 A 
ENDROOT
BRANCH   4   7
ATOM      7  N   UNL d   1     -48.098  13.261  23.401  0.00  0.00    -0.208 NA
ATOM      8  C   UNL d   1     -48.730  12.957  22.966  0.00  0.00     0.279 C 
ATOM      9  O   UNL d   1     -48.587  12.515  22.286  0.00  0.00    -0.265 OA
BRANCH   8  10
ATOM     10  C   UNL d   1     -49.510  13.096  23.215  0.00  0.00     0.062 C 
BRANCH  10  11
ATOM     11  C   UNL d   1     -50.029  13.529  22.741  0.00  0.00     0.005 A 
ATOM     12  C   UNL d   1     -50.175  14.320  22.925  0.00  0.00     0.000 A 
ATOM     13  C   UNL d   1     -50.695  14.756  22.451  0.00  0.00     0.000 A 
ATOM     14  C   UNL d   1     -51.064  14.401  21.799  0.00  0.00     0.000 A 
ATOM     15  C   UNL d   1     -50.913  13.610  21.622  0.00  0.00     0.000 A 
ATOM     16  C   UNL d   1     -50.398  13.174  22.089  0.00  0.00     0.000 A 
ENDBRANCH  10  11
ENDBRANCH   8  10
ENDBRANCH   4   7
BRANCH   1  17
ATOM     17  S   UNL d   1     -45.000  12.707  22.414  0.00  0.00     0.302 S 
ATOM     18  O   UNL d   1     -44.928  12.107  22.977  0.00  0.00    -0.197 OA
ATOM     19  O   UNL d   1     -45.072  13.306  21.852  0.00  0.00    -0.197 OA
ATOM     20  N   UNL d   1     -44.225  12.568  22.167  0.00  0.00    -0.043 N 
ENDBRANCH   1  17
TORSDOF 4
ENDMDL
MODEL 3
REMARK VINA RESULT:      -5.9      8.920     10.149
REMARK  4 active torsions:
REMARK  status: ('A' for Active; 'I' for Inactive)
REMARK    1  A    between atoms: C_3  and  S_1 
REMARK       I    between atoms: C_2  and  N_6 
REMARK    2  A    between atoms: C_11  and  C_2 
REMARK    3  A    between atoms: N_6  and  C_12 
REMARK    4  A    between atoms: C_15  and  C_11 
ROOT
ATOM      1  C   UNL d   1     -38.858  14.328  16.563  0.00  0.00     0.107 A 
ATOM      2  C   UNL d   1     -39.578  14.722  16.615  0.00  0.00     0.015 A 
ATOM      3  C   UNL d   1     -38.595  13.866  17.194  0.00  0.00     0.015 A 
ATOM      4  C   UNL d   1     -39.775  14.198  17.926  0.00  0.00     0.085 A 
ATOM      5  C   UNL d   1     -39.053  13.801  17.876  0.00  0.00     0.020 A 
ATOM      6  C   UNL d   1     -40.036  14.657  17.297  0.00  0.00     0.020 A 
ENDROOT
BRANCH   4   7
ATOM      7  N   UNL d   1     -40.234  14.132  18.609  0.00  0.00    -0.208 NA
ATOM      8  C   UNL d   1     -40.196  14.719  19.188  0.00  0.00     0.279 C 
ATOM      9  O   UNL d   1     -39.700  15.368  19.086  0.00  0.00    -0.265 OA
BRANCH   8  10
ATOM     10  C   UNL d   1     -40.659  14.653  19.876  0.00  0.00     0.062 C 
BRANCH  10  11
ATOM     11  C   UNL d   1     -40.357  14.887  20.606  0.00  0.00     0.005 A 
ATOM     12  C   UNL d   1     -40.486  15.660  20.865  0.00  0.00     0.000 A 
ATOM     13  C   UNL d   1     -40.184  15.897  21.599  0.00  0.00     0.000 A 
ATOM     14  C   UNL d   1     -39.756  15.363  22.067  0.00  0.00     0.000 A 
ATOM     15  C   UNL d   1     -39.631  14.593  21.801  0.00  0.00     0.000 A 
ATOM     16  C   UNL d   1     -39.929  14.354  21.075  0.00  0.00     0.000 A 
ENDBRANCH  10  11
ENDBRANCH   8  10
ENDBRANCH   4   7
BRANCH   1  17
ATOM     17  S   UNL d   1     -38.399  14.393  15.881  0.00  0.00     0.302 S 
ATOM     18  O   UNL d   1     -38.459  13.577  15.762  0.00  0.00    -0.197 OA
ATOM     19  O   UNL d   1     -38.340  15.207  15.998  0.00  0.00    -0.197 OA
ATOM     20  N   UNL d   1     -37.940  14.458  15.197  0.00  0.00    -0.043 N 
ENDBRANCH   1  17
TORSDOF 4
ENDMDL
MODEL 4
REMARK VINA RESULT:      -5.7      8.787      9.437
REMARK  4 active torsions:
REMARK  status: ('A' for Active; 'I' for Inactive)
REMARK    1  A    between atoms: C_3  and  S_1 
REMARK       I    between atoms: C_2  and  N_6 
REMARK    2  A    between atoms: C_11  and  C_2 
REMARK    3  A    between atoms: N_6  and  C_12 
REMARK    4  A    between atoms: C_15  and  C_11 
ROOT
ATOM      1  C   UNL d   1     -39.200  15.318  22.100  0.00  0.00     0.107 A 
ATOM      2  C   UNL d   1     -39.353  14.524  21.955  0.00  0.00     0.015 A 
ATOM      3  C   UNL d   1     -39.491  15.895  21.586  0.00  0.00     0.015 A 
ATOM      4  C   UNL d   1     -40.086  14.874  20.783  0.00  0.00     0.085 A 
ATOM      5  C   UNL d   1     -39.934  15.673  20.928  0.00  0.00     0.020 A 
ATOM      6  C   UNL d   1     -39.796  14.302  21.296  0.00  0.00     0.020 A 
ENDROOT
BRANCH   4   7
ATOM      7  N   UNL d   1     -40.530  14.652  20.124  0.00  0.00    -0.208 NA
ATOM      8  C   UNL d   1     -40.149  14.430  19.427  0.00  0.00     0.279 C 
ATOM      9  O   UNL d   1     -39.326  14.430  19.389  0.00  0.00    -0.265 OA
BRANCH   8  10
ATOM     10  C   UNL d   1     -40.595  14.206  18.763  0.00  0.00     0.062 C 
BRANCH  10  11
ATOM     11  C   UNL d   1     -40.466  14.565  18.032  0.00  0.00     0.005 A 
ATOM     12  C   UNL d   1     -40.972  15.168  17.786  0.00  0.00     0.000 A 
ATOM     13  C   UNL d   1     -40.844  15.530  17.052  0.00  0.00     0.000 A 
ATOM     14  C   UNL d   1     -40.214  15.288  16.571  0.00  0.00     0.000 A 
ATOM     15  C   UNL d   1     -39.713  14.685  16.824  0.00  0.00     0.000 A 
ATOM     16  C   UNL d   1     -39.836  14.323  17.550  0.00  0.00     0.000 A 
ENDBRANCH  10  11
ENDBRANCH   8  10
ENDBRANCH   4   7
BRANCH   1  17
ATOM     17  S   UNL d   1     -38.757  15.541  22.759  0.00  0.00     0.302 S 
ATOM     18  O   UNL d   1     -38.095  15.162  22.441  0.00  0.00    -0.197 OA
ATOM     19  O   UNL d   1     -39.418  15.919  23.077  0.00  0.00    -0.197 OA
ATOM     20  N   UNL d   1     -38.313  15.763  23.419  0.00  0.00    -0.043 N 
ENDBRANCH   1  17
TORSDOF 4
ENDMDL
MODEL 5
REMARK VINA RESULT:      -5.4      2.243      4.373
REMARK  4 active torsions:
REMARK  status: ('A' for Active; 'I' for Inactive)
REMARK    1  A    between atoms: C_3  and  S_1 
REMARK       I    between atoms: C_2  and  N_6 
REMARK    2  A    between atoms: C_11  and  C_2 
REMARK    3  A    between atoms: N_6  and  C_12 
REMARK    4  A    between atoms: C_15  and  C_11 
ROOT
ATOM      1  C   UNL d   1     -49.616  12.515  23.003  0.00  0.00     0.107 A 
ATOM      2  C   UNL d   1     -49.395  13.260  23.270  0.00  0.00     0.015 A 
ATOM      3  C   UNL d   1     -49.115  12.089  22.505  0.00  0.00     0.015 A 
ATOM      4  C   UNL d   1     -48.171  13.160  22.545  0.00  0.00     0.085 A 
ATOM      5  C   UNL d   1     -48.392  12.412  22.276  0.00  0.00     0.020 A 
ATOM      6  C   UNL d   1     -48.672  13.583  23.041  0.00  0.00     0.020 A 
ENDROOT
BRANCH   4   7
ATOM      7  N   UNL d   1     -47.447  13.484  22.316  0.00  0.00    -0.208 NA
ATOM      8  C   UNL d   1     -46.788  13.406  22.805  0.00  0.00     0.279 C 
ATOM      9  O   UNL d   1     -46.851  13.005  23.522  0.00  0.00    -0.265 OA
BRANCH   8  10
ATOM     10  C   UNL d   1     -46.059  13.731  22.574  0.00  0.00     0.062 C 
BRANCH  10  11
ATOM     11  C   UNL d   1     -45.427  13.241  22.374  0.00  0.00     0.005 A 
ATOM     12  C   UNL d   1     -44.954  13.439  21.727  0.00  0.00     0.000 A 
ATOM     13  C   UNL d   1     -44.319  12.948  21.524  0.00  0.00     0.000 A 
ATOM     14  C   UNL d   1     -44.161  12.265  21.966  0.00  0.00     0.000 A 
ATOM     15  C   UNL d   1     -44.638  12.074  22.611  0.00  0.00     0.000 A 
ATOM     16  C   UNL d   1     -45.268  12.557  22.816  0.00  0.00     0.000 A 
ENDBRANCH  10  11
ENDBRANCH   8  10
ENDBRANCH   4   7
BRANCH   1  17
ATOM     17  S   UNL d   1     -50.340  12.192  23.232  0.00  0.00     0.302 S 
ATOM     18  O   UNL d   1     -49.964  11.479  23.413  0.00  0.00    -0.197 OA
ATOM     19  O   UNL d   1     -50.715  12.904  23.052  0.00  0.00    -0.197 OA
ATOM     20  N   UNL d   1     -51.064  11.868  23.462  0.00  0.00    -0.043 N 
ENDBRANCH   1  17
TORSDOF 4
ENDMDL
MODEL 6
REMARK VINA RESULT:      -5.3      1.989      4.665
REMARK  4 active torsions:
REMARK  status: ('A' for Active; 'I' for Inactive)
REMARK    1  A    between atoms: C_3  and  S_1 
REMARK       I    between atoms: C_2  and  N_6 
REMARK    2  A    between atoms: C_11  and  C_2 
REMARK    3  A    between atoms: N_6  and  C_12 
REMARK    4  A    between atoms: C_15  and  C_11 
ROOT
ATOM      1  C   UNL d   1     -49.633  14.061  22.250  0.00  0.00     0.107 A 
ATOM      2  C   UNL d   1     -49.493  13.304  22.537  0.00  0.00     0.015 A 
ATOM      3  C   UNL d   1     -49.056  14.646  22.334  0.00  0.00     0.015 A 
ATOM      4  C   UNL d   1     -48.204  13.708  22.991  0.00  0.00     0.085 A 
ATOM      5  C   UNL d   1     -48.342  14.469  22.704  0.00  0.00     0.020 A 
ATOM      6  C   UNL d   1     -48.779  13.127  22.907  0.00  0.00     0.020 A 
ENDROOT
BRANCH   4   7
ATOM      7  N   UNL d   1     -47.488  13.531  23.362  0.00  0.00    -0.208 NA
ATOM      8  C   UNL d   1     -46.877  13.179  22.933  0.00  0.00     0.279 C 
ATOM      9  O   UNL d   1     -46.982  13.005  22.135  0.00  0.00    -0.265 OA
BRANCH   8  10
ATOM     10  C   UNL d   1     -46.157  13.001  23.306  0.00  0.00     0.062 C 
BRANCH  10  11
ATOM     11  C   UNL d   1     -45.875  12.226  23.323  0.00  0.00     0.005 A 
ATOM     12  C   UNL d   1     -45.147  12.057  22.975  0.00  0.00     0.000 A 
ATOM     13  C   UNL d   1     -44.862  11.279  22.991  0.00  0.00     0.000 A 
ATOM     14  C   UNL d   1     -45.305  10.679  23.352  0.00  0.00     0.000 A 
ATOM     15  C   UNL d   1     -46.032  10.857  23.697  0.00  0.00     0.000 A 
ATOM     16  C   UNL d   1     -46.318  11.626  23.684  0.00  0.00     0.000 A 
ENDBRANCH  10  11
ENDBRANCH   8  10
ENDBRANCH   4   7
BRANCH   1  17
ATOM     17  S   UNL d   1     -50.348  14.238  21.880  0.00  0.00     0.302 S 
ATOM     18  O   UNL d   1     -50.210  13.639  21.328  0.00  0.00    -0.197 OA
ATOM     19  O   UNL d   1     -50.485  14.837  22.430  0.00  0.00    -0.197 OA
ATOM     20  N   UNL d   1     -51.064  14.415  21.508  0.00  0.00    -0.043 N 
ENDBRANCH   1  17
TORSDOF 4
ENDMDL
MODEL 7
REMARK VINA RESULT:      -5.0      8.816      9.769
REMARK  4 active torsions:
REMARK  status: ('A' for Active; 'I' for Inactive)
REMARK    1  A    between atoms: C_3  and  S_1 
REMARK       I    between atoms: C_2  and  N_6 
REMARK    2  A    between atoms: C_11  and  C_2 
REMARK    3  A    between atoms: N_6  and  C_12 
REMARK    4  A    between atoms: C_15  and  C_11 
ROOT
ATOM      1  C   UNL d   1     -40.583  15.329  17.794  0.00  0.00     0.107 A 
ATOM      2  C   UNL d   1     -40.774  15.922  18.330  0.00  0.00     0.015 A 
ATOM      3  C   UNL d   1     -40.399  14.572  18.066  0.00  0.00     0.015 A 
ATOM      4  C   UNL d   1     -40.599  15.008  19.411  0.00  0.00     0.085 A 
ATOM      5  C   UNL d   1     -40.407  14.411  18.874  0.00  0.00     0.020 A 
ATOM      6  C   UNL d   1     -40.782  15.762  19.139  0.00  0.00     0.020 A 
ENDROOT
BRANCH   4   7
ATOM      7  N   UNL d   1     -40.607  14.848  20.220  0.00  0.00    -0.208 NA
ATOM      8  C   UNL d   1     -39.960  15.055  20.688  0.00  0.00     0.279 C 
ATOM      9  O   UNL d   1     -39.306  15.422  20.347  0.00  0.00    -0.265 OA
BRANCH   8  10
ATOM     10  C   UNL d   1     -39.968  14.893  21.503  0.00  0.00     0.062 C 
BRANCH  10  11
ATOM     11  C   UNL d   1     -39.329  14.512  21.860  0.00  0.00     0.005 A 
ATOM     12  C   UNL d   1     -38.724  14.966  22.189  0.00  0.00     0.000 A 
ATOM     13  C   UNL d   1     -38.082  14.586  22.547  0.00  0.00     0.000 A 
ATOM     14  C   UNL d   1     -38.049  13.758  22.575  0.00  0.00     0.000 A 
ATOM     15  C   UNL d   1     -38.658  13.312  22.244  0.00  0.00     0.000 A 
ATOM     16  C   UNL d   1     -39.296  13.684  21.888  0.00  0.00     0.000 A 
ENDBRANCH  10  11
ENDBRANCH   8  10
ENDBRANCH   4   7
BRANCH   1  17
ATOM     17  S   UNL d   1     -40.575  15.490  16.985  0.00  0.00     0.302 S 
ATOM     18  O   UNL d   1     -41.335  15.174  16.915  0.00  0.00    -0.197 OA
ATOM     19  O   UNL d   1     -39.816  15.805  17.055  0.00  0.00    -0.197 OA
ATOM     20  N   UNL d   1     -40.567  15.650  16.175  0.00  0.00    -0.043 N 
ENDBRANCH   1  17
TORSDOF 4
ENDMDL
