MODEL 1
REMARK VINA RESULT:      -1.4      0.000      0.000
REMARK  7 active torsions:
REMARK  status: ('A' for Active; 'I' for Inactive)
REMARK    1  A    between atoms: C_10  and  C_3 
REMARK    2  A    between atoms: N_11  and  C_4 
REMARK    3  A    between atoms: C_21  and  N_11 
REMARK    4  A    between atoms: O_20  and  C_23 
REMARK    5  A    between atoms: C_24  and  O_20 
REMARK    6  A    between atoms: C_23  and  C_21 
REMARK    7  A    between atoms: C_22  and  C_24 
ROOT
ATOM      1  C   UNL d   1     -41.638-122.425 -50.890  0.00  0.00     0.167 A 
ATOM      2  N   UNL d   1     -41.527-122.445 -51.733  0.00  0.00    -0.195 N 
ATOM      3  C   UNL d   1     -41.875-123.092 -50.494  0.00  0.00     0.057 A 
ATOM      4  C   UNL d   1     -41.290-121.771 -52.110  0.00  0.00     0.167 A 
ATOM      5  N   UNL d   1     -41.902-123.817 -51.737  0.00  0.00    -0.161 NA
ATOM      6  N   UNL d   1     -41.505-121.732 -50.478  0.00  0.00    -0.227 NA
ATOM      7  C   UNL d   1     -41.153-121.067 -51.704  0.00  0.00     0.058 A 
ATOM      8  C   UNL d   1     -42.010-123.798 -50.919  0.00  0.00     0.124 A 
ATOM      9  C   UNL d   1     -41.263-121.047 -50.874  0.00  0.00     0.086 A 
ATOM     10  C   UNL d   1     -41.123-120.317 -50.441  0.00  0.00     0.021 C 
ENDROOT
BRANCH   3  11
ATOM     11  C   UNL d   1     -41.983-123.072 -49.677  0.00  0.00     0.005 A 
ATOM     12  C   UNL d   1     -42.714-122.887 -49.369  0.00  0.00     0.001 A 
ATOM     13  C   UNL d   1     -42.820-122.867 -48.564  0.00  0.00     0.011 A 
ATOM     14  C   UNL d   1     -42.197-123.033 -48.055  0.00  0.00     0.058 A 
ATOM     15  C   UNL d   1     -41.465-123.219 -48.364  0.00  0.00     0.011 A 
ATOM     16 CL   UNL d   1     -42.310-123.013 -47.198  0.00  0.00    -0.082 Cl
ATOM     17  C   UNL d   1     -41.358-123.239 -49.182  0.00  0.00     0.001 A 
ENDBRANCH   3  11
BRANCH   4  18
ATOM     18  N   UNL d   1     -41.177-121.788 -52.962  0.00  0.00    -0.223 NA
BRANCH  18  19
ATOM     19  C   UNL d   1     -41.207-121.442 -53.742  0.00  0.00     0.127 C 
BRANCH  19  20
ATOM     20  C   UNL d   1     -41.803-121.733 -54.297  0.00  0.00     0.143 C 
BRANCH  20  21
ATOM     21  O   UNL d   1     -41.788-121.487 -55.119  0.00  0.00    -0.298 OA
BRANCH  21  22
ATOM     22  C   UNL d   1     -41.893-122.063 -55.753  0.00  0.00     0.168 C 
BRANCH  22  23
ATOM     23  C   UNL d   1     -42.670-122.385 -55.916  0.00  0.00     0.261 C 
ATOM     24  O   UNL d   1     -43.192-121.993 -56.479  0.00  0.00    -0.281 OA
ENDBRANCH  22  23
ENDBRANCH  21  22
ENDBRANCH  20  21
ENDBRANCH  19  20
ENDBRANCH  18  19
ENDBRANCH   4  18
TORSDOF 7
ENDMDL
