MODEL 1
REMARK VINA RESULT:      48.3      0.000      0.000
REMARK  5 active torsions:
REMARK  status: ('A' for Active; 'I' for Inactive)
REMARK    1  A    between atoms: C_10  and  N_6 
REMARK    2  A    between atoms: S_13  and  C_9 
REMARK    3  A    between atoms: C_14  and  C_10 
REMARK    4  A    between atoms: C_22  and  S_13 
REMARK    5  A    between atoms: C_24  and  C_22 
ROOT
ATOM      1  C   UNL d   1      44.285 -13.694  43.856  0.00  0.00     0.174 A 
ATOM      2  C   UNL d   1      44.907 -14.158  44.131  0.00  0.00     0.158 A 
ATOM      3  N   UNL d   1      43.586 -14.041  44.091  0.00  0.00    -0.203 NA
ATOM      4  N   UNL d   1      44.448 -13.012  43.426  0.00  0.00    -0.240 N 
ATOM      5  N   UNL d   1      45.856 -13.241  43.532  0.00  0.00    -0.223 N 
ATOM      6  N   UNL d   1      44.605 -14.866  44.581  0.00  0.00    -0.279 N 
ATOM      7  C   UNL d   1      45.233 -12.776  43.258  0.00  0.00     0.343 A 
ATOM      8  C   UNL d   1      45.693 -13.942  43.975  0.00  0.00     0.287 A 
ATOM      9  C   UNL d   1      43.795 -14.728  44.516  0.00  0.00     0.181 A 
ATOM     10  O   UNL d   1      45.405 -12.087  42.823  0.00  0.00    -0.245 OA
ATOM     11  O   UNL d   1      46.317 -14.407  44.250  0.00  0.00    -0.265 OA
ATOM     12  C   UNL d   1      43.825 -12.548  43.152  0.00  0.00     0.105 C 
ATOM     13  C   UNL d   1      46.642 -13.024  43.376  0.00  0.00     0.107 C 
ENDROOT
BRANCH   6  14
ATOM     14  C   UNL d   1      45.018 -15.474  44.951  0.00  0.00     0.082 C 
BRANCH  14  15
ATOM     15  C   UNL d   1      45.314 -16.097  44.498  0.00  0.00     0.018 A 
ATOM     16  C   UNL d   1      45.817 -16.650  44.837  0.00  0.00     0.002 A 
ATOM     17  C   UNL d   1      46.117 -17.274  44.392  0.00  0.00     0.000 A 
ATOM     18  C   UNL d   1      46.618 -17.796  44.792  0.00  0.00     0.000 C 
ATOM     19  C   UNL d   1      45.905 -17.343  43.590  0.00  0.00     0.000 A 
ATOM     20  C   UNL d   1      45.398 -16.786  43.250  0.00  0.00     0.000 A 
ATOM     21  C   UNL d   1      45.103 -16.165  43.701  0.00  0.00     0.002 A 
ENDBRANCH  14  15
ENDBRANCH   6  14
BRANCH   9  22
ATOM     22  S   UNL d   1      43.255 -15.250  44.857  0.00  0.00    -0.046 SA
BRANCH  22  23
ATOM     23  C   UNL d   1      42.482 -15.514  44.949  0.00  0.00     0.084 C 
BRANCH  23  24
ATOM     24  C   UNL d   1      41.863 -14.973  44.953  0.00  0.00     0.241 C 
ATOM     25  O   UNL d   1      41.085 -15.240  44.952  0.00  0.00    -0.283 OA
ENDBRANCH  23  24
ENDBRANCH  22  23
ENDBRANCH   9  22
TORSDOF 5
ENDMDL
MODEL 2
REMARK VINA RESULT:      49.9      2.353      4.440
REMARK  5 active torsions:
REMARK  status: ('A' for Active; 'I' for Inactive)
REMARK    1  A    between atoms: C_10  and  N_6 
REMARK    2  A    between atoms: S_13  and  C_9 
REMARK    3  A    between atoms: C_14  and  C_10 
REMARK    4  A    between atoms: C_22  and  S_13 
REMARK    5  A    between atoms: C_24  and  C_22 
ROOT
ATOM      1  C   UNL d   1      46.322 -17.463  42.824  0.00  0.00     0.174 A 
ATOM      2  C   UNL d   1      46.258 -17.363  43.640  0.00  0.00     0.158 A 
ATOM      3  N   UNL d   1      46.399 -16.727  42.483  0.00  0.00    -0.203 NA
ATOM      4  N   UNL d   1      46.301 -18.221  42.508  0.00  0.00    -0.240 N 
ATOM      5  N   UNL d   1      46.151 -18.798  43.808  0.00  0.00    -0.223 N 
ATOM      6  N   UNL d   1      46.294 -16.500  43.861  0.00  0.00    -0.279 N 
ATOM      7  C   UNL d   1      46.215 -18.898  42.992  0.00  0.00     0.343 A 
ATOM      8  C   UNL d   1      46.172 -18.021  44.138  0.00  0.00     0.287 A 
ATOM      9  C   UNL d   1      46.381 -16.174  43.108  0.00  0.00     0.181 A 
ATOM     10  O   UNL d   1      46.193 -19.669  42.677  0.00  0.00    -0.245 OA
ATOM     11  O   UNL d   1      46.107 -17.921  44.955  0.00  0.00    -0.265 OA
ATOM     12  C   UNL d   1      46.365 -18.322  41.692  0.00  0.00     0.105 C 
ATOM     13  C   UNL d   1      46.065 -19.456  44.306  0.00  0.00     0.107 C 
ENDROOT
BRANCH   6  14
ATOM     14  C   UNL d   1      46.253 -16.141  44.600  0.00  0.00     0.082 C 
BRANCH  14  15
ATOM     15  C   UNL d   1      45.733 -15.511  44.716  0.00  0.00     0.018 A 
ATOM     16  C   UNL d   1      44.922 -15.643  44.719  0.00  0.00     0.002 A 
ATOM     17  C   UNL d   1      44.396 -15.020  44.834  0.00  0.00     0.000 A 
ATOM     18  C   UNL d   1      43.594 -15.218  44.826  0.00  0.00     0.000 C 
ATOM     19  C   UNL d   1      44.693 -14.250  44.949  0.00  0.00     0.000 A 
ATOM     20  C   UNL d   1      45.509 -14.120  44.945  0.00  0.00     0.000 A 
ATOM     21  C   UNL d   1      46.027 -14.747  44.830  0.00  0.00     0.002 A 
ENDBRANCH  14  15
ENDBRANCH   6  14
BRANCH   9  22
ATOM     22  S   UNL d   1      46.442 -15.357  43.013  0.00  0.00    -0.046 SA
BRANCH  22  23
ATOM     23  C   UNL d   1      46.583 -14.706  42.531  0.00  0.00     0.084 C 
BRANCH  23  24
ATOM     24  C   UNL d   1      45.982 -14.162  42.392  0.00  0.00     0.241 C 
ATOM     25  O   UNL d   1      46.167 -13.370  42.271  0.00  0.00    -0.283 OA
ENDBRANCH  23  24
ENDBRANCH  22  23
ENDBRANCH   9  22
TORSDOF 5
ENDMDL
