MODEL 1
REMARK VINA RESULT:      -6.2      0.000      0.000
REMARK  8 active torsions:
REMARK  status: ('A' for Active; 'I' for Inactive)
REMARK    1  A    between atoms: C_21  and  C_3 
REMARK    2  A    between atoms: S_17  and  C_5 
REMARK    3  A    between atoms: C_11  and  C_16 
REMARK       I    between atoms: N_14  and  C_11 
REMARK    4  A    between atoms: C_19  and  N_14 
REMARK    5  A    between atoms: C_16  and  C_20 
REMARK    6  A    between atoms: C_20  and  S_17 
REMARK    7  A    between atoms: O_27  and  C_22 
REMARK    8  A    between atoms: C_30  and  O_27 
ROOT
ATOM      1  C   UNL d   1     -47.675  12.358  23.253  0.00  0.00     0.092 A 
ATOM      2  C   UNL d   1     -48.577  13.457  23.093  0.00  0.00     0.057 A 
ATOM      3  C   UNL d   1     -48.439  12.673  23.307  0.00  0.00     0.016 A 
ATOM      4  N   UNL d   1     -47.195  13.615  22.771  0.00  0.00    -0.239 NA
ATOM      5  C   UNL d   1     -47.053  12.829  22.985  0.00  0.00     0.120 A 
ATOM      6  C   UNL d   1     -47.955  13.928  22.825  0.00  0.00     0.081 A 
ATOM      7  C   UNL d   1     -49.337  13.768  23.148  0.00  0.00     0.193 A 
ATOM      8  C   UNL d   1     -47.542  11.562  23.472  0.00  0.00     0.103 C 
ATOM      9  N   UNL d   1     -47.403  10.764  23.689  0.00  0.00    -0.191 NA
ATOM     10  C   UNL d   1     -48.852  15.023  22.666  0.00  0.00     0.042 A 
ATOM     11  C   UNL d   1     -49.474  14.552  22.934  0.00  0.00     0.019 A 
ATOM     12  C   UNL d   1     -48.093  14.710  22.612  0.00  0.00    -0.003 A 
ATOM     13  O   UNL d   1     -49.958  13.297  23.416  0.00  0.00    -0.287 OA
ATOM     14  C   UNL d   1     -48.449  15.686  22.382  0.00  0.00     0.009 C 
ATOM     15  C   UNL d   1     -49.621  15.344  22.720  0.00  0.00     0.009 C 
ENDROOT
BRANCH   3  16
ATOM     16  C   UNL d   1     -49.061  12.202  23.575  0.00  0.00     0.001 C 
ATOM     17  C   UNL d   1     -49.524  11.786  23.037  0.00  0.00     0.000 C 
ENDBRANCH   3  16
BRANCH   5  18
ATOM     18  S   UNL d   1     -46.289  12.511  22.931  0.00  0.00    -0.067 SA
BRANCH  18  19
ATOM     19  C   UNL d   1     -45.702  12.921  22.516  0.00  0.00     0.042 C 
BRANCH  19  20
ATOM     20  C   UNL d   1     -45.077  12.506  22.158  0.00  0.00     0.070 C 
BRANCH  20  21
ATOM     21  C   UNL d   1     -44.389  12.906  21.933  0.00  0.00     0.280 C 
ATOM     22  N   UNL d   1     -43.729  12.480  21.660  0.00  0.00    -0.208 NA
ATOM     23  O   UNL d   1     -44.357  13.733  21.979  0.00  0.00    -0.265 OA
BRANCH  22  24
ATOM     24  C   UNL d   1     -43.040  12.880  21.434  0.00  0.00     0.085 A 
ATOM     25  C   UNL d   1     -43.021  13.302  20.721  0.00  0.00     0.021 A 
ATOM     26  C   UNL d   1     -42.333  13.698  20.503  0.00  0.00     0.026 A 
ATOM     27  C   UNL d   1     -41.653  13.682  20.990  0.00  0.00     0.100 A 
ATOM     28  C   UNL d   1     -41.680  13.261  21.699  0.00  0.00     0.026 A 
ATOM     29  C   UNL d   1     -42.368  12.860  21.924  0.00  0.00     0.021 A 
BRANCH  27  30
ATOM     30  O   UNL d   1     -40.953  14.088  20.763  0.00  0.00    -0.305 OA
BRANCH  30  31
ATOM     31  C   UNL d   1     -40.957  14.913  20.705  0.00  0.00     0.123 C 
ATOM     32  C   UNL d   1     -40.264  15.308  20.527  0.00  0.00     0.029 C 
ENDBRANCH  30  31
ENDBRANCH  27  30
ENDBRANCH  22  24
ENDBRANCH  20  21
ENDBRANCH  19  20
ENDBRANCH  18  19
ENDBRANCH   5  18
TORSDOF 8
ENDMDL
MODEL 2
REMARK VINA RESULT:      -5.0      0.889      1.332
REMARK  8 active torsions:
REMARK  status: ('A' for Active; 'I' for Inactive)
REMARK    1  A    between atoms: C_21  and  C_3 
REMARK    2  A    between atoms: S_17  and  C_5 
REMARK    3  A    between atoms: C_11  and  C_16 
REMARK       I    between atoms: N_14  and  C_11 
REMARK    4  A    between atoms: C_19  and  N_14 
REMARK    5  A    between atoms: C_16  and  C_20 
REMARK    6  A    between atoms: C_20  and  S_17 
REMARK    7  A    between atoms: O_27  and  C_22 
REMARK    8  A    between atoms: C_30  and  O_27 
ROOT
ATOM      1  C   UNL d   1     -46.365  12.168  23.143  0.00  0.00     0.092 A 
ATOM      2  C   UNL d   1     -47.462  13.081  23.063  0.00  0.00     0.057 A 
ATOM      3  C   UNL d   1     -47.155  12.355  23.301  0.00  0.00     0.016 A 
ATOM      4  N   UNL d   1     -46.196  13.438  22.508  0.00  0.00    -0.239 NA
ATOM      5  C   UNL d   1     -45.885  12.709  22.746  0.00  0.00     0.120 A 
ATOM      6  C   UNL d   1     -46.982  13.623  22.666  0.00  0.00     0.081 A 
ATOM      7  C   UNL d   1     -48.249  13.265  23.222  0.00  0.00     0.193 A 
ATOM      8  C   UNL d   1     -46.060  11.429  23.387  0.00  0.00     0.103 C 
ATOM      9  N   UNL d   1     -45.748  10.689  23.630  0.00  0.00    -0.191 NA
ATOM     10  C   UNL d   1     -48.076  14.533  22.587  0.00  0.00     0.042 A 
ATOM     11  C   UNL d   1     -48.555  13.992  22.984  0.00  0.00     0.019 A 
ATOM     12  C   UNL d   1     -47.289  14.348  22.429  0.00  0.00    -0.003 A 
ATOM     13  O   UNL d   1     -48.728  12.724  23.619  0.00  0.00    -0.287 OA
ATOM     14  C   UNL d   1     -47.845  15.225  22.198  0.00  0.00     0.009 C 
ATOM     15  C   UNL d   1     -48.872  14.726  22.745  0.00  0.00     0.009 C 
ENDROOT
BRANCH   3  16
ATOM     16  C   UNL d   1     -47.635  11.813  23.698  0.00  0.00     0.001 C 
ATOM     17  C   UNL d   1     -48.135  11.316  23.272  0.00  0.00     0.000 C 
ENDBRANCH   3  16
BRANCH   5  18
ATOM     18  S   UNL d   1     -45.093  12.519  22.588  0.00  0.00    -0.067 SA
BRANCH  18  19
ATOM     19  C   UNL d   1     -44.660  12.979  22.053  0.00  0.00     0.042 C 
BRANCH  19  20
ATOM     20  C   UNL d   1     -43.973  12.672  21.699  0.00  0.00     0.070 C 
BRANCH  20  21
ATOM     21  C   UNL d   1     -43.347  13.176  21.503  0.00  0.00     0.280 C 
ATOM     22  N   UNL d   1     -42.619  12.858  21.256  0.00  0.00    -0.208 NA
ATOM     23  O   UNL d   1     -43.445  13.997  21.553  0.00  0.00    -0.265 OA
BRANCH  22  24
ATOM     24  C   UNL d   1     -41.992  13.362  21.060  0.00  0.00     0.085 A 
ATOM     25  C   UNL d   1     -41.423  13.557  21.630  0.00  0.00     0.021 A 
ATOM     26  C   UNL d   1     -40.803  14.059  21.429  0.00  0.00     0.026 A 
ATOM     27  C   UNL d   1     -40.736  14.375  20.657  0.00  0.00     0.100 A 
ATOM     28  C   UNL d   1     -41.307  14.177  20.095  0.00  0.00     0.026 A 
ATOM     29  C   UNL d   1     -41.933  13.673  20.290  0.00  0.00     0.021 A 
BRANCH  27  30
ATOM     30  O   UNL d   1     -40.101  14.887  20.455  0.00  0.00    -0.305 OA
BRANCH  30  31
ATOM     31  C   UNL d   1     -39.711  14.792  19.733  0.00  0.00     0.123 C 
ATOM     32  C   UNL d   1     -39.290  15.417  19.416  0.00  0.00     0.029 C 
ENDBRANCH  30  31
ENDBRANCH  27  30
ENDBRANCH  22  24
ENDBRANCH  20  21
ENDBRANCH  19  20
ENDBRANCH  18  19
ENDBRANCH   5  18
TORSDOF 8
ENDMDL
MODEL 3
REMARK VINA RESULT:      -4.9      2.164      7.710
REMARK  8 active torsions:
REMARK  status: ('A' for Active; 'I' for Inactive)
REMARK    1  A    between atoms: C_21  and  C_3 
REMARK    2  A    between atoms: S_17  and  C_5 
REMARK    3  A    between atoms: C_11  and  C_16 
REMARK       I    between atoms: N_14  and  C_11 
REMARK    4  A    between atoms: C_19  and  N_14 
REMARK    5  A    between atoms: C_16  and  C_20 
REMARK    6  A    between atoms: C_20  and  S_17 
REMARK    7  A    between atoms: O_27  and  C_22 
REMARK    8  A    between atoms: C_30  and  O_27 
ROOT
ATOM      1  C   UNL d   1     -39.987  14.419  20.629  0.00  0.00     0.092 A 
ATOM      2  C   UNL d   1     -39.789  14.980  19.329  0.00  0.00     0.057 A 
ATOM      3  C   UNL d   1     -39.521  14.848  20.097  0.00  0.00     0.016 A 
ATOM      4  N   UNL d   1     -40.986  14.257  19.619  0.00  0.00    -0.239 NA
ATOM      5  C   UNL d   1     -40.719  14.123  20.390  0.00  0.00     0.120 A 
ATOM      6  C   UNL d   1     -40.522  14.685  19.090  0.00  0.00     0.081 A 
ATOM      7  C   UNL d   1     -39.324  15.407  18.801  0.00  0.00     0.193 A 
ATOM      8  C   UNL d   1     -39.709  14.288  21.407  0.00  0.00     0.103 C 
ATOM      9  N   UNL d   1     -39.435  14.154  22.188  0.00  0.00    -0.191 NA
ATOM     10  C   UNL d   1     -40.325  15.244  17.794  0.00  0.00     0.042 A 
ATOM     11  C   UNL d   1     -39.592  15.539  18.033  0.00  0.00     0.019 A 
ATOM     12  C   UNL d   1     -40.789  14.816  18.323  0.00  0.00    -0.003 A 
ATOM     13  O   UNL d   1     -38.592  15.702  19.040  0.00  0.00    -0.287 OA
ATOM     14  C   UNL d   1     -40.973  15.079  17.309  0.00  0.00     0.009 C 
ATOM     15  C   UNL d   1     -39.858  15.676  17.254  0.00  0.00     0.009 C 
ENDROOT
BRANCH   3  16
ATOM     16  C   UNL d   1     -38.789  15.143  20.335  0.00  0.00     0.001 C 
ATOM     17  C   UNL d   1     -38.736  15.895  20.667  0.00  0.00     0.000 C 
ENDBRANCH   3  16
BRANCH   5  18
ATOM     18  S   UNL d   1     -41.184  13.693  20.926  0.00  0.00    -0.067 SA
BRANCH  18  19
ATOM     19  C   UNL d   1     -42.008  13.694  20.846  0.00  0.00     0.042 C 
BRANCH  19  20
ATOM     20  C   UNL d   1     -42.451  13.031  21.084  0.00  0.00     0.070 C 
BRANCH  20  21
ATOM     21  C   UNL d   1     -43.170  13.135  21.480  0.00  0.00     0.280 C 
ATOM     22  N   UNL d   1     -43.718  12.510  21.518  0.00  0.00    -0.208 NA
ATOM     23  O   UNL d   1     -43.346  13.861  21.839  0.00  0.00    -0.265 OA
BRANCH  22  24
ATOM     24  C   UNL d   1     -44.438  12.613  21.913  0.00  0.00     0.085 A 
ATOM     25  C   UNL d   1     -44.982  13.177  21.644  0.00  0.00     0.021 A 
ATOM     26  C   UNL d   1     -45.696  13.274  22.042  0.00  0.00     0.026 A 
ATOM     27  C   UNL d   1     -45.882  12.812  22.715  0.00  0.00     0.100 A 
ATOM     28  C   UNL d   1     -45.335  12.252  22.977  0.00  0.00     0.026 A 
ATOM     29  C   UNL d   1     -44.616  12.149  22.582  0.00  0.00     0.021 A 
BRANCH  27  30
ATOM     30  O   UNL d   1     -46.612  12.915  23.118  0.00  0.00    -0.305 OA
BRANCH  30  31
ATOM     31  C   UNL d   1     -47.258  12.437  22.924  0.00  0.00     0.123 C 
ATOM     32  C   UNL d   1     -47.959  12.520  23.337  0.00  0.00     0.029 C 
ENDBRANCH  30  31
ENDBRANCH  27  30
ENDBRANCH  22  24
ENDBRANCH  20  21
ENDBRANCH  19  20
ENDBRANCH  18  19
ENDBRANCH   5  18
TORSDOF 8
ENDMDL
MODEL 4
REMARK VINA RESULT:      -4.5      0.906      2.240
REMARK  8 active torsions:
REMARK  status: ('A' for Active; 'I' for Inactive)
REMARK    1  A    between atoms: C_21  and  C_3 
REMARK    2  A    between atoms: S_17  and  C_5 
REMARK    3  A    between atoms: C_11  and  C_16 
REMARK       I    between atoms: N_14  and  C_11 
REMARK    4  A    between atoms: C_19  and  N_14 
REMARK    5  A    between atoms: C_16  and  C_20 
REMARK    6  A    between atoms: C_20  and  S_17 
REMARK    7  A    between atoms: O_27  and  C_22 
REMARK    8  A    between atoms: C_30  and  O_27 
ROOT
ATOM      1  C   UNL d   1     -48.281  14.258  22.851  0.00  0.00     0.092 A 
ATOM      2  C   UNL d   1     -49.398  13.403  23.109  0.00  0.00     0.057 A 
ATOM      3  C   UNL d   1     -49.099  14.144  22.909  0.00  0.00     0.016 A 
ATOM      4  N   UNL d   1     -48.070  12.887  23.196  0.00  0.00    -0.239 NA
ATOM      5  C   UNL d   1     -47.767  13.629  22.995  0.00  0.00     0.120 A 
ATOM      6  C   UNL d   1     -48.884  12.774  23.253  0.00  0.00     0.081 A 
ATOM      7  C   UNL d   1     -50.212  13.292  23.166  0.00  0.00     0.193 A 
ATOM      8  C   UNL d   1     -47.984  15.012  22.647  0.00  0.00     0.103 C 
ATOM      9  N   UNL d   1     -47.680  15.766  22.442  0.00  0.00    -0.191 NA
ATOM     10  C   UNL d   1     -49.997  11.923  23.511  0.00  0.00     0.042 A 
ATOM     11  C   UNL d   1     -50.511  12.552  23.367  0.00  0.00     0.019 A 
ATOM     12  C   UNL d   1     -49.183  12.035  23.454  0.00  0.00    -0.003 A 
ATOM     13  O   UNL d   1     -50.726  13.921  23.022  0.00  0.00    -0.287 OA
ATOM     14  C   UNL d   1     -49.738  11.161  23.698  0.00  0.00     0.009 C 
ATOM     15  C   UNL d   1     -50.821  11.804  23.570  0.00  0.00     0.009 C 
ENDROOT
BRANCH   3  16
ATOM     16  C   UNL d   1     -49.613  14.773  22.765  0.00  0.00     0.001 C 
ATOM     17  C   UNL d   1     -49.873  15.243  23.389  0.00  0.00     0.000 C 
ENDBRANCH   3  16
BRANCH   5  18
ATOM     18  S   UNL d   1     -46.947  13.745  22.937  0.00  0.00    -0.067 SA
BRANCH  18  19
ATOM     19  C   UNL d   1     -46.506  13.292  22.403  0.00  0.00     0.042 C 
BRANCH  19  20
ATOM     20  C   UNL d   1     -45.825  12.889  22.661  0.00  0.00     0.070 C 
BRANCH  20  21
ATOM     21  C   UNL d   1     -45.086  13.078  22.342  0.00  0.00     0.280 C 
ATOM     22  N   UNL d   1     -44.574  12.473  22.089  0.00  0.00    -0.208 NA
ATOM     23  O   UNL d   1     -44.854  13.871  22.273  0.00  0.00    -0.265 OA
BRANCH  22  24
ATOM     24  C   UNL d   1     -43.834  12.662  21.769  0.00  0.00     0.085 A 
ATOM     25  C   UNL d   1     -43.142  12.423  22.158  0.00  0.00     0.021 A 
ATOM     26  C   UNL d   1     -42.410  12.614  21.835  0.00  0.00     0.026 A 
ATOM     27  C   UNL d   1     -42.352  13.046  21.120  0.00  0.00     0.100 A 
ATOM     28  C   UNL d   1     -43.046  13.280  20.739  0.00  0.00     0.026 A 
ATOM     29  C   UNL d   1     -43.785  13.092  21.058  0.00  0.00     0.021 A 
BRANCH  27  30
ATOM     30  O   UNL d   1     -41.602  13.239  20.793  0.00  0.00    -0.305 OA
BRANCH  30  31
ATOM     31  C   UNL d   1     -41.365  14.030  20.751  0.00  0.00     0.123 C 
ATOM     32  C   UNL d   1     -40.623  14.213  20.459  0.00  0.00     0.029 C 
ENDBRANCH  30  31
ENDBRANCH  27  30
ENDBRANCH  22  24
ENDBRANCH  20  21
ENDBRANCH  19  20
ENDBRANCH  18  19
ENDBRANCH   5  18
TORSDOF 8
ENDMDL
