MODEL 1
REMARK VINA RESULT:      20.6      0.000      0.000
REMARK  3 active torsions:
REMARK  status: ('A' for Active; 'I' for Inactive)
REMARK    1  A    between atoms: N_2  and  C_1 
REMARK    2  A    between atoms: N_3  and  C_1 
REMARK       I    between atoms: C_4  and  N_3 
REMARK    3  A    between atoms: C_5  and  C_4 
ROOT
ATOM      1  C   UNL d   1      13.841  12.279  -2.143  0.00  0.00     0.209 C 
ATOM      2  S   UNL d   1      14.628  12.518  -1.993  0.00  0.00    -0.038 SA
ENDROOT
BRANCH   1   3
ATOM      3  N   UNL d   1      13.523  12.375  -2.905  0.00  0.00    -0.282 N 
ATOM      4  C   UNL d   1      13.471  13.086  -3.314  0.00  0.00     0.066 A 
ATOM      5  C   UNL d   1      13.121  12.926  -4.045  0.00  0.00     0.018 A 
ATOM      6  C   UNL d   1      13.693  13.857  -3.126  0.00  0.00     0.018 A 
ATOM      7  C   UNL d   1      12.992  13.537  -4.588  0.00  0.00     0.002 A 
ATOM      8  C   UNL d   1      12.960  12.118  -4.080  0.00  0.00     0.021 A 
ATOM      9  C   UNL d   1      13.217  14.313  -4.395  0.00  0.00     0.000 A 
ATOM     10  C   UNL d   1      13.567  14.473  -3.664  0.00  0.00     0.002 A 
ATOM     11  C   UNL d   1      13.211  11.779  -3.372  0.00  0.00     0.082 A 
ENDBRANCH   1   3
BRANCH   1  12
ATOM     12  N   UNL d   1      13.386  11.954  -1.544  0.00  0.00    -0.178 NA
ATOM     13  C   UNL d   1      13.580  12.108  -0.753  0.00  0.00     0.304 C 
ATOM     14  O   UNL d   1      13.122  11.779  -0.149  0.00  0.00    -0.263 OA
BRANCH  13  15
ATOM     15  C   UNL d   1      14.225  12.585  -0.559  0.00  0.00     0.158 A 
ATOM     16  O   UNL d   1      14.295  13.388  -0.432  0.00  0.00    -0.296 OA
ATOM     17  C   UNL d   1      15.091  13.550  -0.252  0.00  0.00     0.134 A 
ATOM     18 BR   UNL d   1      15.443  14.290  -0.079  0.00  0.00    -0.022 Br
ATOM     19  C   UNL d   1      15.500  12.837  -0.272  0.00  0.00     0.034 A 
ATOM     20  C   UNL d   1      14.963  12.243  -0.461  0.00  0.00     0.032 A 
ENDBRANCH  13  15
ENDBRANCH   1  12
TORSDOF 3
ENDMDL
