MODEL 1
REMARK VINA RESULT:     112.7      0.000      0.000
REMARK  7 active torsions:
REMARK  status: ('A' for Active; 'I' for Inactive)
REMARK    1  A    between atoms: S_2  and  C_1 
REMARK    2  A    between atoms: N_7  and  S_2 
REMARK    3  A    between atoms: C_8  and  C_3 
REMARK    4  A    between atoms: C_10  and  C_6 
REMARK    5  A    between atoms: O_21  and  C_8 
REMARK    6  A    between atoms: C_17  and  N_9 
REMARK    7  A    between atoms: O_22  and  C_10 
ROOT
ATOM      1  S   UNL d   1      60.639  46.237  50.980  0.00  0.00     0.277 S 
ATOM      2  O   UNL d   1      60.040  45.670  50.950  0.00  0.00    -0.199 OA
ATOM      3  O   UNL d   1      59.941  46.616  50.876  0.00  0.00    -0.199 OA
ENDROOT
BRANCH   1   4
ATOM      4  C   UNL d   1      60.792  47.055  50.942  0.00  0.00     0.139 A 
ATOM      5  C   UNL d   1      61.265  47.347  50.357  0.00  0.00     0.082 A 
ATOM      6  C   UNL d   1      61.313  48.156  50.459  0.00  0.00     0.018 A 
ATOM      7  C   UNL d   1      61.748  48.720  49.982  0.00  0.00     0.001 C 
ATOM      8  C   UNL d   1      60.866  48.362  51.112  0.00  0.00     0.093 A 
ATOM      9  S   UNL d   1      60.531  47.678  51.427  0.00  0.00    -0.069 SA
BRANCH   5  10
ATOM     10  C   UNL d   1      61.671  46.925  49.714  0.00  0.00     0.297 C 
ATOM     11  O   UNL d   1      61.240  46.635  49.065  0.00  0.00    -0.259 OA
BRANCH  10  12
ATOM     12  O   UNL d   1      62.495  46.823  49.769  0.00  0.00    -0.296 OA
ATOM     13  C   UNL d   1      62.912  46.467  49.135  0.00  0.00     0.185 C 
ENDBRANCH  10  12
ENDBRANCH   5  10
BRANCH   8  14
ATOM     14  C   UNL d   1      60.772  49.141  51.403  0.00  0.00     0.302 C 
ATOM     15  O   UNL d   1      60.335  49.689  50.977  0.00  0.00    -0.259 OA
BRANCH  14  16
ATOM     16  O   UNL d   1      61.135  49.339  52.135  0.00  0.00    -0.295 OA
ATOM     17  C   UNL d   1      60.717  49.708  52.739  0.00  0.00     0.185 C 
ENDBRANCH  14  16
ENDBRANCH   8  14
ENDBRANCH   1   4
BRANCH   1  18
ATOM     18  N   UNL d   1      60.999  45.480  51.071  0.00  0.00    -0.226 N 
ATOM     19  C   UNL d   1      61.254  45.187  51.827  0.00  0.00     0.111 A 
ATOM     20  C   UNL d   1      61.604  44.444  51.898  0.00  0.00     0.100 A 
ATOM     21  N   UNL d   1      61.718  43.964  51.243  0.00  0.00    -0.301 N 
ATOM     22  C   UNL d   1      61.471  44.247  50.510  0.00  0.00     0.100 A 
ATOM     23  C   UNL d   1      61.113  45.000  50.415  0.00  0.00     0.111 A 
BRANCH  21  24
ATOM     24  C   UNL d   1      62.054  43.242  51.292  0.00  0.00     0.064 A 
ATOM     25  C   UNL d   1      61.800  42.670  51.823  0.00  0.00     0.018 A 
ATOM     26  C   UNL d   1      62.155  41.927  51.866  0.00  0.00     0.002 A 
ATOM     27  C   UNL d   1      62.775  41.754  51.368  0.00  0.00     0.000 A 
ATOM     28  C   UNL d   1      63.040  42.320  50.831  0.00  0.00     0.002 A 
ATOM     29  C   UNL d   1      62.694  43.052  50.785  0.00  0.00     0.018 A 
ENDBRANCH  21  24
ENDBRANCH   1  18
TORSDOF 7
ENDMDL
MODEL 2
REMARK VINA RESULT:     115.7      2.430      5.182
REMARK  7 active torsions:
REMARK  status: ('A' for Active; 'I' for Inactive)
REMARK    1  A    between atoms: S_2  and  C_1 
REMARK    2  A    between atoms: N_7  and  S_2 
REMARK    3  A    between atoms: C_8  and  C_3 
REMARK    4  A    between atoms: C_10  and  C_6 
REMARK    5  A    between atoms: O_21  and  C_8 
REMARK    6  A    between atoms: C_17  and  N_9 
REMARK    7  A    between atoms: O_22  and  C_10 
ROOT
ATOM      1  S   UNL d   1      60.255  47.186  51.068  0.00  0.00     0.277 S 
ATOM      2  O   UNL d   1      60.404  47.995  51.139  0.00  0.00    -0.199 OA
ATOM      3  O   UNL d   1      61.033  47.283  51.235  0.00  0.00    -0.199 OA
ENDROOT
BRANCH   1   4
ATOM      4  C   UNL d   1      60.609  46.433  51.104  0.00  0.00     0.139 A 
ATOM      5  C   UNL d   1      61.245  46.267  50.636  0.00  0.00     0.082 A 
ATOM      6  C   UNL d   1      61.470  45.496  50.789  0.00  0.00     0.018 A 
ATOM      7  C   UNL d   1      62.117  45.058  50.435  0.00  0.00     0.001 C 
ATOM      8  C   UNL d   1      60.969  45.188  51.356  0.00  0.00     0.093 A 
ATOM      9  S   UNL d   1      60.420  45.766  51.565  0.00  0.00    -0.069 SA
BRANCH   5  10
ATOM     10  C   UNL d   1      61.653  46.775  50.059  0.00  0.00     0.297 C 
ATOM     11  O   UNL d   1      61.977  47.502  50.297  0.00  0.00    -0.259 OA
BRANCH  10  12
ATOM     12  O   UNL d   1      61.707  46.511  49.272  0.00  0.00    -0.296 OA
ATOM     13  C   UNL d   1      62.407  46.655  48.833  0.00  0.00     0.185 C 
ENDBRANCH  10  12
ENDBRANCH   5  10
BRANCH   8  14
ATOM     14  C   UNL d   1      61.014  44.412  51.666  0.00  0.00     0.302 C 
ATOM     15  O   UNL d   1      60.392  44.107  52.105  0.00  0.00    -0.259 OA
BRANCH  14  16
ATOM     16  O   UNL d   1      61.709  43.963  51.515  0.00  0.00    -0.295 OA
ATOM     17  C   UNL d   1      61.807  43.204  51.813  0.00  0.00     0.185 C 
ENDBRANCH  14  16
ENDBRANCH   8  14
ENDBRANCH   1   4
BRANCH   1  18
ATOM     18  N   UNL d   1      59.528  47.593  50.936  0.00  0.00    -0.226 N 
ATOM     19  C   UNL d   1      58.790  47.182  50.841  0.00  0.00     0.111 A 
ATOM     20  C   UNL d   1      58.088  47.595  50.713  0.00  0.00     0.100 A 
ATOM     21  N   UNL d   1      58.079  48.415  50.673  0.00  0.00    -0.301 N 
ATOM     22  C   UNL d   1      58.794  48.813  50.765  0.00  0.00     0.100 A 
ATOM     23  C   UNL d   1      59.519  48.412  50.896  0.00  0.00     0.111 A 
BRANCH  21  24
ATOM     24  C   UNL d   1      57.410  48.832  50.550  0.00  0.00     0.064 A 
ATOM     25  C   UNL d   1      56.816  48.890  51.112  0.00  0.00     0.018 A 
ATOM     26  C   UNL d   1      56.127  49.324  50.975  0.00  0.00     0.002 A 
ATOM     27  C   UNL d   1      56.035  49.706  50.262  0.00  0.00     0.000 A 
ATOM     28  C   UNL d   1      56.625  49.655  49.690  0.00  0.00     0.002 A 
ATOM     29  C   UNL d   1      57.303  49.230  49.820  0.00  0.00     0.018 A 
ENDBRANCH  21  24
ENDBRANCH   1  18
TORSDOF 7
ENDMDL
