MODEL 1
REMARK VINA RESULT:      -8.3      0.000      0.000
REMARK  4 active torsions:
REMARK  status: ('A' for Active; 'I' for Inactive)
REMARK    1  A    between atoms: C_7  and  N_1 
REMARK    2  A    between atoms: C_6  and  C_8 
REMARK    3  A    between atoms: O_16  and  C_6 
REMARK    4  A    between atoms: C_17  and  O_16 
ROOT
ATOM      1  C   UNL d   1      52.952  33.827  53.775  0.00  0.00     0.070 A 
ATOM      2  C   UNL d   1      51.562  34.142  52.946  0.00  0.00     0.064 A 
ATOM      3  C   UNL d   1      52.904  34.507  53.302  0.00  0.00     0.018 A 
ATOM      4  C   UNL d   1      52.310  33.316  53.828  0.00  0.00     0.018 A 
ATOM      5  C   UNL d   1      52.206  34.669  52.883  0.00  0.00     0.007 A 
ATOM      6  C   UNL d   1      51.620  33.471  53.417  0.00  0.00     0.007 A 
ENDROOT
BRANCH   1   7
ATOM      7  N   UNL d   1      53.642  33.659  54.195  0.00  0.00    -0.242 N 
ATOM      8  C   UNL d   1      53.873  34.015  54.916  0.00  0.00     0.267 A 
ATOM      9  C   UNL d   1      54.596  33.691  55.146  0.00  0.00     0.066 A 
ATOM     10  O   UNL d   1      53.474  34.594  55.353  0.00  0.00    -0.267 OA
ATOM     11  C   UNL d   1      54.818  33.134  54.573  0.00  0.00     0.066 A 
ATOM     12  C   UNL d   1      54.236  33.116  53.994  0.00  0.00     0.267 A 
ATOM     13  O   UNL d   1      54.281  32.614  53.329  0.00  0.00    -0.267 OA
ENDBRANCH   1   7
BRANCH   2  14
ATOM     14  C   UNL d   1      50.868  34.300  52.532  0.00  0.00     0.300 C 
ATOM     15  O   UNL d   1      50.834  34.143  51.704  0.00  0.00    -0.259 OA
BRANCH  14  16
ATOM     16  O   UNL d   1      50.209  34.611  52.922  0.00  0.00    -0.271 OA
BRANCH  16  17
ATOM     17  C   UNL d   1      49.515  34.792  52.491  0.00  0.00     0.126 C 
ATOM     18  C   UNL d   1      48.926  35.224  52.861  0.00  0.00     0.029 C 
ENDBRANCH  16  17
ENDBRANCH  14  16
ENDBRANCH   2  14
TORSDOF 4
ENDMDL
MODEL 2
REMARK VINA RESULT:      -8.2      1.897      3.460
REMARK  4 active torsions:
REMARK  status: ('A' for Active; 'I' for Inactive)
REMARK    1  A    between atoms: C_7  and  N_1 
REMARK    2  A    between atoms: C_6  and  C_8 
REMARK    3  A    between atoms: O_16  and  C_6 
REMARK    4  A    between atoms: C_17  and  O_16 
ROOT
ATOM      1  C   UNL d   1      53.102  33.405  53.734  0.00  0.00     0.070 A 
ATOM      2  C   UNL d   1      53.129  31.793  53.388  0.00  0.00     0.064 A 
ATOM      3  C   UNL d   1      53.829  33.027  53.609  0.00  0.00     0.018 A 
ATOM      4  C   UNL d   1      52.401  32.978  53.685  0.00  0.00     0.018 A 
ATOM      5  C   UNL d   1      53.847  32.216  53.435  0.00  0.00     0.007 A 
ATOM      6  C   UNL d   1      52.413  32.178  53.513  0.00  0.00     0.007 A 
ENDROOT
BRANCH   1   7
ATOM      7  N   UNL d   1      53.076  34.211  53.908  0.00  0.00    -0.242 N 
ATOM      8  C   UNL d   1      53.309  34.561  54.632  0.00  0.00     0.267 A 
ATOM      9  C   UNL d   1      53.195  35.376  54.575  0.00  0.00     0.066 A 
ATOM     10  O   UNL d   1      53.607  34.189  55.309  0.00  0.00    -0.267 OA
ATOM     11  C   UNL d   1      52.892  35.537  53.820  0.00  0.00     0.066 A 
ATOM     12  C   UNL d   1      52.820  34.827  53.415  0.00  0.00     0.267 A 
ATOM     13  O   UNL d   1      52.531  34.783  52.635  0.00  0.00    -0.267 OA
ENDBRANCH   1   7
BRANCH   2  14
ATOM     14  C   UNL d   1      53.143  30.989  53.215  0.00  0.00     0.300 C 
ATOM     15  O   UNL d   1      52.952  30.728  52.436  0.00  0.00    -0.259 OA
BRANCH  14  16
ATOM     16  O   UNL d   1      53.342  30.438  53.798  0.00  0.00    -0.271 OA
BRANCH  16  17
ATOM     17  C   UNL d   1      53.225  29.622  53.660  0.00  0.00     0.126 C 
ATOM     18  C   UNL d   1      53.344  29.098  54.278  0.00  0.00     0.029 C 
ENDBRANCH  16  17
ENDBRANCH  14  16
ENDBRANCH   2  14
TORSDOF 4
ENDMDL
MODEL 3
REMARK VINA RESULT:      -7.1      2.199      3.057
REMARK  4 active torsions:
REMARK  status: ('A' for Active; 'I' for Inactive)
REMARK    1  A    between atoms: C_7  and  N_1 
REMARK    2  A    between atoms: C_6  and  C_8 
REMARK    3  A    between atoms: O_16  and  C_6 
REMARK    4  A    between atoms: C_17  and  O_16 
ROOT
ATOM      1  C   UNL d   1      53.091  31.770  53.416  0.00  0.00     0.070 A 
ATOM      2  C   UNL d   1      52.971  33.414  53.417  0.00  0.00     0.064 A 
ATOM      3  C   UNL d   1      53.779  32.228  53.467  0.00  0.00     0.018 A 
ATOM      4  C   UNL d   1      52.355  32.134  53.367  0.00  0.00     0.018 A 
ATOM      5  C   UNL d   1      53.724  33.056  53.468  0.00  0.00     0.007 A 
ATOM      6  C   UNL d   1      52.294  32.950  53.367  0.00  0.00     0.007 A 
ENDROOT
BRANCH   1   7
ATOM      7  N   UNL d   1      53.138  30.946  53.415  0.00  0.00    -0.242 N 
ATOM      8  C   UNL d   1      53.285  30.465  54.084  0.00  0.00     0.267 A 
ATOM      9  C   UNL d   1      53.287  29.677  53.842  0.00  0.00     0.066 A 
ATOM     10  O   UNL d   1      53.410  30.701  54.867  0.00  0.00    -0.267 OA
ATOM     11  C   UNL d   1      53.143  29.662  53.025  0.00  0.00     0.066 A 
ATOM     12  C   UNL d   1      53.052  30.436  52.766  0.00  0.00     0.267 A 
ATOM     13  O   UNL d   1      52.899  30.627  51.969  0.00  0.00    -0.267 OA
ENDBRANCH   1   7
BRANCH   2  14
ATOM     14  C   UNL d   1      52.912  34.235  53.418  0.00  0.00     0.300 C 
ATOM     15  O   UNL d   1      52.692  34.636  52.710  0.00  0.00    -0.259 OA
BRANCH  14  16
ATOM     16  O   UNL d   1      53.068  34.666  54.106  0.00  0.00    -0.271 OA
BRANCH  16  17
ATOM     17  C   UNL d   1      52.948  35.493  54.118  0.00  0.00     0.126 C 
ATOM     18  C   UNL d   1      53.079  35.899  54.817  0.00  0.00     0.029 C 
ENDBRANCH  16  17
ENDBRANCH  14  16
ENDBRANCH   2  14
TORSDOF 4
ENDMDL
