MODEL 1
REMARK VINA RESULT:      23.1      0.000      0.000
REMARK  2 active torsions:
REMARK  status: ('A' for Active; 'I' for Inactive)
REMARK    1  A    between atoms: C_7  and  C_1 
REMARK    2  A    between atoms: C_9  and  C_1 
ROOT
ATOM      1  C   UNL d   1      46.097 -18.262  42.889  0.00  0.00     0.240 A 
ATOM      2  S   UNL d   1      46.174 -18.303  43.709  0.00  0.00    -0.043 SA
ATOM      3  N   UNL d   1      46.204 -18.938  42.430  0.00  0.00    -0.199 NA
ATOM      4  C   UNL d   1      46.357 -19.019  44.064  0.00  0.00     0.181 A 
ATOM      5  N   UNL d   1      46.467 -19.711  43.607  0.00  0.00    -0.236 N 
ATOM      6  C   UNL d   1      46.388 -19.656  42.789  0.00  0.00     0.352 A 
ATOM      7  N   UNL d   1      46.468 -19.225  44.865  0.00  0.00    -0.219 NA
ATOM      8  O   UNL d   1      46.493 -20.330  42.325  0.00  0.00    -0.244 OA
ATOM      9  C   UNL d   1      46.643 -20.330  44.123  0.00  0.00     0.107 A 
ATOM     10  C   UNL d   1      46.643 -20.031  44.895  0.00  0.00     0.120 A 
ENDROOT
BRANCH   1  11
ATOM     11  C   UNL d   1      46.020 -18.220  42.071  0.00  0.00     0.429 C 
ATOM     12  F   UNL d   1      45.953 -18.181  41.322  0.00  0.00    -0.167 F 
ATOM     13  F   UNL d   1      45.315 -18.251  41.590  0.00  0.00    -0.167 F 
ATOM     14  F   UNL d   1      46.636 -18.133  41.477  0.00  0.00    -0.167 F 
ENDBRANCH   1  11
BRANCH   1  15
ATOM     15  C   UNL d   1      45.992 -17.589  43.356  0.00  0.00     0.016 A 
ATOM     16  C   UNL d   1      45.241 -17.389  43.616  0.00  0.00    -0.001 A 
ATOM     17  C   UNL d   1      45.136 -16.717  44.082  0.00  0.00    -0.000 A 
ATOM     18  C   UNL d   1      45.782 -16.244  44.288  0.00  0.00    -0.000 A 
ATOM     19  C   UNL d   1      46.535 -16.455  44.022  0.00  0.00    -0.000 A 
ATOM     20  C   UNL d   1      45.677 -15.572  44.755  0.00  0.00    -0.000 C 
ATOM     21  C   UNL d   1      46.639 -17.120  43.560  0.00  0.00    -0.001 A 
ENDBRANCH   1  15
TORSDOF 2
ENDMDL
