MODEL 1
REMARK VINA RESULT:      -4.4      0.000      0.000
REMARK  6 active torsions:
REMARK  status: ('A' for Active; 'I' for Inactive)
REMARK    1  A    between atoms: C_11  and  N_2 
REMARK    2  A    between atoms: O_15  and  C_9 
REMARK    3  A    between atoms: C_10  and  O_14 
REMARK    4  A    between atoms: C_16  and  C_11 
REMARK    5  A    between atoms: O_14  and  C_17 
REMARK    6  A    between atoms: C_17  and  C_16 
ROOT
ATOM      1  C   UNL d   1      57.671  -1.116  31.059  0.00  0.00     0.087 C 
ENDROOT
BRANCH   1   2
ATOM      2  N   UNL d   1      57.220  -0.503  31.384  0.00  0.00    -0.251 N 
ATOM      3  C   UNL d   1      57.208   0.298  31.175  0.00  0.00     0.378 A 
ATOM      4  O   UNL d   1      56.661   0.682  31.670  0.00  0.00    -0.258 OA
ATOM      5  O   UNL d   1      57.659   0.652  30.581  0.00  0.00    -0.237 OA
ATOM      6  C   UNL d   1      56.337   0.119  32.182  0.00  0.00     0.121 A 
ATOM      7  C   UNL d   1      55.770   0.168  32.791  0.00  0.00     0.026 A 
ATOM      8  C   UNL d   1      56.682  -0.614  32.006  0.00  0.00     0.092 A 
ATOM      9  C   UNL d   1      55.555  -0.504  33.214  0.00  0.00     0.002 A 
ATOM     10  C   UNL d   1      55.903  -1.236  33.035  0.00  0.00     0.002 A 
ATOM     11  C   UNL d   1      56.463  -1.289  32.434  0.00  0.00     0.020 A 
ATOM     12  C   UNL d   1      55.688  -1.908  33.458  0.00  0.00     0.000 C 
ENDBRANCH   1   2
BRANCH   1  13
ATOM     13  C   UNL d   1      57.837  -1.131  30.255  0.00  0.00     0.046 C 
BRANCH  13  14
ATOM     14  C   UNL d   1      58.474  -1.570  29.965  0.00  0.00     0.124 C 
BRANCH  14  15
ATOM     15  O   UNL d   1      58.344  -2.266  29.558  0.00  0.00    -0.303 OA
BRANCH  15  16
ATOM     16  C   UNL d   1      59.008  -2.616  29.222  0.00  0.00     0.122 A 
ATOM     17  C   UNL d   1      58.946  -3.363  28.866  0.00  0.00     0.117 A 
ATOM     18  C   UNL d   1      59.613  -3.713  28.529  0.00  0.00     0.026 A 
ATOM     19  C   UNL d   1      60.335  -3.315  28.550  0.00  0.00     0.002 A 
ATOM     20  C   UNL d   1      60.390  -2.573  28.905  0.00  0.00     0.002 A 
ATOM     21  C   UNL d   1      59.726  -2.224  29.241  0.00  0.00     0.027 A 
BRANCH  17  22
ATOM     22  O   UNL d   1      58.220  -3.753  28.850  0.00  0.00    -0.326 OA
ATOM     23  C   UNL d   1      58.095  -4.475  28.483  0.00  0.00     0.181 C 
ENDBRANCH  17  22
ENDBRANCH  15  16
ENDBRANCH  14  15
ENDBRANCH  13  14
ENDBRANCH   1  13
TORSDOF 6
ENDMDL
MODEL 2
REMARK VINA RESULT:      -4.2      1.368      5.072
REMARK  6 active torsions:
REMARK  status: ('A' for Active; 'I' for Inactive)
REMARK    1  A    between atoms: C_11  and  N_2 
REMARK    2  A    between atoms: O_15  and  C_9 
REMARK    3  A    between atoms: C_10  and  O_14 
REMARK    4  A    between atoms: C_16  and  C_11 
REMARK    5  A    between atoms: O_14  and  C_17 
REMARK    6  A    between atoms: C_17  and  C_16 
ROOT
ATOM      1  C   UNL d   1      58.143  -0.471  29.949  0.00  0.00     0.087 C 
ENDROOT
BRANCH   1   2
ATOM      2  N   UNL d   1      58.857  -0.622  29.558  0.00  0.00    -0.251 N 
ATOM      3  C   UNL d   1      59.491  -0.107  29.421  0.00  0.00     0.378 A 
ATOM      4  O   UNL d   1      60.074  -0.529  29.004  0.00  0.00    -0.258 OA
ATOM      5  O   UNL d   1      59.536   0.682  29.657  0.00  0.00    -0.237 OA
ATOM      6  C   UNL d   1      59.800  -1.300  28.884  0.00  0.00     0.121 A 
ATOM      7  C   UNL d   1      60.131  -1.966  28.508  0.00  0.00     0.026 A 
ATOM      8  C   UNL d   1      59.048  -1.358  29.226  0.00  0.00     0.092 A 
ATOM      9  C   UNL d   1      59.714  -2.675  28.477  0.00  0.00     0.002 A 
ATOM     10  C   UNL d   1      58.962  -2.730  28.820  0.00  0.00     0.002 A 
ATOM     11  C   UNL d   1      58.630  -2.075  29.193  0.00  0.00     0.020 A 
ATOM     12  C   UNL d   1      58.545  -3.438  28.789  0.00  0.00     0.000 C 
ENDBRANCH   1   2
BRANCH   1  13
ATOM     13  C   UNL d   1      58.132  -0.025  30.639  0.00  0.00     0.046 C 
BRANCH  13  14
ATOM     14  C   UNL d   1      57.502  -0.089  31.170  0.00  0.00     0.124 C 
BRANCH  14  15
ATOM     15  O   UNL d   1      57.544   0.266  31.905  0.00  0.00    -0.303 OA
BRANCH  15  16
ATOM     16  C   UNL d   1      56.950   0.064  32.436  0.00  0.00     0.122 A 
ATOM     17  C   UNL d   1      57.023   0.273  33.236  0.00  0.00     0.117 A 
ATOM     18  C   UNL d   1      56.426   0.069  33.769  0.00  0.00     0.026 A 
ATOM     19  C   UNL d   1      55.763  -0.340  33.498  0.00  0.00     0.002 A 
ATOM     20  C   UNL d   1      55.697  -0.545  32.703  0.00  0.00     0.002 A 
ATOM     21  C   UNL d   1      56.291  -0.343  32.172  0.00  0.00     0.027 A 
BRANCH  17  22
ATOM     22  O   UNL d   1      57.689   0.682  33.495  0.00  0.00    -0.326 OA
ATOM     23  C   UNL d   1      57.987   0.638  34.258  0.00  0.00     0.181 C 
ENDBRANCH  17  22
ENDBRANCH  15  16
ENDBRANCH  14  15
ENDBRANCH  13  14
ENDBRANCH   1  13
TORSDOF 6
ENDMDL
MODEL 3
REMARK VINA RESULT:      -4.1      0.701      1.337
REMARK  6 active torsions:
REMARK  status: ('A' for Active; 'I' for Inactive)
REMARK    1  A    between atoms: C_11  and  N_2 
REMARK    2  A    between atoms: O_15  and  C_9 
REMARK    3  A    between atoms: C_10  and  O_14 
REMARK    4  A    between atoms: C_16  and  C_11 
REMARK    5  A    between atoms: O_14  and  C_17 
REMARK    6  A    between atoms: C_17  and  C_16 
ROOT
ATOM      1  C   UNL d   1      57.504  -1.167  31.008  0.00  0.00     0.087 C 
ENDROOT
BRANCH   1   2
ATOM      2  N   UNL d   1      57.180  -0.533  31.431  0.00  0.00    -0.251 N 
ATOM      3  C   UNL d   1      57.322   0.277  31.337  0.00  0.00     0.378 A 
ATOM      4  O   UNL d   1      56.859   0.682  31.898  0.00  0.00    -0.258 OA
ATOM      5  O   UNL d   1      57.830   0.622  30.786  0.00  0.00    -0.237 OA
ATOM      6  C   UNL d   1      56.436   0.123  32.335  0.00  0.00     0.121 A 
ATOM      7  C   UNL d   1      55.891   0.190  32.962  0.00  0.00     0.026 A 
ATOM      8  C   UNL d   1      56.633  -0.629  32.047  0.00  0.00     0.092 A 
ATOM      9  C   UNL d   1      55.552  -0.484  33.293  0.00  0.00     0.002 A 
ATOM     10  C   UNL d   1      55.753  -1.234  33.002  0.00  0.00     0.002 A 
ATOM     11  C   UNL d   1      56.290  -1.306  32.382  0.00  0.00     0.020 A 
ATOM     12  C   UNL d   1      55.414  -1.908  33.331  0.00  0.00     0.000 C 
ENDBRANCH   1   2
BRANCH   1  13
ATOM     13  C   UNL d   1      57.878  -1.040  30.288  0.00  0.00     0.046 C 
BRANCH  13  14
ATOM     14  C   UNL d   1      58.260  -1.661  29.897  0.00  0.00     0.124 C 
BRANCH  14  15
ATOM     15  O   UNL d   1      58.747  -1.510  29.260  0.00  0.00    -0.303 OA
BRANCH  15  16
ATOM     16  C   UNL d   1      59.232  -2.130  29.024  0.00  0.00     0.122 A 
ATOM     17  C   UNL d   1      59.976  -1.969  28.692  0.00  0.00     0.117 A 
ATOM     18  C   UNL d   1      60.463  -2.592  28.455  0.00  0.00     0.026 A 
ATOM     19  C   UNL d   1      60.203  -3.369  28.551  0.00  0.00     0.002 A 
ATOM     20  C   UNL d   1      59.464  -3.522  28.881  0.00  0.00     0.002 A 
ATOM     21  C   UNL d   1      58.978  -2.903  29.117  0.00  0.00     0.027 A 
BRANCH  17  22
ATOM     22  O   UNL d   1      60.226  -1.189  28.601  0.00  0.00    -0.326 OA
ATOM     23  C   UNL d   1      61.012  -0.955  28.611  0.00  0.00     0.181 C 
ENDBRANCH  17  22
ENDBRANCH  15  16
ENDBRANCH  14  15
ENDBRANCH  13  14
ENDBRANCH   1  13
TORSDOF 6
ENDMDL
