MODEL 1
REMARK VINA RESULT:      75.8      0.000      0.000
REMARK  3 active torsions:
REMARK  status: ('A' for Active; 'I' for Inactive)
REMARK    1  A    between atoms: C_8  and  N_1 
REMARK    2  A    between atoms: N_7  and  C_2 
REMARK    3  A    between atoms: C_16  and  C_8 
ROOT
ATOM      1  N   UNL d   1      60.170  48.360  50.939  0.00  0.00    -0.225 N 
ATOM      2  C   UNL d   1      58.624  48.859  50.679  0.00  0.00     0.158 A 
ATOM      3  C   UNL d   1      60.011  49.157  50.790  0.00  0.00     0.358 A 
ATOM      4  N   UNL d   1      59.241  49.403  50.661  0.00  0.00    -0.174 NA
ATOM      5  C   UNL d   1      59.559  47.809  50.958  0.00  0.00     0.271 A 
ATOM      6  C   UNL d   1      58.783  48.062  50.828  0.00  0.00     0.099 A 
ATOM      7  O   UNL d   1      60.632  49.706  50.772  0.00  0.00    -0.244 OA
ATOM      8  O   UNL d   1      59.719  47.011  51.107  0.00  0.00    -0.266 OA
ENDROOT
BRANCH   1   9
ATOM      9  C   UNL d   1      60.946  48.111  51.068  0.00  0.00     0.087 C 
BRANCH   9  10
ATOM     10  C   UNL d   1      61.273  47.519  50.595  0.00  0.00     0.018 A 
ATOM     11  C   UNL d   1      61.163  46.727  50.807  0.00  0.00     0.004 A 
ATOM     12  C   UNL d   1      61.490  46.135  50.334  0.00  0.00     0.030 A 
ATOM     13  C   UNL d   1      61.918  46.339  49.663  0.00  0.00     0.140 A 
ATOM     14  C   UNL d   1      62.024  47.120  49.459  0.00  0.00     0.030 A 
ATOM     15  F   UNL d   1      62.244  45.739  49.193  0.00  0.00    -0.204 F 
ATOM     16  C   UNL d   1      61.702  47.714  49.924  0.00  0.00     0.004 A 
ENDBRANCH   9  10
ENDBRANCH   1   9
BRANCH   2  17
ATOM     17  N   UNL d   1      57.849  49.105  50.550  0.00  0.00    -0.285 N 
ATOM     18  C   UNL d   1      57.365  49.282  51.183  0.00  0.00     0.106 A 
ATOM     19  C   UNL d   1      56.590  49.527  51.054  0.00  0.00     0.118 A 
ATOM     20  C   UNL d   1      56.100  49.707  51.693  0.00  0.00     0.028 C 
ATOM     21  O   UNL d   1      56.295  49.596  50.294  0.00  0.00    -0.304 OA
ATOM     22  C   UNL d   1      56.791  49.414  49.638  0.00  0.00     0.118 A 
ATOM     23  C   UNL d   1      57.567  49.168  49.771  0.00  0.00     0.106 A 
ATOM     24  C   UNL d   1      56.498  49.481  48.872  0.00  0.00     0.028 C 
ENDBRANCH   2  17
TORSDOF 3
ENDMDL
