MODEL 1
REMARK VINA RESULT:      -1.1      0.000      0.000
REMARK  2 active torsions:
REMARK  status: ('A' for Active; 'I' for Inactive)
REMARK    1  A    between atoms: C_6  and  C_2 
REMARK    2  A    between atoms: C_7  and  C_3 
ROOT
ATOM      1  N   UNL d   1      31.143  16.851 -23.736  0.00  0.00    -0.243 NA
ATOM      2  C   UNL d   1      30.951  17.582 -24.060  0.00  0.00     0.104 A 
ATOM      3  C   UNL d   1      32.234  18.321 -23.989  0.00  0.00     0.033 A 
ATOM      4  S   UNL d   1      32.739  17.770 -23.647  0.00  0.00    -0.085 SA
ATOM      5  C   UNL d   1      31.457  18.239 -24.168  0.00  0.00     0.028 A 
ATOM      6  C   UNL d   1      31.874  16.596 -23.444  0.00  0.00     0.087 A 
ATOM      7  C   UNL d   1      32.590  17.008 -23.404  0.00  0.00     0.047 A 
ATOM      8  C   UNL d   1      31.818  15.826 -23.173  0.00  0.00     0.020 A 
ATOM      9  C   UNL d   1      33.241  16.646 -23.094  0.00  0.00     0.008 A 
ATOM     10  C   UNL d   1      33.212  15.863 -22.810  0.00  0.00     0.001 A 
ATOM     11  C   UNL d   1      32.499  15.453 -22.850  0.00  0.00     0.002 A 
ENDROOT
BRANCH   3  12
ATOM     12  C   UNL d   1      32.572  19.051 -24.169  0.00  0.00     0.034 A 
ATOM     13  C   UNL d   1      32.585  19.662 -23.593  0.00  0.00     0.141 A 
ATOM     14  F   UNL d   1      32.259  19.527 -22.852  0.00  0.00    -0.204 F 
ATOM     15  C   UNL d   1      32.920  20.384 -23.775  0.00  0.00     0.030 A 
ATOM     16  C   UNL d   1      33.240  20.513 -24.506  0.00  0.00     0.002 A 
ATOM     17  C   UNL d   1      33.240  19.922 -25.097  0.00  0.00     0.000 A 
ATOM     18  C   UNL d   1      32.902  19.191 -24.917  0.00  0.00     0.003 A 
ENDBRANCH   3  12
BRANCH   2  19
ATOM     19  C   UNL d   1      30.168  17.666 -24.302  0.00  0.00     0.118 A 
ATOM     20  O   UNL d   1      29.525  17.874 -23.828  0.00  0.00    -0.304 OA
ATOM     21  C   UNL d   1      28.850  17.889 -24.312  0.00  0.00     0.123 A 
ATOM     22  C   UNL d   1      29.073  17.693 -25.084  0.00  0.00     0.029 A 
ATOM     23  C   UNL d   1      29.885  17.555 -25.077  0.00  0.00     0.028 A 
ENDBRANCH   2  19
TORSDOF 2
ENDMDL
