MODEL 1
REMARK VINA RESULT:      21.5      0.000      0.000
REMARK  3 active torsions:
REMARK  status: ('A' for Active; 'I' for Inactive)
REMARK    1  A    between atoms: C_6  and  C_1 
REMARK    2  A    between atoms: C_7  and  C_4 
REMARK    3  A    between atoms: O_14  and  C_6 
ROOT
ATOM      1  C   UNL d   1      14.697  13.832  -0.975  0.00  0.00     0.167 A 
ATOM      2  C   UNL d   1      14.623  14.148  -1.739  0.00  0.00     0.047 A 
ATOM      3  N   UNL d   1      14.077  12.636  -1.407  0.00  0.00    -0.148 NA
ATOM      4  C   UNL d   1      14.002  12.947  -2.169  0.00  0.00     0.105 A 
ATOM      5  N   UNL d   1      14.424  13.074  -0.806  0.00  0.00    -0.143 NA
ENDROOT
BRANCH   4   6
ATOM      6  C   UNL d   1      13.696  12.676  -2.884  0.00  0.00     0.019 A 
ATOM      7  C   UNL d   1      13.113  12.092  -2.880  0.00  0.00     0.002 A 
ATOM      8  C   UNL d   1      12.806  11.821  -3.594  0.00  0.00     0.000 A 
ATOM      9  C   UNL d   1      12.838  11.781  -2.173  0.00  0.00     0.000 C 
ATOM     10  C   UNL d   1      13.082  12.134  -4.312  0.00  0.00     0.000 A 
ATOM     11  C   UNL d   1      13.664  12.716  -4.305  0.00  0.00     0.000 A 
ATOM     12  C   UNL d   1      12.773  11.860  -5.027  0.00  0.00     0.000 C 
ATOM     13  C   UNL d   1      13.971  12.987  -3.596  0.00  0.00     0.002 A 
ENDBRANCH   4   6
BRANCH   1  14
ATOM     14  C   UNL d   1      15.048  14.286  -0.379  0.00  0.00     0.316 C 
ATOM     15  O   UNL d   1      15.749  14.032  -0.033  0.00  0.00    -0.257 OA
BRANCH  14  16
ATOM     16  O   UNL d   1      14.698  14.985  -0.134  0.00  0.00    -0.294 OA
ATOM     17  C   UNL d   1      15.049  15.739  -0.341  0.00  0.00     0.185 C 
ENDBRANCH  14  16
ENDBRANCH   1  14
TORSDOF 3
ENDMDL
