MODEL 1
REMARK VINA RESULT:      -4.5      0.000      0.000
REMARK  3 active torsions:
REMARK  status: ('A' for Active; 'I' for Inactive)
REMARK    1  A    between atoms: C_6  and  C_5 
REMARK    2  A    between atoms: C_7  and  C_6 
REMARK    3  A    between atoms: O_11  and  C_7 
ROOT
ATOM      1  N   UNL d   1     -41.953-122.734 -55.212  0.00  0.00    -0.163 NA
ATOM      2  C   UNL d   1     -42.229-122.003 -54.941  0.00  0.00     0.313 A 
ATOM      3  C   UNL d   1     -41.505-123.079 -54.611  0.00  0.00     0.288 A 
ATOM      4  S   UNL d   1     -41.948-121.903 -54.173  0.00  0.00    -0.021 SA
ATOM      5  C   UNL d   1     -41.506-122.559 -53.970  0.00  0.00     0.097 A 
ATOM      6  O   UNL d   1     -42.699-121.477 -55.368  0.00  0.00    -0.258 OA
ATOM      7  O   UNL d   1     -41.125-123.813 -54.647  0.00  0.00    -0.265 OA
ENDROOT
BRANCH   5   8
ATOM      8  C   UNL d   1     -41.123-122.689 -53.252  0.00  0.00     0.080 C 
BRANCH   8   9
ATOM      9  C   UNL d   1     -41.382-122.306 -52.573  0.00  0.00     0.297 C 
ATOM     10  O   UNL d   1     -41.207-121.505 -52.457  0.00  0.00    -0.259 OA
BRANCH   9  11
ATOM     11  O   UNL d   1     -41.816-122.708 -52.005  0.00  0.00    -0.296 OA
ATOM     12  C   UNL d   1     -41.615-122.648 -51.212  0.00  0.00     0.185 C 
ENDBRANCH   9  11
ENDBRANCH   8   9
ENDBRANCH   5   8
TORSDOF 3
ENDMDL
MODEL 2
REMARK VINA RESULT:      -4.0      1.542      2.828
REMARK  3 active torsions:
REMARK  status: ('A' for Active; 'I' for Inactive)
REMARK    1  A    between atoms: C_6  and  C_5 
REMARK    2  A    between atoms: C_7  and  C_6 
REMARK    3  A    between atoms: O_11  and  C_7 
ROOT
ATOM      1  N   UNL d   1     -41.180-122.544 -51.601  0.00  0.00    -0.163 NA
ATOM      2  C   UNL d   1     -41.169-121.744 -51.811  0.00  0.00     0.313 A 
ATOM      3  C   UNL d   1     -41.231-122.991 -52.292  0.00  0.00     0.288 A 
ATOM      4  S   UNL d   1     -41.214-121.705 -52.633  0.00  0.00    -0.021 SA
ATOM      5  C   UNL d   1     -41.252-122.466 -52.928  0.00  0.00     0.097 A 
ATOM      6  O   UNL d   1     -41.123-121.108 -51.288  0.00  0.00    -0.258 OA
ATOM      7  O   UNL d   1     -41.256-123.817 -52.336  0.00  0.00    -0.265 OA
ENDROOT
BRANCH   5   8
ATOM      8  C   UNL d   1     -41.302-122.682 -53.722  0.00  0.00     0.080 C 
BRANCH   8   9
ATOM      9  C   UNL d   1     -41.807-122.274 -54.227  0.00  0.00     0.297 C 
ATOM     10  O   UNL d   1     -42.607-122.189 -54.032  0.00  0.00    -0.259 OA
BRANCH   9  11
ATOM     11  O   UNL d   1     -41.527-121.949 -54.925  0.00  0.00    -0.296 OA
ATOM     12  C   UNL d   1     -42.000-121.938 -55.596  0.00  0.00     0.185 C 
ENDBRANCH   9  11
ENDBRANCH   8   9
ENDBRANCH   5   8
TORSDOF 3
ENDMDL
MODEL 3
REMARK VINA RESULT:      -3.6      1.797      2.739
REMARK  3 active torsions:
REMARK  status: ('A' for Active; 'I' for Inactive)
REMARK    1  A    between atoms: C_6  and  C_5 
REMARK    2  A    between atoms: C_7  and  C_6 
REMARK    3  A    between atoms: O_11  and  C_7 
ROOT
ATOM      1  N   UNL d   1     -41.151-122.007 -52.799  0.00  0.00    -0.163 NA
ATOM      2  C   UNL d   1     -41.225-122.829 -52.856  0.00  0.00     0.313 A 
ATOM      3  C   UNL d   1     -41.177-121.801 -52.002  0.00  0.00     0.288 A 
ATOM      4  S   UNL d   1     -41.297-123.123 -52.090  0.00  0.00    -0.021 SA
ATOM      5  C   UNL d   1     -41.267-122.496 -51.567  0.00  0.00     0.097 A 
ATOM      6  O   UNL d   1     -41.226-123.266 -53.556  0.00  0.00    -0.258 OA
ATOM      7  O   UNL d   1     -41.123-121.034 -51.695  0.00  0.00    -0.265 OA
ENDROOT
BRANCH   5   8
ATOM      8  C   UNL d   1     -41.319-122.541 -50.745  0.00  0.00     0.080 C 
BRANCH   8   9
ATOM      9  C   UNL d   1     -41.906-122.997 -50.395  0.00  0.00     0.297 C 
ATOM     10  O   UNL d   1     -41.816-123.817 -50.340  0.00  0.00    -0.259 OA
BRANCH   9  11
ATOM     11  O   UNL d   1     -42.585-122.647 -50.098  0.00  0.00    -0.296 OA
ATOM     12  C   UNL d   1     -42.789-122.741 -49.308  0.00  0.00     0.185 C 
ENDBRANCH   9  11
ENDBRANCH   8   9
ENDBRANCH   5   8
TORSDOF 3
ENDMDL
MODEL 4
REMARK VINA RESULT:      -3.5      1.893      3.385
REMARK  3 active torsions:
REMARK  status: ('A' for Active; 'I' for Inactive)
REMARK    1  A    between atoms: C_6  and  C_5 
REMARK    2  A    between atoms: C_7  and  C_6 
REMARK    3  A    between atoms: O_11  and  C_7 
ROOT
ATOM      1  N   UNL d   1     -41.658-122.407 -50.571  0.00  0.00    -0.163 NA
ATOM      2  C   UNL d   1     -41.769-123.199 -50.782  0.00  0.00     0.313 A 
ATOM      3  C   UNL d   1     -41.404-121.996 -51.239  0.00  0.00     0.288 A 
ATOM      4  S   UNL d   1     -41.582-123.269 -51.581  0.00  0.00    -0.021 SA
ATOM      5  C   UNL d   1     -41.358-122.535 -51.862  0.00  0.00     0.097 A 
ATOM      6  O   UNL d   1     -42.022-123.802 -50.279  0.00  0.00    -0.258 OA
ATOM      7  O   UNL d   1     -41.227-121.188 -51.275  0.00  0.00    -0.265 OA
ENDROOT
BRANCH   5   8
ATOM      8  C   UNL d   1     -41.126-122.354 -52.632  0.00  0.00     0.080 C 
BRANCH   8   9
ATOM      9  C   UNL d   1     -41.401-122.807 -53.260  0.00  0.00     0.297 C 
ATOM     10  O   UNL d   1     -41.123-123.579 -53.367  0.00  0.00    -0.259 OA
BRANCH   9  11
ATOM     11  O   UNL d   1     -41.951-122.502 -53.786  0.00  0.00    -0.296 OA
ATOM     12  C   UNL d   1     -41.832-122.570 -54.595  0.00  0.00     0.185 C 
ENDBRANCH   9  11
ENDBRANCH   8   9
ENDBRANCH   5   8
TORSDOF 3
ENDMDL
MODEL 5
REMARK VINA RESULT:      -3.1      2.882      4.444
REMARK  3 active torsions:
REMARK  status: ('A' for Active; 'I' for Inactive)
REMARK    1  A    between atoms: C_6  and  C_5 
REMARK    2  A    between atoms: C_7  and  C_6 
REMARK    3  A    between atoms: O_11  and  C_7 
ROOT
ATOM      1  N   UNL d   1     -42.476-123.008 -48.905  0.00  0.00    -0.163 NA
ATOM      2  C   UNL d   1     -41.654-123.068 -48.972  0.00  0.00     0.313 A 
ATOM      3  C   UNL d   1     -42.778-122.787 -49.639  0.00  0.00     0.288 A 
ATOM      4  S   UNL d   1     -41.456-122.884 -49.750  0.00  0.00    -0.021 SA
ATOM      5  C   UNL d   1     -42.143-122.711 -50.159  0.00  0.00     0.097 A 
ATOM      6  O   UNL d   1     -41.134-123.277 -48.367  0.00  0.00    -0.258 OA
ATOM      7  O   UNL d   1     -43.577-122.663 -49.819  0.00  0.00    -0.265 OA
ENDROOT
BRANCH   5   8
ATOM      8  C   UNL d   1     -42.200-122.498 -50.953  0.00  0.00     0.080 C 
BRANCH   8   9
ATOM      9  C   UNL d   1     -41.521-122.316 -51.379  0.00  0.00     0.297 C 
ATOM     10  O   UNL d   1     -41.127-121.600 -51.245  0.00  0.00    -0.259 OA
BRANCH   9  11
ATOM     11  O   UNL d   1     -41.226-122.838 -51.939  0.00  0.00    -0.296 OA
ATOM     12  C   UNL d   1     -41.123-122.596 -52.716  0.00  0.00     0.185 C 
ENDBRANCH   9  11
ENDBRANCH   8   9
ENDBRANCH   5   8
TORSDOF 3
ENDMDL
MODEL 6
REMARK VINA RESULT:      -2.1      4.039      4.904
REMARK  3 active torsions:
REMARK  status: ('A' for Active; 'I' for Inactive)
REMARK    1  A    between atoms: C_6  and  C_5 
REMARK    2  A    between atoms: C_7  and  C_6 
REMARK    3  A    between atoms: O_11  and  C_7 
ROOT
ATOM      1  N   UNL d   1     -42.353-122.476 -50.380  0.00  0.00    -0.163 NA
ATOM      2  C   UNL d   1     -43.120-122.431 -50.072  0.00  0.00     0.313 A 
ATOM      3  C   UNL d   1     -41.918-122.992 -49.908  0.00  0.00     0.288 A 
ATOM      4  S   UNL d   1     -43.150-122.922 -49.412  0.00  0.00    -0.021 SA
ATOM      5  C   UNL d   1     -42.416-123.266 -49.310  0.00  0.00     0.097 A 
ATOM      6  O   UNL d   1     -43.736-121.975 -50.377  0.00  0.00    -0.258 OA
ATOM      7  O   UNL d   1     -41.123-123.198 -50.017  0.00  0.00    -0.265 OA
ENDROOT
BRANCH   5   8
ATOM      8  C   UNL d   1     -42.200-123.796 -48.716  0.00  0.00     0.080 C 
BRANCH   8   9
ATOM      9  C   UNL d   1     -42.367-123.621 -47.931  0.00  0.00     0.297 C 
ATOM     10  O   UNL d   1     -43.131-123.734 -47.634  0.00  0.00    -0.259 OA
BRANCH   9  11
ATOM     11  O   UNL d   1     -41.782-123.333 -47.434  0.00  0.00    -0.296 OA
ATOM     12  C   UNL d   1     -41.650-123.683 -46.703  0.00  0.00     0.185 C 
ENDBRANCH   9  11
ENDBRANCH   8   9
ENDBRANCH   5   8
TORSDOF 3
ENDMDL
