MODEL 1
REMARK VINA RESULT:      -5.3      0.000      0.000
REMARK  4 active torsions:
REMARK  status: ('A' for Active; 'I' for Inactive)
REMARK    1  A    between atoms: C_30  and  N_11 
REMARK    2  A    between atoms: C_29  and  N_12 
REMARK    3  A    between atoms: C_16  and  C_13 
REMARK    4  A    between atoms: C_15  and  C_14 
ROOT
ATOM      1  N   UNL d   1      52.489  33.239  53.486  0.00  0.00    -0.240 N 
ATOM      2  N   UNL d   1      53.091  33.596  53.990  0.00  0.00    -0.240 N 
ATOM      3  C   UNL d   1      52.728  32.446  53.320  0.00  0.00     0.144 A 
ATOM      4  C   UNL d   1      52.852  34.389  54.156  0.00  0.00     0.144 A 
ATOM      5  C   UNL d   1      52.099  34.538  53.757  0.00  0.00     0.097 A 
ATOM      6  C   UNL d   1      53.475  32.306  53.717  0.00  0.00     0.097 A 
ATOM      7  C   UNL d   1      52.516  31.731  52.911  0.00  0.00     0.285 A 
ATOM      8  C   UNL d   1      53.082  35.098  54.573  0.00  0.00     0.285 A 
ATOM      9  C   UNL d   1      53.715  31.508  53.550  0.00  0.00     0.270 A 
ATOM     10  C   UNL d   1      51.869  35.342  53.933  0.00  0.00     0.270 A 
ATOM     11  N   UNL d   1      52.473  35.690  54.435  0.00  0.00    -0.239 N 
ATOM     12  N   UNL d   1      53.116  31.157  53.050  0.00  0.00    -0.239 N 
ATOM     13  C   UNL d   1      51.885  33.828  53.350  0.00  0.00     0.094 A 
ATOM     14  C   UNL d   1      53.690  33.012  54.124  0.00  0.00     0.094 A 
ATOM     15  O   UNL d   1      53.753  35.202  55.019  0.00  0.00    -0.265 OA
ATOM     16  O   UNL d   1      51.196  35.716  53.673  0.00  0.00    -0.266 OA
ATOM     17  O   UNL d   1      54.390  31.139  53.814  0.00  0.00    -0.266 OA
ATOM     18  O   UNL d   1      51.843  31.623  52.462  0.00  0.00    -0.265 OA
ENDROOT
BRANCH  13  19
ATOM     19  C   UNL d   1      51.210  33.728  52.902  0.00  0.00     0.047 A 
ATOM     20  S   UNL d   1      51.129  33.938  52.122  0.00  0.00    -0.085 SA
ATOM     21  C   UNL d   1      50.375  33.743  51.897  0.00  0.00     0.035 A 
ATOM     22  C   UNL d   1      49.994  33.413  52.539  0.00  0.00     0.007 A 
ATOM     23  C   UNL d   1      50.522  33.409  53.156  0.00  0.00     0.009 A 
ENDBRANCH  13  19
BRANCH  11  24
ATOM     24  C   UNL d   1      52.469  36.446  54.729  0.00  0.00     0.086 C 
ATOM     25  C   UNL d   1      53.097  36.709  55.197  0.00  0.00     0.021 C 
ENDBRANCH  11  24
BRANCH  14  26
ATOM     26  C   UNL d   1      54.354  33.119  54.568  0.00  0.00     0.047 A 
ATOM     27  S   UNL d   1      55.083  33.353  54.285  0.00  0.00    -0.085 SA
ATOM     28  C   UNL d   1      55.585  33.390  54.911  0.00  0.00     0.035 A 
ATOM     29  C   UNL d   1      55.175  33.182  55.574  0.00  0.00     0.007 A 
ATOM     30  C   UNL d   1      54.418  33.015  55.363  0.00  0.00     0.009 A 
ENDBRANCH  14  26
BRANCH  12  31
ATOM     31  C   UNL d   1      53.130  30.393  52.759  0.00  0.00     0.086 C 
ATOM     32  C   UNL d   1      52.880  29.767  53.235  0.00  0.00     0.021 C 
ENDBRANCH  12  31
TORSDOF 4
ENDMDL
MODEL 2
REMARK VINA RESULT:      -5.0      0.027      4.649
REMARK  4 active torsions:
REMARK  status: ('A' for Active; 'I' for Inactive)
REMARK    1  A    between atoms: C_30  and  N_11 
REMARK    2  A    between atoms: C_29  and  N_12 
REMARK    3  A    between atoms: C_16  and  C_13 
REMARK    4  A    between atoms: C_15  and  C_14 
ROOT
ATOM      1  N   UNL d   1      53.080  33.600  53.983  0.00  0.00    -0.240 N 
ATOM      2  N   UNL d   1      52.478  33.247  53.477  0.00  0.00    -0.240 N 
ATOM      3  C   UNL d   1      52.844  34.394  54.150  0.00  0.00     0.144 A 
ATOM      4  C   UNL d   1      52.714  32.453  53.310  0.00  0.00     0.144 A 
ATOM      5  C   UNL d   1      53.466  32.301  53.710  0.00  0.00     0.097 A 
ATOM      6  C   UNL d   1      52.098  34.538  53.751  0.00  0.00     0.097 A 
ATOM      7  C   UNL d   1      53.058  35.107  54.561  0.00  0.00     0.285 A 
ATOM      8  C   UNL d   1      52.482  31.746  52.891  0.00  0.00     0.285 A 
ATOM      9  C   UNL d   1      51.860  35.336  53.919  0.00  0.00     0.270 A 
ATOM     10  C   UNL d   1      53.694  31.496  53.533  0.00  0.00     0.270 A 
ATOM     11  N   UNL d   1      53.089  31.152  53.029  0.00  0.00    -0.239 N 
ATOM     12  N   UNL d   1      52.460  35.684  54.422  0.00  0.00    -0.239 N 
ATOM     13  C   UNL d   1      53.682  33.009  54.119  0.00  0.00     0.094 A 
ATOM     14  C   UNL d   1      51.881  33.833  53.343  0.00  0.00     0.094 A 
ATOM     15  O   UNL d   1      51.812  31.646  52.443  0.00  0.00    -0.265 OA
ATOM     16  O   UNL d   1      54.364  31.119  53.794  0.00  0.00    -0.266 OA
ATOM     17  O   UNL d   1      51.187  35.708  53.654  0.00  0.00    -0.266 OA
ATOM     18  O   UNL d   1      53.730  35.212  55.012  0.00  0.00    -0.265 OA
ENDROOT
BRANCH  13  19
ATOM     19  C   UNL d   1      54.356  33.105  54.569  0.00  0.00     0.047 A 
ATOM     20  S   UNL d   1      55.079  33.344  54.285  0.00  0.00    -0.085 SA
ATOM     21  C   UNL d   1      55.588  33.366  54.915  0.00  0.00     0.035 A 
ATOM     22  C   UNL d   1      55.179  33.140  55.584  0.00  0.00     0.007 A 
ATOM     23  C   UNL d   1      54.416  32.981  55.356  0.00  0.00     0.009 A 
ENDBRANCH  13  19
BRANCH  11  24
ATOM     24  C   UNL d   1      53.090  30.396  52.733  0.00  0.00     0.086 C 
ATOM     25  C   UNL d   1      52.906  29.760  53.227  0.00  0.00     0.021 C 
ENDBRANCH  11  24
BRANCH  14  26
ATOM     26  C   UNL d   1      51.218  33.730  52.897  0.00  0.00     0.047 A 
ATOM     27  S   UNL d   1      51.130  33.948  52.115  0.00  0.00    -0.085 SA
ATOM     28  C   UNL d   1      50.387  33.745  51.889  0.00  0.00     0.035 A 
ATOM     29  C   UNL d   1      50.017  33.404  52.520  0.00  0.00     0.007 A 
ATOM     30  C   UNL d   1      50.528  33.395  53.140  0.00  0.00     0.009 A 
ENDBRANCH  14  26
BRANCH  12  31
ATOM     31  C   UNL d   1      52.448  36.447  54.714  0.00  0.00     0.086 C 
ATOM     32  C   UNL d   1      53.056  36.709  55.208  0.00  0.00     0.021 C 
ENDBRANCH  12  31
TORSDOF 4
ENDMDL
MODEL 3
REMARK VINA RESULT:      -4.0      0.567      3.154
REMARK  4 active torsions:
REMARK  status: ('A' for Active; 'I' for Inactive)
REMARK    1  A    between atoms: C_30  and  N_11 
REMARK    2  A    between atoms: C_29  and  N_12 
REMARK    3  A    between atoms: C_16  and  C_13 
REMARK    4  A    between atoms: C_15  and  C_14 
ROOT
ATOM      1  N   UNL d   1      53.346  33.266  53.949  0.00  0.00    -0.240 N 
ATOM      2  N   UNL d   1      52.647  33.689  53.671  0.00  0.00    -0.240 N 
ATOM      3  C   UNL d   1      53.311  32.479  53.643  0.00  0.00     0.144 A 
ATOM      4  C   UNL d   1      52.683  34.476  53.978  0.00  0.00     0.144 A 
ATOM      5  C   UNL d   1      53.403  34.554  54.451  0.00  0.00     0.097 A 
ATOM      6  C   UNL d   1      52.595  32.410  53.176  0.00  0.00     0.097 A 
ATOM      7  C   UNL d   1      53.709  31.729  53.618  0.00  0.00     0.285 A 
ATOM      8  C   UNL d   1      52.268  35.221  53.991  0.00  0.00     0.285 A 
ATOM      9  C   UNL d   1      52.559  31.618  52.868  0.00  0.00     0.270 A 
ATOM     10  C   UNL d   1      53.427  35.353  54.754  0.00  0.00     0.270 A 
ATOM     11  N   UNL d   1      52.728  35.766  54.473  0.00  0.00    -0.239 N 
ATOM     12  N   UNL d   1      53.253  31.201  53.145  0.00  0.00    -0.239 N 
ATOM     13  C   UNL d   1      53.802  33.808  54.427  0.00  0.00     0.094 A 
ATOM     14  C   UNL d   1      52.195  33.151  53.198  0.00  0.00     0.094 A 
ATOM     15  O   UNL d   1      51.566  35.393  53.620  0.00  0.00    -0.265 OA
ATOM     16  O   UNL d   1      54.007  35.669  55.227  0.00  0.00    -0.266 OA
ATOM     17  O   UNL d   1      51.975  31.308  52.395  0.00  0.00    -0.266 OA
ATOM     18  O   UNL d   1      54.414  31.553  53.989  0.00  0.00    -0.265 OA
ENDROOT
BRANCH  13  19
ATOM     19  C   UNL d   1      54.508  33.640  54.802  0.00  0.00     0.047 A 
ATOM     20  S   UNL d   1      54.581  33.380  55.568  0.00  0.00    -0.085 SA
ATOM     21  C   UNL d   1      55.373  33.284  55.713  0.00  0.00     0.035 A 
ATOM     22  C   UNL d   1      55.784  33.484  55.037  0.00  0.00     0.007 A 
ATOM     23  C   UNL d   1      55.236  33.704  54.479  0.00  0.00     0.009 A 
ENDBRANCH  13  19
BRANCH  11  24
ATOM     24  C   UNL d   1      52.536  36.538  54.634  0.00  0.00     0.086 C 
ATOM     25  C   UNL d   1      51.920  36.709  55.156  0.00  0.00     0.021 C 
ENDBRANCH  11  24
BRANCH  14  26
ATOM     26  C   UNL d   1      51.499  33.325  52.831  0.00  0.00     0.047 A 
ATOM     27  S   UNL d   1      50.754  33.186  53.133  0.00  0.00    -0.085 SA
ATOM     28  C   UNL d   1      50.221  33.442  52.590  0.00  0.00     0.035 A 
ATOM     29  C   UNL d   1      50.627  33.737  51.959  0.00  0.00     0.007 A 
ATOM     30  C   UNL d   1      51.414  33.665  52.107  0.00  0.00     0.009 A 
ENDBRANCH  14  26
BRANCH  12  31
ATOM     31  C   UNL d   1      53.437  30.423  52.977  0.00  0.00     0.086 C 
ATOM     32  C   UNL d   1      53.199  29.823  53.492  0.00  0.00     0.021 C 
ENDBRANCH  12  31
TORSDOF 4
ENDMDL
MODEL 4
REMARK VINA RESULT:      -4.0      0.561      3.514
REMARK  4 active torsions:
REMARK  status: ('A' for Active; 'I' for Inactive)
REMARK    1  A    between atoms: C_30  and  N_11 
REMARK    2  A    between atoms: C_29  and  N_12 
REMARK    3  A    between atoms: C_16  and  C_13 
REMARK    4  A    between atoms: C_15  and  C_14 
ROOT
ATOM      1  N   UNL d   1      52.632  33.696  53.679  0.00  0.00    -0.240 N 
ATOM      2  N   UNL d   1      53.329  33.265  53.949  0.00  0.00    -0.240 N 
ATOM      3  C   UNL d   1      52.676  34.480  53.990  0.00  0.00     0.144 A 
ATOM      4  C   UNL d   1      53.285  32.481  53.638  0.00  0.00     0.144 A 
ATOM      5  C   UNL d   1      52.560  32.412  53.170  0.00  0.00     0.097 A 
ATOM      6  C   UNL d   1      53.396  34.541  54.452  0.00  0.00     0.097 A 
ATOM      7  C   UNL d   1      52.284  35.233  54.023  0.00  0.00     0.285 A 
ATOM      8  C   UNL d   1      53.693  31.732  53.616  0.00  0.00     0.285 A 
ATOM      9  C   UNL d   1      53.441  35.330  54.764  0.00  0.00     0.270 A 
ATOM     10  C   UNL d   1      52.528  31.615  52.861  0.00  0.00     0.270 A 
ATOM     11  N   UNL d   1      53.225  31.194  53.135  0.00  0.00    -0.239 N 
ATOM     12  N   UNL d   1      52.748  35.755  54.495  0.00  0.00    -0.239 N 
ATOM     13  C   UNL d   1      52.167  33.160  53.201  0.00  0.00     0.094 A 
ATOM     14  C   UNL d   1      53.789  33.796  54.422  0.00  0.00     0.094 A 
ATOM     15  O   UNL d   1      54.396  31.552  53.980  0.00  0.00    -0.265 OA
ATOM     16  O   UNL d   1      51.941  31.306  52.391  0.00  0.00    -0.266 OA
ATOM     17  O   UNL d   1      54.031  35.633  55.235  0.00  0.00    -0.266 OA
ATOM     18  O   UNL d   1      51.578  35.418  53.658  0.00  0.00    -0.265 OA
ENDROOT
BRANCH  13  19
ATOM     19  C   UNL d   1      51.461  33.336  52.833  0.00  0.00     0.047 A 
ATOM     20  S   UNL d   1      50.723  33.193  53.141  0.00  0.00    -0.085 SA
ATOM     21  C   UNL d   1      50.181  33.452  52.596  0.00  0.00     0.035 A 
ATOM     22  C   UNL d   1      50.586  33.754  51.955  0.00  0.00     0.007 A 
ATOM     23  C   UNL d   1      51.379  33.676  52.114  0.00  0.00     0.009 A 
ENDBRANCH  13  19
BRANCH  11  24
ATOM     24  C   UNL d   1      53.409  30.421  52.968  0.00  0.00     0.086 C 
ATOM     25  C   UNL d   1      53.246  29.830  53.521  0.00  0.00     0.021 C 
ENDBRANCH  11  24
BRANCH  14  26
ATOM     26  C   UNL d   1      54.487  33.614  54.782  0.00  0.00     0.047 A 
ATOM     27  S   UNL d   1      54.570  33.338  55.546  0.00  0.00    -0.085 SA
ATOM     28  C   UNL d   1      55.354  33.229  55.679  0.00  0.00     0.035 A 
ATOM     29  C   UNL d   1      55.754  33.434  55.009  0.00  0.00     0.007 A 
ATOM     30  C   UNL d   1      55.220  33.671  54.457  0.00  0.00     0.009 A 
ENDBRANCH  14  26
BRANCH  12  31
ATOM     31  C   UNL d   1      52.572  36.534  54.669  0.00  0.00     0.086 C 
ATOM     32  C   UNL d   1      51.962  36.710  55.197  0.00  0.00     0.021 C 
ENDBRANCH  12  31
TORSDOF 4
ENDMDL
MODEL 5
REMARK VINA RESULT:      -2.4      1.196      3.436
REMARK  4 active torsions:
REMARK  status: ('A' for Active; 'I' for Inactive)
REMARK    1  A    between atoms: C_30  and  N_11 
REMARK    2  A    between atoms: C_29  and  N_12 
REMARK    3  A    between atoms: C_16  and  C_13 
REMARK    4  A    between atoms: C_15  and  C_14 
ROOT
ATOM      1  N   UNL d   1      52.454  33.184  53.504  0.00  0.00    -0.240 N 
ATOM      2  N   UNL d   1      52.861  33.834  53.900  0.00  0.00    -0.240 N 
ATOM      3  C   UNL d   1      51.707  33.473  53.234  0.00  0.00     0.144 A 
ATOM      4  C   UNL d   1      53.607  33.545  54.171  0.00  0.00     0.144 A 
ATOM      5  C   UNL d   1      53.676  32.712  53.947  0.00  0.00     0.097 A 
ATOM      6  C   UNL d   1      51.647  34.299  53.459  0.00  0.00     0.097 A 
ATOM      7  C   UNL d   1      50.992  33.263  52.825  0.00  0.00     0.285 A 
ATOM      8  C   UNL d   1      54.318  33.774  54.584  0.00  0.00     0.285 A 
ATOM      9  C   UNL d   1      50.896  34.589  53.186  0.00  0.00     0.270 A 
ATOM     10  C   UNL d   1      54.434  32.432  54.226  0.00  0.00     0.270 A 
ATOM     11  N   UNL d   1      54.832  33.085  54.619  0.00  0.00    -0.239 N 
ATOM     12  N   UNL d   1      50.494  33.942  52.794  0.00  0.00    -0.239 N 
ATOM     13  C   UNL d   1      52.965  32.500  53.540  0.00  0.00     0.094 A 
ATOM     14  C   UNL d   1      52.354  34.511  53.865  0.00  0.00     0.094 A 
ATOM     15  O   UNL d   1      54.486  34.507  54.890  0.00  0.00    -0.265 OA
ATOM     16  O   UNL d   1      54.730  31.681  54.138  0.00  0.00    -0.266 OA
ATOM     17  O   UNL d   1      50.605  35.343  53.278  0.00  0.00    -0.266 OA
ATOM     18  O   UNL d   1      50.820  32.528  52.516  0.00  0.00    -0.265 OA
ENDROOT
BRANCH  13  19
ATOM     19  C   UNL d   1      52.801  31.762  53.234  0.00  0.00     0.047 A 
ATOM     20  S   UNL d   1      52.447  31.154  53.640  0.00  0.00    -0.085 SA
ATOM     21  C   UNL d   1      52.390  30.526  53.130  0.00  0.00     0.035 A 
ATOM     22  C   UNL d   1      52.709  30.749  52.412  0.00  0.00     0.007 A 
ATOM     23  C   UNL d   1      52.961  31.518  52.490  0.00  0.00     0.009 A 
ENDBRANCH  13  19
BRANCH  11  24
ATOM     24  C   UNL d   1      55.566  33.055  54.963  0.00  0.00     0.086 C 
ATOM     25  C   UNL d   1      55.937  33.753  55.204  0.00  0.00     0.021 C 
ENDBRANCH  11  24
BRANCH  14  26
ATOM     26  C   UNL d   1      52.524  35.238  54.170  0.00  0.00     0.047 A 
ATOM     27  S   UNL d   1      52.295  35.511  54.904  0.00  0.00    -0.085 SA
ATOM     28  C   UNL d   1      52.581  36.257  54.985  0.00  0.00     0.035 A 
ATOM     29  C   UNL d   1      52.981  36.447  54.310  0.00  0.00     0.007 A 
ATOM     30  C   UNL d   1      52.946  35.819  53.809  0.00  0.00     0.009 A 
ENDBRANCH  14  26
BRANCH  12  31
ATOM     31  C   UNL d   1      49.754  33.983  52.450  0.00  0.00     0.086 C 
ATOM     32  C   UNL d   1      49.663  34.339  51.711  0.00  0.00     0.021 C 
ENDBRANCH  12  31
TORSDOF 4
ENDMDL
