MODEL 1
REMARK VINA RESULT:       1.8      0.000      0.000
REMARK  3 active torsions:
REMARK  status: ('A' for Active; 'I' for Inactive)
REMARK    1  A    between atoms: C_6  and  C_1 
REMARK    2  A    between atoms: O_10  and  C_6 
REMARK    3  A    between atoms: C_19  and  O_10 
ROOT
ATOM      1  C   UNL d   1      58.662  -1.840  29.713  0.00  0.00     0.081 A 
ATOM      2  C   UNL d   1      59.784  -2.594  29.147  0.00  0.00     0.056 A 
ATOM      3  C   UNL d   1      59.413  -3.290  29.337  0.00  0.00     0.080 A 
ATOM      4  C   UNL d   1      58.290  -2.536  29.903  0.00  0.00     0.086 A 
ATOM      5  C   UNL d   1      59.434  -1.867  29.322  0.00  0.00     0.013 A 
ATOM      6  N   UNL d   1      58.668  -3.302  29.715  0.00  0.00    -0.246 NA
ATOM      7  C   UNL d   1      60.520  -2.597  28.774  0.00  0.00     0.193 A 
ATOM      8  C   UNL d   1      59.755  -4.032  29.167  0.00  0.00    -0.003 A 
ATOM      9  C   UNL d   1      60.504  -4.022  28.788  0.00  0.00     0.042 A 
ATOM     10  C   UNL d   1      60.875  -3.327  28.597  0.00  0.00     0.019 A 
ATOM     11  O   UNL d   1      60.892  -1.901  28.584  0.00  0.00    -0.287 OA
ATOM     12  C   UNL d   1      60.035  -0.739  29.014  0.00  0.00     0.020 A 
ATOM     13  N   UNL d   1      60.008   0.682  29.023  0.00  0.00    -0.242 NA
ATOM     14  C   UNL d   1      57.545  -2.548  30.281  0.00  0.00     0.021 C 
ATOM     15  C   UNL d   1      59.630  -0.025  29.216  0.00  0.00     0.099 A 
ATOM     16  C   UNL d   1      60.646  -4.808  28.718  0.00  0.00     0.009 C 
ATOM     17  C   UNL d   1      61.112  -4.430  28.481  0.00  0.00     0.009 C 
ATOM     18  C   UNL d   1      60.772   0.640  28.636  0.00  0.00     0.099 A 
ATOM     19  C   UNL d   1      60.756  -0.781  28.649  0.00  0.00     0.003 A 
ATOM     20  C   UNL d   1      61.133  -0.074  28.455  0.00  0.00     0.021 A 
ENDROOT
BRANCH   1  21
ATOM     21  C   UNL d   1      58.311  -1.113  29.888  0.00  0.00     0.301 C 
ATOM     22  O   UNL d   1      57.930  -0.687  29.312  0.00  0.00    -0.259 OA
BRANCH  21  23
ATOM     23  O   UNL d   1      58.356  -0.829  30.662  0.00  0.00    -0.273 OA
BRANCH  23  24
ATOM     24  C   UNL d   1      57.773  -0.450  30.959  0.00  0.00     0.103 C 
ATOM     25  C   UNL d   1      57.744   0.319  30.874  0.00  0.00     0.027 C 
ATOM     26  C   UNL d   1      57.229  -0.826  31.333  0.00  0.00     0.027 C 
ENDBRANCH  23  24
ENDBRANCH  21  23
ENDBRANCH   1  21
TORSDOF 3
ENDMDL
MODEL 2
REMARK VINA RESULT:       2.2      2.253      4.714
REMARK  3 active torsions:
REMARK  status: ('A' for Active; 'I' for Inactive)
REMARK    1  A    between atoms: C_6  and  C_1 
REMARK    2  A    between atoms: O_10  and  C_6 
REMARK    3  A    between atoms: C_19  and  O_10 
ROOT
ATOM      1  C   UNL d   1      57.858   0.082  30.934  0.00  0.00     0.081 A 
ATOM      2  C   UNL d   1      57.704   0.354  32.366  0.00  0.00     0.056 A 
ATOM      3  C   UNL d   1      56.901   0.264  32.297  0.00  0.00     0.080 A 
ATOM      4  C   UNL d   1      57.055  -0.008  30.865  0.00  0.00     0.086 A 
ATOM      5  C   UNL d   1      58.196   0.269  31.708  0.00  0.00     0.013 A 
ATOM      6  N   UNL d   1      56.540   0.083  31.566  0.00  0.00    -0.246 NA
ATOM      7  C   UNL d   1      58.048   0.533  33.094  0.00  0.00     0.193 A 
ATOM      8  C   UNL d   1      56.391   0.347  32.952  0.00  0.00    -0.003 A 
ATOM      9  C   UNL d   1      56.752   0.529  33.688  0.00  0.00     0.042 A 
ATOM     10  C   UNL d   1      57.555   0.619  33.757  0.00  0.00     0.019 A 
ATOM     11  O   UNL d   1      58.852   0.623  33.163  0.00  0.00    -0.287 OA
ATOM     12  C   UNL d   1      59.498   0.415  31.820  0.00  0.00     0.020 A 
ATOM     13  N   UNL d   1      60.770   0.408  31.183  0.00  0.00    -0.242 NA
ATOM     14  C   UNL d   1      56.693  -0.189  30.134  0.00  0.00     0.021 C 
ATOM     15  C   UNL d   1      59.954   0.317  31.113  0.00  0.00     0.099 A 
ATOM     16  C   UNL d   1      56.110   0.564  34.166  0.00  0.00     0.009 C 
ATOM     17  C   UNL d   1      56.669   0.677  34.464  0.00  0.00     0.009 C 
ATOM     18  C   UNL d   1      61.092   0.594  31.956  0.00  0.00     0.099 A 
ATOM     19  C   UNL d   1      59.800   0.590  32.549  0.00  0.00     0.003 A 
ATOM     20  C   UNL d   1      60.616   0.682  32.619  0.00  0.00     0.021 A 
ENDROOT
BRANCH   1  21
ATOM     21  C   UNL d   1      58.350  -0.004  30.276  0.00  0.00     0.301 C 
ATOM     22  O   UNL d   1      58.628   0.648  29.879  0.00  0.00    -0.259 OA
BRANCH  21  23
ATOM     23  O   UNL d   1      58.553  -0.766  30.031  0.00  0.00    -0.273 OA
BRANCH  23  24
ATOM     24  C   UNL d   1      58.625  -0.917  29.293  0.00  0.00     0.103 C 
ATOM     25  C   UNL d   1      58.575  -1.652  29.055  0.00  0.00     0.027 C 
ATOM     26  C   UNL d   1      58.746  -0.350  28.802  0.00  0.00     0.027 C 
ENDBRANCH  23  24
ENDBRANCH  21  23
ENDBRANCH   1  21
TORSDOF 3
ENDMDL
