MODEL 1
REMARK VINA RESULT:      54.1      0.000      0.000
REMARK  3 active torsions:
REMARK  status: ('A' for Active; 'I' for Inactive)
REMARK    1  A    between atoms: N_6  and  C_1 
REMARK    2  A    between atoms: C_14  and  N_4 
REMARK    3  A    between atoms: C_7  and  N_6 
ROOT
ATOM      1  C   UNL d   1      13.537  13.727  -2.524  0.00  0.00     0.157 A 
ATOM      2  C   UNL d   1      13.473  13.054  -2.998  0.00  0.00     0.298 A 
ATOM      3  N   UNL d   1      13.587  14.110  -3.743  0.00  0.00    -0.238 N 
ATOM      4  N   UNL d   1      13.503  13.278  -3.752  0.00  0.00    -0.209 N 
ATOM      5  C   UNL d   1      13.601  14.320  -2.970  0.00  0.00     0.104 A 
ATOM      6  O   UNL d   1      13.392  12.270  -2.725  0.00  0.00    -0.263 OA
ATOM      7  C   UNL d   1      13.646  14.646  -4.384  0.00  0.00     0.120 C 
ATOM      8  C   UNL d   1      13.675  15.075  -2.718  0.00  0.00     0.022 C 
ENDROOT
BRANCH   1   9
ATOM      9  N   UNL d   1      13.534  13.763  -1.702  0.00  0.00    -0.239 NA
BRANCH   9  10
ATOM     10  C   UNL d   1      14.232  13.782  -1.300  0.00  0.00     0.082 A 
ATOM     11  C   UNL d   1      14.505  13.115  -0.857  0.00  0.00     0.021 A 
ATOM     12  C   UNL d   1      15.213  13.128  -0.446  0.00  0.00     0.040 A 
ATOM     13  C   UNL d   1      14.042  12.440  -0.843  0.00  0.00     0.002 A 
ATOM     14  C   UNL d   1      15.468  12.473  -0.018  0.00  0.00     0.003 A 
ATOM     15  C   UNL d   1      15.676  13.803  -0.460  0.00  0.00     0.196 A 
ATOM     16  C   UNL d   1      14.989  11.800  -0.015  0.00  0.00     0.000 A 
ATOM     17  C   UNL d   1      14.285  11.779  -0.420  0.00  0.00     0.000 A 
ATOM     18  C   UNL d   1      15.430  14.466  -0.885  0.00  0.00     0.044 A 
ATOM     19  O   UNL d   1      16.415  13.809  -0.028  0.00  0.00    -0.287 OA
ATOM     20  C   UNL d   1      14.688  14.448  -1.314  0.00  0.00     0.022 A 
ENDBRANCH   9  10
ENDBRANCH   1   9
BRANCH   4  21
ATOM     21  C   UNL d   1      13.458  12.783  -4.405  0.00  0.00     0.085 A 
ATOM     22  C   UNL d   1      14.088  12.779  -4.963  0.00  0.00     0.019 A 
ATOM     23  C   UNL d   1      14.054  12.282  -5.628  0.00  0.00     0.002 A 
ATOM     24  C   UNL d   1      13.401  11.782  -5.757  0.00  0.00     0.000 A 
ATOM     25  C   UNL d   1      12.771  11.779  -5.209  0.00  0.00     0.002 A 
ATOM     26  C   UNL d   1      12.813  12.280  -4.545  0.00  0.00     0.019 A 
ENDBRANCH   4  21
TORSDOF 3
ENDMDL
