MODEL 1
REMARK VINA RESULT:     117.0      0.000      0.000
REMARK  4 active torsions:
REMARK  status: ('A' for Active; 'I' for Inactive)
REMARK    1  A    between atoms: C_12  and  N_3 
REMARK    2  A    between atoms: C_13  and  N_10 
REMARK    3  A    between atoms: C_21  and  C_12 
REMARK    4  A    between atoms: C_16  and  C_13 
ROOT
ATOM      1  C   UNL d   1      61.850  46.290  49.777  0.00  0.00     0.191 A 
ATOM      2  C   UNL d   1      61.246  45.915  50.194  0.00  0.00     0.173 A 
ATOM      3  N   UNL d   1      61.687  44.650  49.705  0.00  0.00    -0.224 N 
ATOM      4  N   UNL d   1      61.791  47.102  49.920  0.00  0.00    -0.042 NA
ATOM      5  C   UNL d   1      61.144  47.222  50.428  0.00  0.00     0.722 A 
ATOM      6  N   UNL d   1      60.811  46.489  50.596  0.00  0.00    -0.131 N 
ATOM      7  N   UNL d   1      62.376  45.840  49.321  0.00  0.00    -0.240 N 
ATOM      8  C   UNL d   1      62.294  45.024  49.285  0.00  0.00     0.343 A 
ATOM      9  C   UNL d   1      61.160  45.091  50.160  0.00  0.00     0.288 A 
ATOM     10  N   UNL d   1      60.714  47.795  50.827  0.00  0.00    -0.135 N 
ATOM     11  C   UNL d   1      60.175  46.612  51.097  0.00  0.00     0.118 A 
ATOM     12  O   UNL d   1      62.820  44.573  48.828  0.00  0.00    -0.245 OA
ATOM     13  O   UNL d   1      60.552  44.717  50.581  0.00  0.00    -0.265 OA
ATOM     14  C   UNL d   1      60.108  47.417  51.245  0.00  0.00     0.118 A 
ATOM     15  C   UNL d   1      62.983  46.214  48.901  0.00  0.00     0.105 C 
ENDROOT
BRANCH   3  16
ATOM     16  C   UNL d   1      61.604  43.828  49.669  0.00  0.00     0.087 C 
BRANCH  16  17
ATOM     17  C   UNL d   1      62.036  43.337  50.193  0.00  0.00     0.018 A 
ATOM     18  C   UNL d   1      61.787  43.234  50.958  0.00  0.00     0.002 A 
ATOM     19  C   UNL d   1      62.210  42.754  51.469  0.00  0.00     0.000 A 
ATOM     20  C   UNL d   1      61.962  42.645  52.245  0.00  0.00     0.000 C 
ATOM     21  C   UNL d   1      62.895  42.372  51.201  0.00  0.00     0.000 A 
ATOM     22  C   UNL d   1      63.156  42.470  50.426  0.00  0.00     0.000 A 
ATOM     23  C   UNL d   1      62.727  42.952  49.922  0.00  0.00     0.002 A 
ENDBRANCH  16  17
ENDBRANCH   3  16
BRANCH  10  24
ATOM     24  C   UNL d   1      60.856  48.608  50.815  0.00  0.00     0.123 C 
BRANCH  24  25
ATOM     25  C   UNL d   1      60.913  49.025  51.532  0.00  0.00     0.118 A 
ATOM     26  O   UNL d   1      60.293  49.350  51.958  0.00  0.00    -0.304 OA
ATOM     27  C   UNL d   1      60.596  49.707  52.623  0.00  0.00     0.123 A 
ATOM     28  C   UNL d   1      61.421  49.605  52.616  0.00  0.00     0.029 A 
ATOM     29  C   UNL d   1      61.615  49.180  51.936  0.00  0.00     0.028 A 
ENDBRANCH  24  25
ENDBRANCH  10  24
TORSDOF 4
ENDMDL
