MODEL 1
REMARK VINA RESULT:      -9.9      0.000      0.000
REMARK  2 active torsions:
REMARK  status: ('A' for Active; 'I' for Inactive)
REMARK    1  A    between atoms: N_2  and  S_1 
REMARK    2  A    between atoms: C_4  and  S_1 
ROOT
ATOM      1  S   UNL d   1      53.620  32.290  53.820  0.00  0.00     0.273 S 
ATOM      2  O   UNL d   1      54.384  32.476  53.573  0.00  0.00    -0.200 OA
ATOM      3  O   UNL d   1      53.346  32.570  54.545  0.00  0.00    -0.200 OA
ENDROOT
BRANCH   1   4
ATOM      4  N   UNL d   1      53.134  31.825  53.342  0.00  0.00    -0.212 N 
ATOM      5  C   UNL d   1      52.658  32.188  52.762  0.00  0.00     0.193 A 
ATOM      6  N   UNL d   1      52.167  31.719  52.280  0.00  0.00    -0.223 NA
ATOM      7  C   UNL d   1      52.629  30.539  52.958  0.00  0.00     0.100 A 
ATOM      8  C   UNL d   1      53.119  30.993  53.440  0.00  0.00     0.094 A 
ATOM      9  C   UNL d   1      52.616  29.709  53.057  0.00  0.00     0.021 A 
ATOM     10  C   UNL d   1      53.591  30.641  54.015  0.00  0.00     0.020 A 
ATOM     11  C   UNL d   1      53.578  29.819  54.114  0.00  0.00     0.002 A 
ATOM     12  C   UNL d   1      53.090  29.353  53.635  0.00  0.00     0.002 A 
ENDBRANCH   1   4
BRANCH   1  13
ATOM     13  C   UNL d   1      54.111  32.749  54.284  0.00  0.00     0.104 A 
ATOM     14  C   UNL d   1      54.780  33.100  53.948  0.00  0.00     0.012 A 
ATOM     15  C   UNL d   1      55.276  33.561  54.405  0.00  0.00     0.001 A 
ATOM     16  C   UNL d   1      54.940  32.981  53.150  0.00  0.00     0.001 C 
ATOM     17  C   UNL d   1      55.110  33.678  55.209  0.00  0.00     0.000 A 
ATOM     18  C   UNL d   1      54.443  33.328  55.547  0.00  0.00     0.001 A 
ATOM     19  C   UNL d   1      55.608  34.140  55.669  0.00  0.00     0.000 C 
ATOM     20  C   UNL d   1      53.948  32.865  55.079  0.00  0.00     0.013 A 
ENDBRANCH   1  13
TORSDOF 2
ENDMDL
MODEL 2
REMARK VINA RESULT:      -9.8      1.766      3.478
REMARK  2 active torsions:
REMARK  status: ('A' for Active; 'I' for Inactive)
REMARK    1  A    between atoms: N_2  and  S_1 
REMARK    2  A    between atoms: C_4  and  S_1 
ROOT
ATOM      1  S   UNL d   1      52.845  32.665  53.242  0.00  0.00     0.273 S 
ATOM      2  O   UNL d   1      53.032  32.359  53.983  0.00  0.00    -0.200 OA
ATOM      3  O   UNL d   1      52.831  32.166  52.586  0.00  0.00    -0.200 OA
ENDROOT
BRANCH   1   4
ATOM      4  N   UNL d   1      52.672  33.467  53.159  0.00  0.00    -0.212 N 
ATOM      5  C   UNL d   1      53.294  34.021  53.126  0.00  0.00     0.193 A 
ATOM      6  N   UNL d   1      53.120  34.831  53.042  0.00  0.00    -0.223 NA
ATOM      7  C   UNL d   1      51.715  34.527  53.023  0.00  0.00     0.100 A 
ATOM      8  C   UNL d   1      51.876  33.723  53.107  0.00  0.00     0.094 A 
ATOM      9  C   UNL d   1      50.920  34.780  52.971  0.00  0.00     0.021 A 
ATOM     10  C   UNL d   1      51.266  33.171  53.139  0.00  0.00     0.020 A 
ATOM     11  C   UNL d   1      50.479  33.421  53.088  0.00  0.00     0.002 A 
ATOM     12  C   UNL d   1      50.306  34.226  53.004  0.00  0.00     0.002 A 
ENDBRANCH   1   4
BRANCH   1  13
ATOM     13  C   UNL d   1      53.017  31.873  53.338  0.00  0.00     0.104 A 
ATOM     14  C   UNL d   1      53.505  31.633  53.961  0.00  0.00     0.012 A 
ATOM     15  C   UNL d   1      53.683  30.842  54.064  0.00  0.00     0.001 A 
ATOM     16  C   UNL d   1      53.810  32.198  54.476  0.00  0.00     0.001 C 
ATOM     17  C   UNL d   1      53.374  30.276  53.542  0.00  0.00     0.000 A 
ATOM     18  C   UNL d   1      52.886  30.512  52.919  0.00  0.00     0.001 A 
ATOM     19  C   UNL d   1      53.552  29.482  53.645  0.00  0.00     0.000 C 
ATOM     20  C   UNL d   1      52.712  31.312  52.822  0.00  0.00     0.013 A 
ENDBRANCH   1  13
TORSDOF 2
ENDMDL
MODEL 3
REMARK VINA RESULT:      -9.7      1.952      3.159
REMARK  2 active torsions:
REMARK  status: ('A' for Active; 'I' for Inactive)
REMARK    1  A    between atoms: N_2  and  S_1 
REMARK    2  A    between atoms: C_4  and  S_1 
ROOT
ATOM      1  S   UNL d   1      52.424  33.133  53.371  0.00  0.00     0.273 S 
ATOM      2  O   UNL d   1      52.393  33.495  52.632  0.00  0.00    -0.200 OA
ATOM      3  O   UNL d   1      51.766  33.160  53.867  0.00  0.00    -0.200 OA
ENDROOT
BRANCH   1   4
ATOM      4  N   UNL d   1      53.112  32.745  53.611  0.00  0.00    -0.212 N 
ATOM      5  C   UNL d   1      53.713  33.174  53.996  0.00  0.00     0.193 A 
ATOM      6  N   UNL d   1      54.407  32.783  54.239  0.00  0.00    -0.223 NA
ATOM      7  C   UNL d   1      53.895  31.547  53.713  0.00  0.00     0.100 A 
ATOM      8  C   UNL d   1      53.204  31.924  53.469  0.00  0.00     0.094 A 
ATOM      9  C   UNL d   1      53.984  30.729  53.570  0.00  0.00     0.021 A 
ATOM     10  C   UNL d   1      52.606  31.506  53.088  0.00  0.00     0.020 A 
ATOM     11  C   UNL d   1      52.694  30.696  52.946  0.00  0.00     0.002 A 
ATOM     12  C   UNL d   1      53.384  30.307  53.187  0.00  0.00     0.002 A 
ENDBRANCH   1   4
BRANCH   1  13
ATOM     13  C   UNL d   1      51.750  33.519  53.121  0.00  0.00     0.104 A 
ATOM     14  C   UNL d   1      51.810  34.129  52.567  0.00  0.00     0.012 A 
ATOM     15  C   UNL d   1      51.140  34.521  52.312  0.00  0.00     0.001 A 
ATOM     16  C   UNL d   1      52.550  34.338  52.274  0.00  0.00     0.001 C 
ATOM     17  C   UNL d   1      50.396  34.308  52.609  0.00  0.00     0.000 A 
ATOM     18  C   UNL d   1      50.333  33.699  53.163  0.00  0.00     0.001 A 
ATOM     19  C   UNL d   1      49.723  34.701  52.354  0.00  0.00     0.000 C 
ATOM     20  C   UNL d   1      51.013  33.309  53.415  0.00  0.00     0.013 A 
ENDBRANCH   1  13
TORSDOF 2
ENDMDL
MODEL 4
REMARK VINA RESULT:      -9.5      2.030      3.737
REMARK  2 active torsions:
REMARK  status: ('A' for Active; 'I' for Inactive)
REMARK    1  A    between atoms: N_2  and  S_1 
REMARK    2  A    between atoms: C_4  and  S_1 
ROOT
ATOM      1  S   UNL d   1      52.305  33.211  53.265  0.00  0.00     0.273 S 
ATOM      2  O   UNL d   1      52.292  33.761  52.653  0.00  0.00    -0.200 OA
ATOM      3  O   UNL d   1      51.609  33.032  53.669  0.00  0.00    -0.200 OA
ENDROOT
BRANCH   1   4
ATOM      4  N   UNL d   1      53.012  32.840  53.472  0.00  0.00    -0.212 N 
ATOM      5  C   UNL d   1      53.241  32.140  53.081  0.00  0.00     0.193 A 
ATOM      6  N   UNL d   1      53.955  31.766  53.290  0.00  0.00    -0.223 NA
ATOM      7  C   UNL d   1      54.203  32.787  54.270  0.00  0.00     0.100 A 
ATOM      8  C   UNL d   1      53.499  33.166  54.072  0.00  0.00     0.094 A 
ATOM      9  C   UNL d   1      54.686  33.114  54.869  0.00  0.00     0.021 A 
ATOM     10  C   UNL d   1      53.268  33.857  54.454  0.00  0.00     0.020 A 
ATOM     11  C   UNL d   1      53.746  34.181  55.047  0.00  0.00     0.002 A 
ATOM     12  C   UNL d   1      54.456  33.809  55.254  0.00  0.00     0.002 A 
ENDBRANCH   1   4
BRANCH   1  13
ATOM     13  C   UNL d   1      51.611  33.584  53.052  0.00  0.00     0.104 A 
ATOM     14  C   UNL d   1      51.601  34.078  52.389  0.00  0.00     0.012 A 
ATOM     15  C   UNL d   1      50.911  34.456  52.168  0.00  0.00     0.001 A 
ATOM     16  C   UNL d   1      52.291  34.186  51.955  0.00  0.00     0.001 C 
ATOM     17  C   UNL d   1      50.217  34.344  52.609  0.00  0.00     0.000 A 
ATOM     18  C   UNL d   1      50.224  33.851  53.271  0.00  0.00     0.001 A 
ATOM     19  C   UNL d   1      49.524  34.723  52.388  0.00  0.00     0.000 C 
ATOM     20  C   UNL d   1      50.925  33.474  53.487  0.00  0.00     0.013 A 
ENDBRANCH   1  13
TORSDOF 2
ENDMDL
MODEL 5
REMARK VINA RESULT:      -9.1      1.622      3.737
REMARK  2 active torsions:
REMARK  status: ('A' for Active; 'I' for Inactive)
REMARK    1  A    between atoms: N_2  and  S_1 
REMARK    2  A    between atoms: C_4  and  S_1 
ROOT
ATOM      1  S   UNL d   1      53.764  32.568  54.060  0.00  0.00     0.273 S 
ATOM      2  O   UNL d   1      53.411  32.008  54.551  0.00  0.00    -0.200 OA
ATOM      3  O   UNL d   1      53.901  32.387  53.268  0.00  0.00    -0.200 OA
ENDROOT
BRANCH   1   4
ATOM      4  N   UNL d   1      53.979  33.305  54.362  0.00  0.00    -0.212 N 
ATOM      5  C   UNL d   1      54.693  33.386  54.783  0.00  0.00     0.193 A 
ATOM      6  N   UNL d   1      54.910  34.130  55.087  0.00  0.00    -0.223 NA
ATOM      7  C   UNL d   1      53.705  34.700  54.552  0.00  0.00     0.100 A 
ATOM      8  C   UNL d   1      53.480  33.969  54.246  0.00  0.00     0.094 A 
ATOM      9  C   UNL d   1      53.206  35.360  54.435  0.00  0.00     0.021 A 
ATOM     10  C   UNL d   1      52.775  33.882  53.830  0.00  0.00     0.020 A 
ATOM     11  C   UNL d   1      52.281  34.536  53.714  0.00  0.00     0.002 A 
ATOM     12  C   UNL d   1      52.497  35.276  54.016  0.00  0.00     0.002 A 
ENDBRANCH   1   4
BRANCH   1  13
ATOM     13  C   UNL d   1      53.547  31.835  53.774  0.00  0.00     0.104 A 
ATOM     14  C   UNL d   1      53.502  31.191  54.290  0.00  0.00     0.012 A 
ATOM     15  C   UNL d   1      53.286  30.454  54.011  0.00  0.00     0.001 A 
ATOM     16  C   UNL d   1      53.677  31.299  55.086  0.00  0.00     0.001 C 
ATOM     17  C   UNL d   1      53.110  30.349  53.207  0.00  0.00     0.000 A 
ATOM     18  C   UNL d   1      53.154  30.991  52.689  0.00  0.00     0.001 A 
ATOM     19  C   UNL d   1      52.893  29.610  52.926  0.00  0.00     0.000 C 
ATOM     20  C   UNL d   1      53.373  31.731  52.978  0.00  0.00     0.013 A 
ENDBRANCH   1  13
TORSDOF 2
ENDMDL
MODEL 6
REMARK VINA RESULT:      -8.8      1.283      2.349
REMARK  2 active torsions:
REMARK  status: ('A' for Active; 'I' for Inactive)
REMARK    1  A    between atoms: N_2  and  S_1 
REMARK    2  A    between atoms: C_4  and  S_1 
ROOT
ATOM      1  S   UNL d   1      53.225  32.969  53.777  0.00  0.00     0.273 S 
ATOM      2  O   UNL d   1      53.947  33.161  53.431  0.00  0.00    -0.200 OA
ATOM      3  O   UNL d   1      53.133  33.034  54.594  0.00  0.00    -0.200 OA
ENDROOT
BRANCH   1   4
ATOM      4  N   UNL d   1      52.597  32.712  53.307  0.00  0.00    -0.212 N 
ATOM      5  C   UNL d   1      52.556  31.914  53.074  0.00  0.00     0.193 A 
ATOM      6  N   UNL d   1      51.922  31.655  52.600  0.00  0.00    -0.223 NA
ATOM      7  C   UNL d   1      51.381  32.986  52.597  0.00  0.00     0.100 A 
ATOM      8  C   UNL d   1      52.004  33.253  53.066  0.00  0.00     0.094 A 
ATOM      9  C   UNL d   1      50.791  33.527  52.357  0.00  0.00     0.021 A 
ATOM     10  C   UNL d   1      52.050  34.041  53.300  0.00  0.00     0.020 A 
ATOM     11  C   UNL d   1      51.465  34.577  53.063  0.00  0.00     0.002 A 
ATOM     12  C   UNL d   1      50.835  34.319  52.591  0.00  0.00     0.002 A 
ENDBRANCH   1   4
BRANCH   1  13
ATOM     13  C   UNL d   1      53.853  33.223  54.231  0.00  0.00     0.104 A 
ATOM     14  C   UNL d   1      54.625  33.134  53.948  0.00  0.00     0.012 A 
ATOM     15  C   UNL d   1      55.259  33.387  54.396  0.00  0.00     0.001 A 
ATOM     16  C   UNL d   1      54.747  32.790  53.211  0.00  0.00     0.001 C 
ATOM     17  C   UNL d   1      55.132  33.734  55.139  0.00  0.00     0.000 A 
ATOM     18  C   UNL d   1      54.362  33.824  55.424  0.00  0.00     0.001 A 
ATOM     19  C   UNL d   1      55.768  33.988  55.590  0.00  0.00     0.000 C 
ATOM     20  C   UNL d   1      53.727  33.567  54.966  0.00  0.00     0.013 A 
ENDBRANCH   1  13
TORSDOF 2
ENDMDL
