MODEL 1
REMARK VINA RESULT:      -7.4      0.000      0.000
REMARK  4 active torsions:
REMARK  status: ('A' for Active; 'I' for Inactive)
REMARK    1  A    between atoms: C_14  and  N_1 
REMARK    2  A    between atoms: S_12  and  C_2 
REMARK       I    between atoms: N_7  and  C_10 
REMARK    3  A    between atoms: C_10  and  C_16 
REMARK    4  A    between atoms: C_16  and  S_12 
ROOT
ATOM      1  N   UNL d   1     -49.472  13.412  23.084  0.00  0.00    -0.254 N 
ATOM      2  C   UNL d   1     -48.812  12.921  23.161  0.00  0.00     0.183 A 
ATOM      3  N   UNL d   1     -48.914  12.126  23.350  0.00  0.00    -0.201 NA
ATOM      4  C   UNL d   1     -50.237  13.106  23.197  0.00  0.00     0.271 A 
ATOM      5  C   UNL d   1     -50.332  12.306  23.386  0.00  0.00     0.115 A 
ATOM      6  C   UNL d   1     -49.667  11.816  23.463  0.00  0.00     0.192 A 
ATOM      7  N   UNL d   1     -50.751  11.077  23.693  0.00  0.00    -0.145 NA
ATOM      8  N   UNL d   1     -49.934  11.053  23.653  0.00  0.00    -0.128 NA
ATOM      9  C   UNL d   1     -51.008  11.841  23.531  0.00  0.00     0.130 A 
ATOM     10  O   UNL d   1     -50.902  13.604  23.119  0.00  0.00    -0.266 OA
ENDROOT
BRANCH   2  11
ATOM     11  S   UNL d   1     -48.062  13.227  23.049  0.00  0.00    -0.044 SA
BRANCH  11  12
ATOM     12  C   UNL d   1     -47.391  12.794  23.296  0.00  0.00     0.099 C 
BRANCH  12  13
ATOM     13  C   UNL d   1     -46.669  12.896  22.911  0.00  0.00     0.271 C 
ATOM     14  N   UNL d   1     -46.070  12.339  23.000  0.00  0.00    -0.273 N 
ATOM     15  C   UNL d   1     -45.352  12.439  22.619  0.00  0.00     0.067 A 
ATOM     16  C   UNL d   1     -46.200  11.678  23.478  0.00  0.00     0.083 A 
ATOM     17  C   UNL d   1     -44.753  11.878  22.710  0.00  0.00     0.016 A 
ATOM     18  C   UNL d   1     -45.226  13.101  22.142  0.00  0.00     0.018 A 
ATOM     19  C   UNL d   1     -44.033  11.985  22.324  0.00  0.00     0.001 A 
ATOM     20  C   UNL d   1     -44.870  11.221  23.180  0.00  0.00     0.003 A 
ATOM     21  C   UNL d   1     -43.904  12.646  21.847  0.00  0.00     0.000 A 
ATOM     22  C   UNL d   1     -44.504  13.203  21.758  0.00  0.00     0.002 A 
ATOM     23  C   UNL d   1     -45.600  11.115  23.571  0.00  0.00     0.019 A 
ATOM     24  O   UNL d   1     -46.551  13.560  22.437  0.00  0.00    -0.266 OA
ENDBRANCH  12  13
ENDBRANCH  11  12
ENDBRANCH   2  11
BRANCH   1  25
ATOM     25  C   UNL d   1     -49.375  14.216  22.894  0.00  0.00     0.069 A 
ATOM     26  C   UNL d   1     -49.338  14.776  23.499  0.00  0.00     0.018 A 
ATOM     27  C   UNL d   1     -49.242  15.577  23.311  0.00  0.00     0.002 A 
ATOM     28  C   UNL d   1     -49.184  15.811  22.519  0.00  0.00     0.000 A 
ATOM     29  C   UNL d   1     -49.222  15.244  21.920  0.00  0.00     0.002 A 
ATOM     30  C   UNL d   1     -49.318  14.446  22.111  0.00  0.00     0.018 A 
ENDBRANCH   1  25
TORSDOF 4
ENDMDL
MODEL 2
REMARK VINA RESULT:      -6.6      7.921      9.808
REMARK  4 active torsions:
REMARK  status: ('A' for Active; 'I' for Inactive)
REMARK    1  A    between atoms: C_14  and  N_1 
REMARK    2  A    between atoms: S_12  and  C_2 
REMARK       I    between atoms: N_7  and  C_10 
REMARK    3  A    between atoms: C_10  and  C_16 
REMARK    4  A    between atoms: C_16  and  S_12 
ROOT
ATOM      1  N   UNL d   1     -39.678  14.212  21.330  0.00  0.00    -0.254 N 
ATOM      2  C   UNL d   1     -39.019  14.009  20.877  0.00  0.00     0.183 A 
ATOM      3  N   UNL d   1     -38.412  13.566  21.213  0.00  0.00    -0.201 NA
ATOM      4  C   UNL d   1     -39.730  13.972  22.125  0.00  0.00     0.271 A 
ATOM      5  C   UNL d   1     -39.116  13.527  22.457  0.00  0.00     0.115 A 
ATOM      6  C   UNL d   1     -38.456  13.325  21.998  0.00  0.00     0.192 A 
ATOM      7  N   UNL d   1     -38.281  12.817  23.217  0.00  0.00    -0.145 NA
ATOM      8  N   UNL d   1     -37.940  12.883  22.476  0.00  0.00    -0.128 NA
ATOM      9  C   UNL d   1     -39.004  13.208  23.218  0.00  0.00     0.130 A 
ATOM     10  O   UNL d   1     -40.397  14.179  22.581  0.00  0.00    -0.266 OA
ENDROOT
BRANCH   2  11
ATOM     11  S   UNL d   1     -38.973  14.248  20.096  0.00  0.00    -0.044 SA
BRANCH  11  12
ATOM     12  C   UNL d   1     -38.447  13.866  19.571  0.00  0.00     0.099 C 
BRANCH  12  13
ATOM     13  C   UNL d   1     -38.332  14.165  18.811  0.00  0.00     0.271 C 
ATOM     14  N   UNL d   1     -38.283  13.653  18.168  0.00  0.00    -0.273 N 
ATOM     15  C   UNL d   1     -38.169  13.949  17.412  0.00  0.00     0.067 A 
ATOM     16  C   UNL d   1     -38.349  12.840  18.292  0.00  0.00     0.083 A 
ATOM     17  C   UNL d   1     -38.120  13.433  16.769  0.00  0.00     0.016 A 
ATOM     18  C   UNL d   1     -38.104  14.762  17.292  0.00  0.00     0.018 A 
ATOM     19  C   UNL d   1     -38.006  13.736  16.012  0.00  0.00     0.001 A 
ATOM     20  C   UNL d   1     -38.185  12.627  16.880  0.00  0.00     0.003 A 
ATOM     21  C   UNL d   1     -37.940  14.549  15.888  0.00  0.00     0.000 A 
ATOM     22  C   UNL d   1     -37.989  15.061  16.532  0.00  0.00     0.002 A 
ATOM     23  C   UNL d   1     -38.300  12.321  17.649  0.00  0.00     0.019 A 
ATOM     24  O   UNL d   1     -38.268  14.979  18.698  0.00  0.00    -0.266 OA
ENDBRANCH  12  13
ENDBRANCH  11  12
ENDBRANCH   2  11
BRANCH   1  25
ATOM     25  C   UNL d   1     -40.294  14.659  20.996  0.00  0.00     0.069 A 
ATOM     26  C   UNL d   1     -40.927  14.274  20.634  0.00  0.00     0.018 A 
ATOM     27  C   UNL d   1     -41.542  14.717  20.300  0.00  0.00     0.002 A 
ATOM     28  C   UNL d   1     -41.518  15.544  20.332  0.00  0.00     0.000 A 
ATOM     29  C   UNL d   1     -40.881  15.922  20.696  0.00  0.00     0.002 A 
ATOM     30  C   UNL d   1     -40.270  15.477  21.028  0.00  0.00     0.018 A 
ENDBRANCH   1  25
TORSDOF 4
ENDMDL
MODEL 3
REMARK VINA RESULT:      -5.6      1.319      2.313
REMARK  4 active torsions:
REMARK  status: ('A' for Active; 'I' for Inactive)
REMARK    1  A    between atoms: C_14  and  N_1 
REMARK    2  A    between atoms: S_12  and  C_2 
REMARK       I    between atoms: N_7  and  C_10 
REMARK    3  A    between atoms: C_10  and  C_16 
REMARK    4  A    between atoms: C_16  and  S_12 
ROOT
ATOM      1  N   UNL d   1     -49.623  13.805  22.282  0.00  0.00    -0.254 N 
ATOM      2  C   UNL d   1     -48.911  14.115  22.561  0.00  0.00     0.183 A 
ATOM      3  N   UNL d   1     -48.916  14.788  23.036  0.00  0.00    -0.201 NA
ATOM      4  C   UNL d   1     -50.345  14.169  22.480  0.00  0.00     0.271 A 
ATOM      5  C   UNL d   1     -50.343  14.844  22.958  0.00  0.00     0.115 A 
ATOM      6  C   UNL d   1     -49.625  15.153  23.236  0.00  0.00     0.192 A 
ATOM      7  N   UNL d   1     -50.610  15.921  23.698  0.00  0.00    -0.145 NA
ATOM      8  N   UNL d   1     -49.798  15.823  23.695  0.00  0.00    -0.128 NA
ATOM      9  C   UNL d   1     -50.956  15.327  23.248  0.00  0.00     0.130 A 
ATOM     10  O   UNL d   1     -51.063  13.853  22.197  0.00  0.00    -0.266 OA
ENDROOT
BRANCH   2  11
ATOM     11  S   UNL d   1     -48.204  13.754  22.363  0.00  0.00    -0.044 SA
BRANCH  11  12
ATOM     12  C   UNL d   1     -47.579  13.726  22.917  0.00  0.00     0.099 C 
BRANCH  12  13
ATOM     13  C   UNL d   1     -46.808  13.578  22.662  0.00  0.00     0.271 C 
ATOM     14  N   UNL d   1     -46.409  12.906  22.920  0.00  0.00    -0.273 N 
ATOM     15  C   UNL d   1     -45.644  12.758  22.668  0.00  0.00     0.067 A 
ATOM     16  C   UNL d   1     -46.787  12.384  23.435  0.00  0.00     0.083 A 
ATOM     17  C   UNL d   1     -45.245  12.083  22.929  0.00  0.00     0.016 A 
ATOM     18  C   UNL d   1     -45.269  13.283  22.153  0.00  0.00     0.018 A 
ATOM     19  C   UNL d   1     -44.476  11.940  22.672  0.00  0.00     0.001 A 
ATOM     20  C   UNL d   1     -45.609  11.559  23.438  0.00  0.00     0.003 A 
ATOM     21  C   UNL d   1     -44.098  12.463  22.157  0.00  0.00     0.000 A 
ATOM     22  C   UNL d   1     -44.499  13.135  21.899  0.00  0.00     0.002 A 
ATOM     23  C   UNL d   1     -46.389  11.707  23.698  0.00  0.00     0.019 A 
ATOM     24  O   UNL d   1     -46.441  14.107  22.148  0.00  0.00    -0.266 OA
ENDBRANCH  12  13
ENDBRANCH  11  12
ENDBRANCH   2  11
BRANCH   1  25
ATOM     25  C   UNL d   1     -49.624  13.126  21.802  0.00  0.00     0.069 A 
ATOM     26  C   UNL d   1     -49.554  13.205  20.984  0.00  0.00     0.018 A 
ATOM     27  C   UNL d   1     -49.554  12.531  20.504  0.00  0.00     0.002 A 
ATOM     28  C   UNL d   1     -49.626  11.781  20.847  0.00  0.00     0.000 A 
ATOM     29  C   UNL d   1     -49.696  11.710  21.666  0.00  0.00     0.002 A 
ATOM     30  C   UNL d   1     -49.695  12.385  22.142  0.00  0.00     0.018 A 
ENDBRANCH   1  25
TORSDOF 4
ENDMDL
MODEL 4
REMARK VINA RESULT:      -4.4      6.547      9.431
REMARK  4 active torsions:
REMARK  status: ('A' for Active; 'I' for Inactive)
REMARK    1  A    between atoms: C_14  and  N_1 
REMARK    2  A    between atoms: S_12  and  C_2 
REMARK       I    between atoms: N_7  and  C_10 
REMARK    3  A    between atoms: C_10  and  C_16 
REMARK    4  A    between atoms: C_16  and  S_12 
ROOT
ATOM      1  N   UNL d   1     -40.294  14.267  20.743  0.00  0.00    -0.254 N 
ATOM      2  C   UNL d   1     -40.489  14.147  19.950  0.00  0.00     0.183 A 
ATOM      3  N   UNL d   1     -41.212  13.804  19.754  0.00  0.00    -0.201 NA
ATOM      4  C   UNL d   1     -40.824  14.043  21.344  0.00  0.00     0.271 A 
ATOM      5  C   UNL d   1     -41.549  13.699  21.140  0.00  0.00     0.115 A 
ATOM      6  C   UNL d   1     -41.742  13.580  20.342  0.00  0.00     0.192 A 
ATOM      7  N   UNL d   1     -42.757  13.136  21.081  0.00  0.00    -0.145 NA
ATOM      8  N   UNL d   1     -42.493  13.230  20.311  0.00  0.00    -0.128 NA
ATOM      9  C   UNL d   1     -42.186  13.420  21.599  0.00  0.00     0.130 A 
ATOM     10  O   UNL d   1     -40.625  14.165  22.144  0.00  0.00    -0.266 OA
ENDROOT
BRANCH   2  11
ATOM     11  S   UNL d   1     -39.964  14.370  19.363  0.00  0.00    -0.044 SA
BRANCH  11  12
ATOM     12  C   UNL d   1     -40.208  14.379  18.564  0.00  0.00     0.099 C 
BRANCH  12  13
ATOM     13  C   UNL d   1     -39.688  14.140  17.971  0.00  0.00     0.271 C 
ATOM     14  N   UNL d   1     -39.500  14.651  17.354  0.00  0.00    -0.273 N 
ATOM     15  C   UNL d   1     -38.984  14.415  16.764  0.00  0.00     0.067 A 
ATOM     16  C   UNL d   1     -39.838  15.404  17.335  0.00  0.00     0.083 A 
ATOM     17  C   UNL d   1     -38.797  14.930  16.146  0.00  0.00     0.016 A 
ATOM     18  C   UNL d   1     -38.648  13.661  16.785  0.00  0.00     0.018 A 
ATOM     19  C   UNL d   1     -38.277  14.687  15.556  0.00  0.00     0.001 A 
ATOM     20  C   UNL d   1     -39.125  15.677  16.118  0.00  0.00     0.003 A 
ATOM     21  C   UNL d   1     -37.940  13.934  15.574  0.00  0.00     0.000 A 
ATOM     22  C   UNL d   1     -38.128  13.422  16.192  0.00  0.00     0.002 A 
ATOM     23  C   UNL d   1     -39.652  15.922  16.717  0.00  0.00     0.019 A 
ATOM     24  O   UNL d   1     -39.357  13.385  17.999  0.00  0.00    -0.266 OA
ENDBRANCH  12  13
ENDBRANCH  11  12
ENDBRANCH   2  11
BRANCH   1  25
ATOM     25  C   UNL d   1     -39.566  14.613  20.947  0.00  0.00     0.069 A 
ATOM     26  C   UNL d   1     -38.923  14.130  21.131  0.00  0.00     0.018 A 
ATOM     27  C   UNL d   1     -38.197  14.472  21.334  0.00  0.00     0.002 A 
ATOM     28  C   UNL d   1     -38.120  15.296  21.352  0.00  0.00     0.000 A 
ATOM     29  C   UNL d   1     -38.768  15.772  21.166  0.00  0.00     0.002 A 
ATOM     30  C   UNL d   1     -39.491  15.427  20.963  0.00  0.00     0.018 A 
ENDBRANCH   1  25
TORSDOF 4
ENDMDL
