MODEL 1
REMARK VINA RESULT:      14.3      0.000      0.000
REMARK  4 active torsions:
REMARK  status: ('A' for Active; 'I' for Inactive)
REMARK    1  A    between atoms: C_8  and  C_2 
REMARK    2  A    between atoms: O_6  and  C_8 
REMARK    3  A    between atoms: C_7  and  O_6 
REMARK    4  A    between atoms: O_10  and  C_9 
ROOT
ATOM      1  C   UNL d   1      13.108  11.830  -3.106  0.00  0.00     0.161 C 
ENDROOT
BRANCH   1   2
ATOM      2  O   UNL d   1      13.358  12.421  -3.517  0.00  0.00    -0.300 OA
BRANCH   2   3
ATOM      3  C   UNL d   1      13.196  12.469  -4.351  0.00  0.00     0.122 A 
ATOM      4  C   UNL d   1      12.956  13.161  -4.672  0.00  0.00     0.117 A 
ATOM      5  C   UNL d   1      12.801  13.197  -5.486  0.00  0.00     0.026 A 
ATOM      6  C   UNL d   1      12.895  12.522  -5.951  0.00  0.00     0.002 A 
ATOM      7  C   UNL d   1      13.148  11.788  -5.619  0.00  0.00     0.002 A 
ATOM      8  C   UNL d   1      13.299  11.779  -4.792  0.00  0.00     0.027 A 
BRANCH   4   9
ATOM      9  O   UNL d   1      12.863  13.832  -4.209  0.00  0.00    -0.326 OA
ATOM     10  C   UNL d   1      12.779  14.557  -4.547  0.00  0.00     0.181 C 
ENDBRANCH   4   9
ENDBRANCH   2   3
ENDBRANCH   1   2
BRANCH   1  11
ATOM     11  C   UNL d   1      13.252  11.820  -2.315  0.00  0.00     0.188 A 
ATOM     12  N   UNL d   1      13.079  11.805  -1.511  0.00  0.00    -0.224 NA
ATOM     13  C   UNL d   1      13.770  11.809  -1.093  0.00  0.00     0.101 A 
ATOM     14  C   UNL d   1      14.392  11.827  -1.635  0.00  0.00     0.101 A 
ATOM     15  C   UNL d   1      13.952  11.800  -0.304  0.00  0.00     0.021 A 
ATOM     16  C   UNL d   1      15.172  11.834  -1.368  0.00  0.00     0.021 A 
ATOM     17  N   UNL d   1      14.073  11.833  -2.377  0.00  0.00    -0.224 NA
ATOM     18  C   UNL d   1      15.331  11.824  -0.558  0.00  0.00     0.002 A 
ATOM     19  C   UNL d   1      14.709  11.807  -0.016  0.00  0.00     0.002 A 
ENDBRANCH   1  11
TORSDOF 4
ENDMDL
MODEL 2
REMARK VINA RESULT:      17.1      1.254      4.282
REMARK  4 active torsions:
REMARK  status: ('A' for Active; 'I' for Inactive)
REMARK    1  A    between atoms: C_8  and  C_2 
REMARK    2  A    between atoms: O_6  and  C_8 
REMARK    3  A    between atoms: C_7  and  O_6 
REMARK    4  A    between atoms: O_10  and  C_9 
ROOT
ATOM      1  C   UNL d   1      13.728  12.673  -2.544  0.00  0.00     0.161 C 
ENDROOT
BRANCH   1   2
ATOM      2  O   UNL d   1      14.285  12.321  -2.160  0.00  0.00    -0.300 OA
BRANCH   2   3
ATOM      3  C   UNL d   1      14.565  12.632  -1.420  0.00  0.00     0.122 A 
ATOM      4  C   UNL d   1      14.264  12.359  -0.732  0.00  0.00     0.117 A 
ATOM      5  C   UNL d   1      14.545  12.670  -0.016  0.00  0.00     0.026 A 
ATOM      6  C   UNL d   1      15.129  13.253  -0.022  0.00  0.00     0.002 A 
ATOM      7  C   UNL d   1      15.452  13.546  -0.746  0.00  0.00     0.002 A 
ATOM      8  C   UNL d   1      15.150  13.214  -1.456  0.00  0.00     0.027 A 
BRANCH   4   9
ATOM      9  O   UNL d   1      13.683  11.779  -0.725  0.00  0.00    -0.326 OA
ATOM     10  C   UNL d   1      13.070  11.816  -0.206  0.00  0.00     0.181 C 
ENDBRANCH   4   9
ENDBRANCH   2   3
ENDBRANCH   1   2
BRANCH   1  11
ATOM     11  C   UNL d   1      13.475  12.356  -3.238  0.00  0.00     0.188 A 
ATOM     12  N   UNL d   1      13.196  11.779  -3.754  0.00  0.00    -0.224 NA
ATOM     13  C   UNL d   1      13.106  12.104  -4.488  0.00  0.00     0.101 A 
ATOM     14  C   UNL d   1      13.329  12.897  -4.441  0.00  0.00     0.101 A 
ATOM     15  C   UNL d   1      12.857  11.819  -5.203  0.00  0.00     0.021 A 
ATOM     16  C   UNL d   1      13.294  13.375  -5.112  0.00  0.00     0.021 A 
ATOM     17  N   UNL d   1      13.553  13.047  -3.680  0.00  0.00    -0.224 NA
ATOM     18  C   UNL d   1      13.037  13.060  -5.831  0.00  0.00     0.002 A 
ATOM     19  C   UNL d   1      12.814  12.267  -5.877  0.00  0.00     0.002 A 
ENDBRANCH   1  11
TORSDOF 4
ENDMDL
