MODEL 1
REMARK VINA RESULT:      -2.6      0.000      0.000
REMARK  5 active torsions:
REMARK  status: ('A' for Active; 'I' for Inactive)
REMARK    1  A    between atoms: S_2  and  C_1 
REMARK    2  A    between atoms: C_9  and  S_2 
REMARK    3  A    between atoms: C_8  and  N_3 
REMARK    4  A    between atoms: C_7  and  C_8 
REMARK       I    between atoms: N_12  and  C_7 
REMARK    5  A    between atoms: C_14  and  C_9 
ROOT
ATOM      1  C   UNL d   1     -41.694-122.810 -51.508  0.00  0.00     0.107 A 
ATOM      2  N   UNL d   1     -41.509-122.352 -52.745  0.00  0.00    -0.299 N 
ATOM      3  C   UNL d   1     -41.695-123.027 -52.309  0.00  0.00     0.092 A 
ATOM      4  C   UNL d   1     -41.509-122.008 -51.458  0.00  0.00     0.028 A 
ATOM      5  C   UNL d   1     -41.395-121.725 -52.228  0.00  0.00     0.065 A 
ATOM      6  C   UNL d   1     -41.430-121.501 -50.815  0.00  0.00     0.002 A 
ATOM      7  C   UNL d   1     -41.202-120.932 -52.344  0.00  0.00     0.018 A 
ATOM      8  C   UNL d   1     -41.236-120.703 -50.931  0.00  0.00     0.000 A 
ATOM      9  C   UNL d   1     -41.123-120.425 -51.702  0.00  0.00     0.002 A 
ENDROOT
BRANCH   1  10
ATOM     10  S   UNL d   1     -41.852-123.315 -50.869  0.00  0.00     0.212 S 
ATOM     11  O   UNL d   1     -42.575-122.922 -50.824  0.00  0.00    -0.217 OA
ATOM     12  O   UNL d   1     -41.124-123.708 -50.917  0.00  0.00    -0.217 OA
BRANCH  10  13
ATOM     13  C   UNL d   1     -42.007-123.817 -50.235  0.00  0.00     0.099 C 
BRANCH  13  14
ATOM     14  C   UNL d   1     -42.129-123.504 -49.484  0.00  0.00     0.011 A 
ATOM     15  C   UNL d   1     -42.879-123.236 -49.270  0.00  0.00     0.001 A 
ATOM     16  C   UNL d   1     -42.998-122.919 -48.509  0.00  0.00     0.000 A 
ATOM     17  C   UNL d   1     -42.366-122.875 -47.973  0.00  0.00     0.000 A 
ATOM     18  C   UNL d   1     -41.621-123.148 -48.202  0.00  0.00     0.000 A 
ATOM     19  C   UNL d   1     -41.506-123.459 -48.952  0.00  0.00     0.001 A 
ENDBRANCH  13  14
ENDBRANCH  10  13
ENDBRANCH   1  10
BRANCH   2  20
ATOM     20  C   UNL d   1     -41.450-122.315 -53.567  0.00  0.00     0.142 C 
BRANCH  20  21
ATOM     21  C   UNL d   1     -41.745-122.929 -54.030  0.00  0.00     0.283 C 
ATOM     22  N   UNL d   1     -42.034-122.773 -54.787  0.00  0.00    -0.268 N 
ATOM     23  C   UNL d   1     -42.333-123.388 -55.259  0.00  0.00     0.102 C 
ATOM     24  C   UNL d   1     -42.027-122.003 -55.081  0.00  0.00     0.102 C 
ATOM     25  O   UNL d   1     -41.752-123.697 -53.737  0.00  0.00    -0.265 OA
ENDBRANCH  20  21
ENDBRANCH   2  20
TORSDOF 5
ENDMDL
MODEL 2
REMARK VINA RESULT:      -2.0      1.740      4.569
REMARK  5 active torsions:
REMARK  status: ('A' for Active; 'I' for Inactive)
REMARK    1  A    between atoms: S_2  and  C_1 
REMARK    2  A    between atoms: C_9  and  S_2 
REMARK    3  A    between atoms: C_8  and  N_3 
REMARK    4  A    between atoms: C_7  and  C_8 
REMARK       I    between atoms: N_12  and  C_7 
REMARK    5  A    between atoms: C_14  and  C_9 
ROOT
ATOM      1  C   UNL d   1     -41.938-122.595 -50.879  0.00  0.00     0.107 A 
ATOM      2  N   UNL d   1     -42.231-123.057 -49.664  0.00  0.00    -0.299 N 
ATOM      3  C   UNL d   1     -41.636-123.020 -50.233  0.00  0.00     0.092 A 
ATOM      4  C   UNL d   1     -42.713-122.375 -50.703  0.00  0.00     0.028 A 
ATOM      5  C   UNL d   1     -42.894-122.663 -49.948  0.00  0.00     0.065 A 
ATOM      6  C   UNL d   1     -43.275-121.953 -51.130  0.00  0.00     0.002 A 
ATOM      7  C   UNL d   1     -43.641-122.522 -49.628  0.00  0.00     0.018 A 
ATOM      8  C   UNL d   1     -44.026-121.811 -50.809  0.00  0.00     0.000 A 
ATOM      9  C   UNL d   1     -44.203-122.099 -50.055  0.00  0.00     0.002 A 
ENDROOT
BRANCH   1  10
ATOM     10  S   UNL d   1     -41.529-122.423 -51.580  0.00  0.00     0.212 S 
ATOM     11  O   UNL d   1     -41.517-123.240 -51.694  0.00  0.00    -0.217 OA
ATOM     12  O   UNL d   1     -41.542-121.604 -51.462  0.00  0.00    -0.217 OA
BRANCH  10  13
ATOM     13  C   UNL d   1     -41.123-122.251 -52.275  0.00  0.00     0.099 C 
BRANCH  13  14
ATOM     14  C   UNL d   1     -41.386-122.559 -52.991  0.00  0.00     0.011 A 
ATOM     15  C   UNL d   1     -41.183-123.329 -53.203  0.00  0.00     0.001 A 
ATOM     16  C   UNL d   1     -41.452-123.638 -53.929  0.00  0.00     0.000 A 
ATOM     17  C   UNL d   1     -41.919-123.172 -54.432  0.00  0.00     0.000 A 
ATOM     18  C   UNL d   1     -42.114-122.402 -54.205  0.00  0.00     0.000 A 
ATOM     19  C   UNL d   1     -41.848-122.101 -53.490  0.00  0.00     0.001 A 
ENDBRANCH  13  14
ENDBRANCH  10  13
ENDBRANCH   1  10
BRANCH   2  20
ATOM     20  C   UNL d   1     -42.170-123.429 -48.930  0.00  0.00     0.142 C 
BRANCH  20  21
ATOM     21  C   UNL d   1     -41.722-123.086 -48.331  0.00  0.00     0.283 C 
ATOM     22  N   UNL d   1     -41.873-123.275 -47.542  0.00  0.00    -0.268 N 
ATOM     23  C   UNL d   1     -41.424-122.933 -46.933  0.00  0.00     0.102 C 
ATOM     24  C   UNL d   1     -42.473-123.808 -47.353  0.00  0.00     0.102 C 
ATOM     25  O   UNL d   1     -41.123-122.555 -48.519  0.00  0.00    -0.265 OA
ENDBRANCH  20  21
ENDBRANCH   2  20
TORSDOF 5
ENDMDL
