MODEL 1
REMARK VINA RESULT:      -2.4      0.000      0.000
REMARK  6 active torsions:
REMARK  status: ('A' for Active; 'I' for Inactive)
REMARK       I    between atoms: N_2  and  C_1 
REMARK    1  A    between atoms: C_5  and  C_1 
REMARK    2  A    between atoms: C_3  and  N_2 
REMARK    3  A    between atoms: O_16  and  C_6 
REMARK    4  A    between atoms: O_17  and  C_11 
REMARK    5  A    between atoms: O_18  and  C_12 
REMARK    6  A    between atoms: C_19  and  O_18 
ROOT
ATOM      1  C   UNL d   1      32.964  19.801 -22.545  0.00  0.00     0.279 C 
ATOM      2  N   UNL d   1      33.193  20.505 -22.915  0.00  0.00    -0.206 NA
ATOM      3  O   UNL d   1      32.752  19.800 -21.755  0.00  0.00    -0.265 OA
ENDROOT
BRANCH   1   4
ATOM      4  C   UNL d   1      32.952  19.080 -22.988  0.00  0.00     0.058 A 
ATOM      5  C   UNL d   1      33.126  18.368 -22.609  0.00  0.00     0.007 A 
ATOM      6  C   UNL d   1      33.113  17.674 -23.036  0.00  0.00     0.025 A 
ATOM      7  C   UNL d   1      32.927  17.688 -23.845  0.00  0.00     0.100 A 
ATOM      8  C   UNL d   1      32.755  18.403 -24.210  0.00  0.00     0.025 A 
ATOM      9  C   UNL d   1      32.768  19.097 -23.783  0.00  0.00     0.007 A 
BRANCH   7  10
ATOM     10  O   UNL d   1      32.914  16.972 -24.286  0.00  0.00    -0.305 OA
BRANCH  10  11
ATOM     11  C   UNL d   1      32.223  16.750 -24.679  0.00  0.00     0.123 C 
ATOM     12  C   UNL d   1      32.126  15.965 -24.917  0.00  0.00     0.029 C 
ENDBRANCH  10  11
ENDBRANCH   7  10
ENDBRANCH   1   4
BRANCH   2  13
ATOM     13  C   UNL d   1      33.205  21.199 -22.488  0.00  0.00     0.109 A 
ATOM     14  C   UNL d   1      33.194  21.163 -21.666  0.00  0.00     0.045 A 
ATOM     15  C   UNL d   1      33.206  21.854 -21.235  0.00  0.00     0.096 A 
ATOM     16  C   UNL d   1      33.230  22.597 -21.609  0.00  0.00     0.026 A 
ATOM     17  C   UNL d   1      33.241  22.625 -22.417  0.00  0.00     0.028 A 
ATOM     18  C   UNL d   1      33.229  21.931 -22.874  0.00  0.00     0.112 A 
BRANCH  15  19
ATOM     19  O   UNL d   1      33.194  21.796 -20.408  0.00  0.00    -0.328 OA
ATOM     20  C   UNL d   1      33.206  22.489 -19.950  0.00  0.00     0.181 C 
ENDBRANCH  15  19
BRANCH  18  21
ATOM     21  O   UNL d   1      33.240  21.976 -23.690  0.00  0.00    -0.327 OA
ATOM     22  C   UNL d   1      33.173  22.718 -24.060  0.00  0.00     0.181 C 
ENDBRANCH  18  21
ENDBRANCH   2  13
TORSDOF 6
ENDMDL
MODEL 2
REMARK VINA RESULT:      -2.1      1.241      4.857
REMARK  6 active torsions:
REMARK  status: ('A' for Active; 'I' for Inactive)
REMARK       I    between atoms: N_2  and  C_1 
REMARK    1  A    between atoms: C_5  and  C_1 
REMARK    2  A    between atoms: C_3  and  N_2 
REMARK    3  A    between atoms: O_16  and  C_6 
REMARK    4  A    between atoms: O_17  and  C_11 
REMARK    5  A    between atoms: O_18  and  C_12 
REMARK    6  A    between atoms: C_19  and  O_18 
ROOT
ATOM      1  C   UNL d   1      32.886  20.878 -21.234  0.00  0.00     0.279 C 
ATOM      2  N   UNL d   1      33.001  21.037 -22.038  0.00  0.00    -0.206 NA
ATOM      3  O   UNL d   1      32.828  20.106 -20.971  0.00  0.00    -0.265 OA
ENDROOT
BRANCH   1   4
ATOM      4  C   UNL d   1      32.828  21.519 -20.684  0.00  0.00     0.058 A 
ATOM      5  C   UNL d   1      33.063  21.403 -19.902  0.00  0.00     0.007 A 
ATOM      6  C   UNL d   1      33.007  22.020 -19.372  0.00  0.00     0.025 A 
ATOM      7  C   UNL d   1      32.717  22.756 -19.621  0.00  0.00     0.100 A 
ATOM      8  C   UNL d   1      32.487  22.858 -20.403  0.00  0.00     0.025 A 
ATOM      9  C   UNL d   1      32.543  22.241 -20.932  0.00  0.00     0.007 A 
BRANCH   7  10
ATOM     10  O   UNL d   1      32.660  23.393 -19.075  0.00  0.00    -0.305 OA
BRANCH  10  11
ATOM     11  C   UNL d   1      32.929  23.288 -18.302  0.00  0.00     0.123 C 
ATOM     12  C   UNL d   1      32.561  23.697 -17.686  0.00  0.00     0.029 C 
ENDBRANCH  10  11
ENDBRANCH   7  10
ENDBRANCH   1   4
BRANCH   2  13
ATOM     13  C   UNL d   1      33.056  20.421 -22.568  0.00  0.00     0.109 A 
ATOM     14  C   UNL d   1      33.046  19.649 -22.284  0.00  0.00     0.045 A 
ATOM     15  C   UNL d   1      33.102  19.029 -22.810  0.00  0.00     0.096 A 
ATOM     16  C   UNL d   1      33.168  19.161 -23.629  0.00  0.00     0.026 A 
ATOM     17  C   UNL d   1      33.176  19.922 -23.901  0.00  0.00     0.028 A 
ATOM     18  C   UNL d   1      33.121  20.568 -23.380  0.00  0.00     0.112 A 
BRANCH  15  19
ATOM     19  O   UNL d   1      33.090  18.258 -22.505  0.00  0.00    -0.328 OA
ATOM     20  C   UNL d   1      32.866  17.627 -22.996  0.00  0.00     0.181 C 
ENDBRANCH  15  19
BRANCH  18  21
ATOM     21  O   UNL d   1      33.132  21.332 -23.670  0.00  0.00    -0.327 OA
ATOM     22  C   UNL d   1      33.241  21.459 -24.484  0.00  0.00     0.181 C 
ENDBRANCH  18  21
ENDBRANCH   2  13
TORSDOF 6
ENDMDL
MODEL 3
REMARK VINA RESULT:      -1.2      1.464      5.311
REMARK  6 active torsions:
REMARK  status: ('A' for Active; 'I' for Inactive)
REMARK       I    between atoms: N_2  and  C_1 
REMARK    1  A    between atoms: C_5  and  C_1 
REMARK    2  A    between atoms: C_3  and  N_2 
REMARK    3  A    between atoms: O_16  and  C_6 
REMARK    4  A    between atoms: O_17  and  C_11 
REMARK    5  A    between atoms: O_18  and  C_12 
REMARK    6  A    between atoms: C_19  and  O_18 
ROOT
ATOM      1  C   UNL d   1      32.110  18.435 -23.648  0.00  0.00     0.279 C 
ATOM      2  N   UNL d   1      32.167  17.693 -23.286  0.00  0.00    -0.206 NA
ATOM      3  O   UNL d   1      31.778  18.505 -24.393  0.00  0.00    -0.265 OA
ENDROOT
BRANCH   1   4
ATOM      4  C   UNL d   1      32.398  19.121 -23.246  0.00  0.00     0.058 A 
ATOM      5  C   UNL d   1      32.837  19.681 -23.664  0.00  0.00     0.007 A 
ATOM      6  C   UNL d   1      33.115  20.342 -23.276  0.00  0.00     0.025 A 
ATOM      7  C   UNL d   1      32.955  20.447 -22.468  0.00  0.00     0.100 A 
ATOM      8  C   UNL d   1      32.517  19.882 -22.065  0.00  0.00     0.025 A 
ATOM      9  C   UNL d   1      32.240  19.221 -22.452  0.00  0.00     0.007 A 
BRANCH   7  10
ATOM     10  O   UNL d   1      33.241  21.129 -22.068  0.00  0.00    -0.305 OA
BRANCH  10  11
ATOM     11  C   UNL d   1      32.986  21.284 -21.299  0.00  0.00     0.123 C 
ATOM     12  C   UNL d   1      33.061  22.048 -20.993  0.00  0.00     0.029 C 
ENDBRANCH  10  11
ENDBRANCH   7  10
ENDBRANCH   1   4
BRANCH   2  13
ATOM     13  C   UNL d   1      31.890  17.032 -23.674  0.00  0.00     0.109 A 
ATOM     14  C   UNL d   1      31.184  17.082 -24.093  0.00  0.00     0.045 A 
ATOM     15  C   UNL d   1      30.903  16.423 -24.482  0.00  0.00     0.096 A 
ATOM     16  C   UNL d   1      31.315  15.701 -24.464  0.00  0.00     0.026 A 
ATOM     17  C   UNL d   1      32.009  15.660 -24.051  0.00  0.00     0.028 A 
ATOM     18  C   UNL d   1      32.312  16.320 -23.647  0.00  0.00     0.112 A 
BRANCH  15  19
ATOM     19  O   UNL d   1      30.189  16.494 -24.899  0.00  0.00    -0.328 OA
ATOM     20  C   UNL d   1      29.640  15.872 -24.875  0.00  0.00     0.181 C 
ENDBRANCH  15  19
BRANCH  18  21
ATOM     21  O   UNL d   1      33.014  16.262 -23.233  0.00  0.00    -0.327 OA
ATOM     22  C   UNL d   1      33.178  15.573 -22.798  0.00  0.00     0.181 C 
ENDBRANCH  18  21
ENDBRANCH   2  13
TORSDOF 6
ENDMDL
MODEL 4
REMARK VINA RESULT:      -1.0      1.664      2.710
REMARK  6 active torsions:
REMARK  status: ('A' for Active; 'I' for Inactive)
REMARK       I    between atoms: N_2  and  C_1 
REMARK    1  A    between atoms: C_5  and  C_1 
REMARK    2  A    between atoms: C_3  and  N_2 
REMARK    3  A    between atoms: O_16  and  C_6 
REMARK    4  A    between atoms: O_17  and  C_11 
REMARK    5  A    between atoms: O_18  and  C_12 
REMARK    6  A    between atoms: C_19  and  O_18 
ROOT
ATOM      1  C   UNL d   1      32.965  21.059 -20.500  0.00  0.00     0.279 C 
ATOM      2  N   UNL d   1      33.014  21.871 -20.650  0.00  0.00    -0.206 NA
ATOM      3  O   UNL d   1      32.850  20.788 -19.736  0.00  0.00    -0.265 OA
ENDROOT
BRANCH   1   4
ATOM      4  C   UNL d   1      33.036  20.509 -21.139  0.00  0.00     0.058 A 
ATOM      5  C   UNL d   1      32.986  20.783 -21.916  0.00  0.00     0.007 A 
ATOM      6  C   UNL d   1      33.054  20.254 -22.532  0.00  0.00     0.025 A 
ATOM      7  C   UNL d   1      33.171  19.447 -22.374  0.00  0.00     0.100 A 
ATOM      8  C   UNL d   1      33.218  19.188 -21.597  0.00  0.00     0.025 A 
ATOM      9  C   UNL d   1      33.150  19.717 -20.981  0.00  0.00     0.007 A 
BRANCH   7  10
ATOM     10  O   UNL d   1      33.241  18.901 -23.010  0.00  0.00    -0.305 OA
BRANCH  10  11
ATOM     11  C   UNL d   1      32.558  18.592 -23.356  0.00  0.00     0.123 C 
ATOM     12  C   UNL d   1      32.515  18.525 -24.178  0.00  0.00     0.029 C 
ENDBRANCH  10  11
ENDBRANCH   7  10
ENDBRANCH   1   4
BRANCH   2  13
ATOM     13  C   UNL d   1      32.946  22.401 -20.034  0.00  0.00     0.109 A 
ATOM     14  C   UNL d   1      33.124  22.150 -19.271  0.00  0.00     0.045 A 
ATOM     15  C   UNL d   1      33.058  22.676 -18.652  0.00  0.00     0.096 A 
ATOM     16  C   UNL d   1      32.814  23.462 -18.776  0.00  0.00     0.026 A 
ATOM     17  C   UNL d   1      32.641  23.701 -19.529  0.00  0.00     0.028 A 
ATOM     18  C   UNL d   1      32.703  23.180 -20.173  0.00  0.00     0.112 A 
BRANCH  15  19
ATOM     19  O   UNL d   1      33.241  22.404 -17.890  0.00  0.00    -0.328 OA
ATOM     20  C   UNL d   1      33.239  22.939 -17.255  0.00  0.00     0.181 C 
ENDBRANCH  15  19
BRANCH  18  21
ATOM     21  O   UNL d   1      32.524  23.437 -20.929  0.00  0.00    -0.327 OA
ATOM     22  C   UNL d   1      31.756  23.702 -21.100  0.00  0.00     0.181 C 
ENDBRANCH  18  21
ENDBRANCH   2  13
TORSDOF 6
ENDMDL
MODEL 5
REMARK VINA RESULT:      -0.7      3.216      5.328
REMARK  6 active torsions:
REMARK  status: ('A' for Active; 'I' for Inactive)
REMARK       I    between atoms: N_2  and  C_1 
REMARK    1  A    between atoms: C_5  and  C_1 
REMARK    2  A    between atoms: C_3  and  N_2 
REMARK    3  A    between atoms: O_16  and  C_6 
REMARK    4  A    between atoms: O_17  and  C_11 
REMARK    5  A    between atoms: O_18  and  C_12 
REMARK    6  A    between atoms: C_19  and  O_18 
ROOT
ATOM      1  C   UNL d   1      30.496  16.495 -24.342  0.00  0.00     0.279 C 
ATOM      2  N   UNL d   1      30.954  16.834 -23.741  0.00  0.00    -0.206 NA
ATOM      3  O   UNL d   1      30.801  16.417 -25.097  0.00  0.00    -0.265 OA
ENDROOT
BRANCH   1   4
ATOM      4  C   UNL d   1      29.711  16.230 -24.171  0.00  0.00     0.058 A 
ATOM      5  C   UNL d   1      29.245  15.927 -24.781  0.00  0.00     0.007 A 
ATOM      6  C   UNL d   1      28.489  15.671 -24.616  0.00  0.00     0.025 A 
ATOM      7  C   UNL d   1      28.195  15.716 -23.841  0.00  0.00     0.100 A 
ATOM      8  C   UNL d   1      28.669  16.019 -23.244  0.00  0.00     0.025 A 
ATOM      9  C   UNL d   1      29.425  16.275 -23.408  0.00  0.00     0.007 A 
BRANCH   7  10
ATOM     10  O   UNL d   1      27.414  15.453 -23.672  0.00  0.00    -0.305 OA
BRANCH  10  11
ATOM     11  C   UNL d   1      27.001  15.788 -23.041  0.00  0.00     0.123 C 
ATOM     12  C   UNL d   1      26.177  15.740 -23.025  0.00  0.00     0.029 C 
ENDBRANCH  10  11
ENDBRANCH   7  10
ENDBRANCH   1   4
BRANCH   2  13
ATOM     13  C   UNL d   1      31.710  17.090 -23.905  0.00  0.00     0.109 A 
ATOM     14  C   UNL d   1      31.813  17.746 -24.391  0.00  0.00     0.045 A 
ATOM     15  C   UNL d   1      32.567  18.005 -24.558  0.00  0.00     0.096 A 
ATOM     16  C   UNL d   1      33.236  17.620 -24.247  0.00  0.00     0.026 A 
ATOM     17  C   UNL d   1      33.128  16.976 -23.771  0.00  0.00     0.028 A 
ATOM     18  C   UNL d   1      32.366  16.696 -23.589  0.00  0.00     0.112 A 
BRANCH  15  19
ATOM     19  O   UNL d   1      32.650  18.668 -25.049  0.00  0.00    -0.328 OA
ATOM     20  C   UNL d   1      33.002  19.358 -24.748  0.00  0.00     0.181 C 
ENDBRANCH  15  19
BRANCH  18  21
ATOM     21  O   UNL d   1      32.273  16.043 -23.106  0.00  0.00    -0.327 OA
ATOM     22  C   UNL d   1      32.890  15.819 -22.596  0.00  0.00     0.181 C 
ENDBRANCH  18  21
ENDBRANCH   2  13
TORSDOF 6
ENDMDL
MODEL 6
REMARK VINA RESULT:      -0.4      1.556      4.874
REMARK  6 active torsions:
REMARK  status: ('A' for Active; 'I' for Inactive)
REMARK       I    between atoms: N_2  and  C_1 
REMARK    1  A    between atoms: C_5  and  C_1 
REMARK    2  A    between atoms: C_3  and  N_2 
REMARK    3  A    between atoms: O_16  and  C_6 
REMARK    4  A    between atoms: O_17  and  C_11 
REMARK    5  A    between atoms: O_18  and  C_12 
REMARK    6  A    between atoms: C_19  and  O_18 
ROOT
ATOM      1  C   UNL d   1      32.671  21.951 -22.091  0.00  0.00     0.279 C 
ATOM      2  N   UNL d   1      33.240  22.078 -22.678  0.00  0.00    -0.206 NA
ATOM      3  O   UNL d   1      32.074  21.404 -22.208  0.00  0.00    -0.265 OA
ENDROOT
BRANCH   1   4
ATOM      4  C   UNL d   1      32.708  22.390 -21.369  0.00  0.00     0.058 A 
ATOM      5  C   UNL d   1      33.002  22.027 -20.689  0.00  0.00     0.007 A 
ATOM      6  C   UNL d   1      33.038  22.450 -19.993  0.00  0.00     0.025 A 
ATOM      7  C   UNL d   1      32.780  23.239 -19.973  0.00  0.00     0.100 A 
ATOM      8  C   UNL d   1      32.489  23.588 -20.657  0.00  0.00     0.025 A 
ATOM      9  C   UNL d   1      32.453  23.165 -21.353  0.00  0.00     0.007 A 
BRANCH   7  10
ATOM     10  O   UNL d   1      32.816  23.675 -19.255  0.00  0.00    -0.305 OA
BRANCH  10  11
ATOM     11  C   UNL d   1      32.462  23.368 -18.576  0.00  0.00     0.123 C 
ATOM     12  C   UNL d   1      32.885  23.360 -17.867  0.00  0.00     0.029 C 
ENDBRANCH  10  11
ENDBRANCH   7  10
ENDBRANCH   1   4
BRANCH   2  13
ATOM     13  C   UNL d   1      33.205  21.655 -23.374  0.00  0.00     0.109 A 
ATOM     14  C   UNL d   1      33.236  20.834 -23.343  0.00  0.00     0.045 A 
ATOM     15  C   UNL d   1      33.200  20.407 -24.037  0.00  0.00     0.096 A 
ATOM     16  C   UNL d   1      33.133  20.785 -24.775  0.00  0.00     0.026 A 
ATOM     17  C   UNL d   1      33.103  21.592 -24.797  0.00  0.00     0.028 A 
ATOM     18  C   UNL d   1      33.138  22.046 -24.101  0.00  0.00     0.112 A 
BRANCH  15  19
ATOM     19  O   UNL d   1      33.233  19.580 -23.985  0.00  0.00    -0.328 OA
ATOM     20  C   UNL d   1      32.567  19.131 -24.196  0.00  0.00     0.181 C 
ENDBRANCH  15  19
BRANCH  18  21
ATOM     21  O   UNL d   1      33.107  22.862 -24.140  0.00  0.00    -0.327 OA
ATOM     22  C   UNL d   1      32.644  23.226 -24.726  0.00  0.00     0.181 C 
ENDBRANCH  18  21
ENDBRANCH   2  13
TORSDOF 6
ENDMDL
