MODEL 1
REMARK VINA RESULT:      25.7      0.000      0.000
REMARK  3 active torsions:
REMARK  status: ('A' for Active; 'I' for Inactive)
REMARK    1  A    between atoms: N_2  and  C_12 
REMARK    2  A    between atoms: N_10  and  C_6 
REMARK       I    between atoms: C_11  and  N_10 
REMARK    3  A    between atoms: C_12  and  C_11 
ROOT
ATOM      1  C   UNL d   1      13.070  13.995  -3.745  0.00  0.00     0.283 A 
ATOM      2  N   UNL d   1      13.149  14.541  -4.385  0.00  0.00    -0.169 NA
ATOM      3  C   UNL d   1      13.175  13.227  -4.113  0.00  0.00     0.080 A 
ATOM      4  C   UNL d   1      13.287  14.125  -5.057  0.00  0.00     0.282 A 
ATOM      5  C   UNL d   1      13.162  12.472  -3.787  0.00  0.00     0.089 A 
ATOM      6  C   UNL d   1      13.306  13.352  -4.916  0.00  0.00     0.064 A 
ATOM      7  O   UNL d   1      12.921  14.118  -2.916  0.00  0.00    -0.265 OA
ATOM      8  O   UNL d   1      13.395  14.494  -5.808  0.00  0.00    -0.265 OA
ATOM      9  C   UNL d   1      13.284  11.816  -4.289  0.00  0.00     0.019 A 
ATOM     10  C   UNL d   1      13.426  12.691  -5.406  0.00  0.00     0.005 A 
ATOM     11  C   UNL d   1      13.412  11.960  -5.085  0.00  0.00     0.002 A 
ENDROOT
BRANCH   5  12
ATOM     12  N   UNL d   1      13.021  12.337  -2.923  0.00  0.00    -0.207 NA
ATOM     13  C   UNL d   1      13.644  11.990  -2.498  0.00  0.00     0.297 C 
ATOM     14  O   UNL d   1      14.345  11.781  -2.836  0.00  0.00    -0.264 OA
BRANCH  13  15
ATOM     15  C   UNL d   1      13.508  11.867  -1.694  0.00  0.00     0.148 C 
BRANCH  15  16
ATOM     16  N   UNL d   1      14.137  11.967  -1.179  0.00  0.00    -0.236 N 
ATOM     17  C   UNL d   1      14.960  11.995  -1.328  0.00  0.00     0.267 A 
ATOM     18  C   UNL d   1      15.335  12.110  -0.585  0.00  0.00     0.066 A 
ATOM     19  O   UNL d   1      15.339  11.922  -2.078  0.00  0.00    -0.267 OA
ATOM     20  C   UNL d   1      14.751  12.149  -0.014  0.00  0.00     0.066 A 
ATOM     21  C   UNL d   1      13.999  12.060  -0.385  0.00  0.00     0.267 A 
ATOM     22  O   UNL d   1      13.235  12.060  -0.039  0.00  0.00    -0.267 OA
ENDBRANCH  15  16
ENDBRANCH  13  15
ENDBRANCH   5  12
TORSDOF 3
ENDMDL
MODEL 2
REMARK VINA RESULT:      27.5      0.931      1.360
REMARK  3 active torsions:
REMARK  status: ('A' for Active; 'I' for Inactive)
REMARK    1  A    between atoms: N_2  and  C_12 
REMARK    2  A    between atoms: N_10  and  C_6 
REMARK       I    between atoms: C_11  and  N_10 
REMARK    3  A    between atoms: C_12  and  C_11 
ROOT
ATOM      1  C   UNL d   1      14.098  13.917  -3.513  0.00  0.00     0.283 A 
ATOM      2  N   UNL d   1      13.803  14.478  -4.073  0.00  0.00    -0.169 NA
ATOM      3  C   UNL d   1      13.705  13.185  -3.726  0.00  0.00     0.080 A 
ATOM      4  C   UNL d   1      13.288  14.102  -4.560  0.00  0.00     0.282 A 
ATOM      5  C   UNL d   1      13.757  12.435  -3.393  0.00  0.00     0.089 A 
ATOM      6  C   UNL d   1      13.218  13.342  -4.371  0.00  0.00     0.064 A 
ATOM      7  O   UNL d   1      14.652  14.000  -2.873  0.00  0.00    -0.265 OA
ATOM      8  O   UNL d   1      12.884  14.495  -5.189  0.00  0.00    -0.265 OA
ATOM      9  C   UNL d   1      13.301  11.817  -3.723  0.00  0.00     0.019 A 
ATOM     10  C   UNL d   1      12.769  12.719  -4.690  0.00  0.00     0.005 A 
ATOM     11  C   UNL d   1      12.822  11.992  -4.365  0.00  0.00     0.002 A 
ENDROOT
BRANCH   5  12
ATOM     12  N   UNL d   1      14.280  12.265  -2.700  0.00  0.00    -0.207 NA
ATOM     13  C   UNL d   1      13.912  11.939  -2.031  0.00  0.00     0.297 C 
ATOM     14  O   UNL d   1      13.123  11.780  -1.996  0.00  0.00    -0.264 OA
BRANCH  13  15
ATOM     15  C   UNL d   1      14.405  11.783  -1.388  0.00  0.00     0.148 C 
BRANCH  15  16
ATOM     16  N   UNL d   1      14.586  12.404  -0.886  0.00  0.00    -0.236 N 
ATOM     17  C   UNL d   1      14.088  12.886  -0.417  0.00  0.00     0.267 A 
ATOM     18  C   UNL d   1      14.587  13.432  -0.018  0.00  0.00     0.066 A 
ATOM     19  O   UNL d   1      13.248  12.833  -0.357  0.00  0.00    -0.267 OA
ATOM     20  C   UNL d   1      15.357  13.277  -0.244  0.00  0.00     0.066 A 
ATOM     21  C   UNL d   1      15.358  12.633  -0.788  0.00  0.00     0.267 A 
ATOM     22  O   UNL d   1      16.007  12.269  -1.176  0.00  0.00    -0.267 OA
ENDBRANCH  15  16
ENDBRANCH  13  15
ENDBRANCH   5  12
TORSDOF 3
ENDMDL
