MODEL 1
REMARK VINA RESULT:      21.4      0.000      0.000
REMARK  3 active torsions:
REMARK  status: ('A' for Active; 'I' for Inactive)
REMARK    1  A    between atoms: N_2  and  S_1 
REMARK    2  A    between atoms: C_5  and  S_1 
REMARK    3  A    between atoms: C_4  and  N_3 
ROOT
ATOM      1  N   UNL d   1      45.792 -16.344  44.079  0.00  0.00    -0.226 N 
ATOM      2  N   UNL d   1      46.039 -17.940  43.739  0.00  0.00    -0.301 N 
ATOM      3  C   UNL d   1      46.523 -16.600  43.807  0.00  0.00     0.111 A 
ATOM      4  C   UNL d   1      45.172 -16.890  44.184  0.00  0.00     0.111 A 
ATOM      5  C   UNL d   1      46.646 -17.398  43.637  0.00  0.00     0.100 A 
ATOM      6  C   UNL d   1      45.295 -17.688  44.015  0.00  0.00     0.100 A 
ENDROOT
BRANCH   1   7
ATOM      7  S   UNL d   1      45.669 -15.546  44.249  0.00  0.00     0.271 S 
ATOM      8  O   UNL d   1      45.179 -15.482  43.589  0.00  0.00    -0.200 OA
ATOM      9  O   UNL d   1      46.159 -15.611  44.910  0.00  0.00    -0.200 OA
BRANCH   7  10
ATOM     10  C   UNL d   1      45.545 -14.749  44.418  0.00  0.00     0.104 A 
ATOM     11  C   UNL d   1      44.840 -14.504  44.759  0.00  0.00     0.015 A 
ATOM     12  C   UNL d   1      44.717 -13.707  44.928  0.00  0.00     0.030 A 
ATOM     13  C   UNL d   1      45.298 -13.155  44.758  0.00  0.00     0.140 A 
ATOM     14  C   UNL d   1      46.016 -13.396  44.412  0.00  0.00     0.030 A 
ATOM     15  F   UNL d   1      45.175 -12.357  44.927  0.00  0.00    -0.204 F 
ATOM     16  C   UNL d   1      46.139 -14.193  44.243  0.00  0.00     0.015 A 
ENDBRANCH   7  10
ENDBRANCH   1   7
BRANCH   2  17
ATOM     17  C   UNL d   1      46.162 -18.734  43.570  0.00  0.00     0.064 A 
ATOM     18  C   UNL d   1      46.086 -19.009  42.801  0.00  0.00     0.016 A 
ATOM     19  C   UNL d   1      46.210 -19.807  42.631  0.00  0.00     0.001 A 
ATOM     20  C   UNL d   1      45.885 -18.484  42.194  0.00  0.00     0.002 C 
ATOM     21  C   UNL d   1      46.409 -20.328  43.231  0.00  0.00     0.000 A 
ATOM     22  C   UNL d   1      46.488 -20.058  44.013  0.00  0.00     0.001 A 
ATOM     23  C   UNL d   1      46.364 -19.260  44.183  0.00  0.00     0.016 A 
ATOM     24  C   UNL d   1      46.440 -18.985  44.954  0.00  0.00     0.002 C 
ENDBRANCH   2  17
TORSDOF 3
ENDMDL
