MODEL 1
REMARK VINA RESULT:     111.1      0.000      0.000
REMARK  4 active torsions:
REMARK  status: ('A' for Active; 'I' for Inactive)
REMARK    1  A    between atoms: O_7  and  C_2 
REMARK    2  A    between atoms: C_13  and  C_3 
REMARK    3  A    between atoms: C_11  and  O_7 
REMARK    4  A    between atoms: O_25  and  C_20 
ROOT
ATOM      1  C   UNL d   1     -58.481 -98.952 -44.461  0.00  0.00     0.066 A 
ATOM      2  C   UNL d   1     -57.730 -99.067 -44.771  0.00  0.00     0.186 A 
ATOM      3  C   UNL d   1     -58.772 -98.859 -43.673  0.00  0.00     0.012 A 
ATOM      4  C   UNL d   1     -59.564 -98.765 -43.725  0.00  0.00     0.037 A 
ATOM      5  C   UNL d   1     -59.134 -98.907 -44.976  0.00  0.00     0.116 A 
ATOM      6  S   UNL d   1     -59.822 -98.789 -44.514  0.00  0.00    -0.067 SA
ATOM      7  N   UNL d   1     -57.637 -99.137 -45.587  0.00  0.00    -0.200 NA
ATOM      8  N   UNL d   1     -59.040 -98.977 -45.794  0.00  0.00    -0.217 NA
ATOM      9  C   UNL d   1     -58.293 -99.092 -46.095  0.00  0.00     0.201 A 
ENDROOT
BRANCH   2  10
ATOM     10  O   UNL d   1     -57.066 -99.113 -44.261  0.00  0.00    -0.288 OA
BRANCH  10  11
ATOM     11  C   UNL d   1     -56.295 -99.304 -44.564  0.00  0.00     0.119 A 
ATOM     12  C   UNL d   1     -55.906-100.012 -44.396  0.00  0.00     0.104 A 
ATOM     13  N   UNL d   1     -56.285-100.580 -43.898  0.00  0.00    -0.244 NA
ATOM     14  C   UNL d   1     -55.162-100.167 -44.704  0.00  0.00     0.020 A 
ATOM     15  C   UNL d   1     -55.895-101.287 -43.731  0.00  0.00     0.082 A 
ATOM     16  C   UNL d   1     -56.254-101.886 -43.228  0.00  0.00     0.021 C 
ATOM     17  C   UNL d   1     -55.151-101.442 -44.039  0.00  0.00     0.019 A 
ATOM     18  C   UNL d   1     -54.772-100.895 -44.525  0.00  0.00     0.003 A 
ATOM     19  C   UNL d   1     -54.782 -99.619 -45.191  0.00  0.00     0.002 A 
ATOM     20  C   UNL d   1     -55.172 -98.912 -45.358  0.00  0.00     0.002 A 
ATOM     21  C   UNL d   1     -55.916 -98.758 -45.050  0.00  0.00     0.026 A 
ENDBRANCH  10  11
ENDBRANCH   2  10
BRANCH   3  22
ATOM     22  C   UNL d   1     -58.332 -98.864 -42.978  0.00  0.00     0.001 A 
ATOM     23  C   UNL d   1     -57.508 -98.967 -42.978  0.00  0.00     0.002 A 
ATOM     24  C   UNL d   1     -57.092 -98.968 -42.267  0.00  0.00     0.024 A 
ATOM     25  C   UNL d   1     -57.510 -98.864 -41.545  0.00  0.00     0.094 A 
ATOM     26  C   UNL d   1     -58.340 -98.761 -41.554  0.00  0.00     0.024 A 
ATOM     27  C   UNL d   1     -58.755 -98.760 -42.267  0.00  0.00     0.002 A 
BRANCH  25  28
ATOM     28  O   UNL d   1     -57.135 -98.856 -40.782  0.00  0.00    -0.328 OA
ATOM     29  C   UNL d   1     -57.146 -99.541 -40.323  0.00  0.00     0.181 C 
ENDBRANCH  25  28
ENDBRANCH   3  22
TORSDOF 4
ENDMDL
