MODEL 1
REMARK VINA RESULT:      -1.2      0.000      0.000
REMARK  6 active torsions:
REMARK  status: ('A' for Active; 'I' for Inactive)
REMARK    1  A    between atoms: C_8  and  C_1 
REMARK    2  A    between atoms: C_13  and  N_2 
REMARK    3  A    between atoms: C_7  and  C_4 
REMARK    4  A    between atoms: C_6  and  C_8 
REMARK    5  A    between atoms: C_22  and  C_13 
REMARK    6  A    between atoms: N_18  and  C_22 
ROOT
ATOM      1  C   UNL d   1      57.984  -0.765  30.251  0.00  0.00     0.103 A 
ATOM      2  N   UNL d   1      58.735  -1.757  29.757  0.00  0.00    -0.267 N 
ATOM      3  C   UNL d   1      57.553  -1.467  30.321  0.00  0.00     0.256 A 
ATOM      4  C   UNL d   1      58.708  -0.945  29.905  0.00  0.00     0.096 A 
ATOM      5  C   UNL d   1      58.017  -2.080  30.015  0.00  0.00     0.304 A 
ATOM      6  O   UNL d   1      57.800  -2.877  29.975  0.00  0.00    -0.263 OA
ATOM      7  O   UNL d   1      56.798  -1.554  30.635  0.00  0.00    -0.281 OA
ENDROOT
BRANCH   1   8
ATOM      8  C   UNL d   1      57.726  -0.019  30.489  0.00  0.00     0.223 C 
ATOM      9  O   UNL d   1      57.653   0.590  29.931  0.00  0.00    -0.284 OA
BRANCH   8  10
ATOM     10  C   UNL d   1      57.539   0.126  31.282  0.00  0.00     0.139 A 
ATOM     11  O   UNL d   1      58.071   0.351  31.873  0.00  0.00    -0.304 OA
ATOM     12  C   UNL d   1      57.653   0.435  32.572  0.00  0.00     0.100 A 
ATOM     13  C   UNL d   1      57.869   0.641  33.322  0.00  0.00     0.025 A 
ATOM     14  C   UNL d   1      56.860   0.262  32.416  0.00  0.00     0.025 A 
ATOM     15  C   UNL d   1      57.324   0.681  33.925  0.00  0.00     0.002 A 
ATOM     16  C   UNL d   1      56.533   0.509  33.774  0.00  0.00     0.000 A 
ATOM     17  C   UNL d   1      56.311   0.299  33.013  0.00  0.00     0.002 A 
ATOM     18  C   UNL d   1      56.796   0.070  31.613  0.00  0.00     0.030 A 
ENDBRANCH   8  10
ENDBRANCH   1   8
BRANCH   4  19
ATOM     19  C   UNL d   1      59.313  -0.400  29.734  0.00  0.00     0.116 A 
ATOM     20  O   UNL d   1      60.021  -0.242  30.108  0.00  0.00    -0.306 OA
ATOM     21  C   UNL d   1      60.399   0.354  29.697  0.00  0.00     0.100 A 
ATOM     22  C   UNL d   1      61.133   0.677  29.893  0.00  0.00     0.027 C 
ATOM     23  C   UNL d   1      59.921   0.570  29.060  0.00  0.00     0.027 A 
ATOM     24  C   UNL d   1      59.247   0.104  29.083  0.00  0.00     0.028 A 
ENDBRANCH   4  19
BRANCH   2  25
ATOM     25  C   UNL d   1      59.353  -2.169  29.418  0.00  0.00     0.102 C 
BRANCH  25  26
ATOM     26  C   UNL d   1      59.204  -2.844  28.969  0.00  0.00     0.100 C 
BRANCH  26  27
ATOM     27  N   UNL d   1      59.776  -3.435  28.907  0.00  0.00    -0.298 N 
ATOM     28  C   UNL d   1      59.597  -4.144  28.537  0.00  0.00     0.107 A 
ATOM     29  C   UNL d   1      60.164  -4.738  28.472  0.00  0.00     0.142 A 
ATOM     30  O   UNL d   1      60.914  -4.620  28.779  0.00  0.00    -0.300 OA
ATOM     31  C   UNL d   1      61.104  -3.908  29.153  0.00  0.00     0.142 A 
ATOM     32  C   UNL d   1      60.527  -3.315  29.215  0.00  0.00     0.107 A 
ENDBRANCH  26  27
ENDBRANCH  25  26
ENDBRANCH   2  25
TORSDOF 6
ENDMDL
