MODEL 1
REMARK VINA RESULT:      44.3      0.000      0.000
REMARK  7 active torsions:
REMARK  status: ('A' for Active; 'I' for Inactive)
REMARK       I    between atoms: C_3  and  N_1 
REMARK    1  A    between atoms: C_4  and  N_1 
REMARK    2  A    between atoms: C_5  and  N_1 
REMARK    3  A    between atoms: N_2  and  C_7 
REMARK    4  A    between atoms: C_8  and  C_3 
REMARK    5  A    between atoms: C_6  and  C_5 
REMARK    6  A    between atoms: C_9  and  C_6 
REMARK    7  A    between atoms: O_19  and  C_9 
ROOT
ATOM      1  N   UNL d   1      58.110  49.670  51.442  0.00  0.00    -0.258 N 
ATOM      2  C   UNL d   1      58.849  49.673  51.820  0.00  0.00     0.266 C 
ATOM      3  O   UNL d   1      58.927  49.686  52.627  0.00  0.00    -0.267 OA
ENDROOT
BRANCH   1   4
ATOM      4  C   UNL d   1      57.426  49.681  51.918  0.00  0.00     0.150 A 
ATOM      5  N   UNL d   1      56.692  49.689  51.566  0.00  0.00    -0.227 NA
ATOM      6  C   UNL d   1      56.036  49.699  52.041  0.00  0.00     0.101 A 
ATOM      7  C   UNL d   1      56.111  49.701  52.895  0.00  0.00     0.021 A 
ATOM      8  C   UNL d   1      56.839  49.693  53.243  0.00  0.00     0.005 A 
ATOM      9  C   UNL d   1      57.501  49.683  52.773  0.00  0.00     0.037 A 
ENDBRANCH   1   4
BRANCH   1  10
ATOM     10  C   UNL d   1      58.069  49.657  50.618  0.00  0.00     0.090 C 
BRANCH  10  11
ATOM     11  C   UNL d   1      57.299  49.670  50.254  0.00  0.00     0.087 C 
BRANCH  11  12
ATOM     12  C   UNL d   1      57.088  49.092  49.695  0.00  0.00     0.297 C 
ATOM     13  O   UNL d   1      57.167  48.317  49.865  0.00  0.00    -0.259 OA
BRANCH  12  14
ATOM     14  O   UNL d   1      56.797  49.336  48.965  0.00  0.00    -0.296 OA
ATOM     15  C   UNL d   1      56.062  49.704  48.905  0.00  0.00     0.185 C 
ENDBRANCH  12  14
ENDBRANCH  11  12
ENDBRANCH  10  11
ENDBRANCH   1  10
BRANCH   2  16
ATOM     16  C   UNL d   1      59.535  49.663  51.339  0.00  0.00     0.057 A 
ATOM     17  C   UNL d   1      60.263  49.694  51.660  0.00  0.00     0.006 A 
ATOM     18  C   UNL d   1      60.950  49.683  51.183  0.00  0.00     0.024 A 
ATOM     19  C   UNL d   1      60.875  49.641  50.385  0.00  0.00     0.127 A 
ATOM     20  C   UNL d   1      60.112  49.608  50.046  0.00  0.00     0.024 A 
ATOM     21  C   UNL d   1      59.458  49.619  50.519  0.00  0.00     0.006 A 
BRANCH  19  22
ATOM     22  N   UNL d   1      61.558  49.632  49.930  0.00  0.00    -0.114 N 
ATOM     23  O   UNL d   1      62.336  49.565  50.229  0.00  0.00    -0.532 OA
ATOM     24  O   UNL d   1      61.559  49.688  49.107  0.00  0.00    -0.532 OA
ENDBRANCH  19  22
ENDBRANCH   2  16
TORSDOF 7
ENDMDL
MODEL 2
REMARK VINA RESULT:      46.3      1.234      2.402
REMARK  7 active torsions:
REMARK  status: ('A' for Active; 'I' for Inactive)
REMARK       I    between atoms: C_3  and  N_1 
REMARK    1  A    between atoms: C_4  and  N_1 
REMARK    2  A    between atoms: C_5  and  N_1 
REMARK    3  A    between atoms: N_2  and  C_7 
REMARK    4  A    between atoms: C_8  and  C_3 
REMARK    5  A    between atoms: C_6  and  C_5 
REMARK    6  A    between atoms: C_9  and  C_6 
REMARK    7  A    between atoms: O_19  and  C_9 
ROOT
ATOM      1  N   UNL d   1      58.209  49.602  50.504  0.00  0.00    -0.258 N 
ATOM      2  C   UNL d   1      58.929  49.571  50.092  0.00  0.00     0.266 C 
ATOM      3  O   UNL d   1      58.971  49.539  49.283  0.00  0.00    -0.267 OA
ENDROOT
BRANCH   1   4
ATOM      4  C   UNL d   1      57.504  49.602  50.059  0.00  0.00     0.150 A 
ATOM      5  N   UNL d   1      57.540  49.682  49.249  0.00  0.00    -0.227 NA
ATOM      6  C   UNL d   1      56.849  49.680  48.828  0.00  0.00     0.101 A 
ATOM      7  C   UNL d   1      56.093  49.596  49.225  0.00  0.00     0.021 A 
ATOM      8  C   UNL d   1      56.058  49.517  50.028  0.00  0.00     0.005 A 
ATOM      9  C   UNL d   1      56.748  49.518  50.456  0.00  0.00     0.037 A 
ENDBRANCH   1   4
BRANCH   1  10
ATOM     10  C   UNL d   1      58.206  49.633  51.328  0.00  0.00     0.090 C 
BRANCH  10  11
ATOM     11  C   UNL d   1      57.852  48.986  51.753  0.00  0.00     0.087 C 
BRANCH  11  12
ATOM     12  C   UNL d   1      57.115  49.081  52.127  0.00  0.00     0.297 C 
ATOM     13  O   UNL d   1      56.505  48.599  51.947  0.00  0.00    -0.259 OA
BRANCH  12  14
ATOM     14  O   UNL d   1      57.029  49.679  52.685  0.00  0.00    -0.296 OA
ATOM     15  C   UNL d   1      56.613  49.546  53.385  0.00  0.00     0.185 C 
ENDBRANCH  12  14
ENDBRANCH  11  12
ENDBRANCH  10  11
ENDBRANCH   1  10
BRANCH   2  16
ATOM     16  C   UNL d   1      59.637  49.571  50.542  0.00  0.00     0.057 A 
ATOM     17  C   UNL d   1      59.624  49.686  51.329  0.00  0.00     0.006 A 
ATOM     18  C   UNL d   1      60.327  49.687  51.781  0.00  0.00     0.024 A 
ATOM     19  C   UNL d   1      61.031  49.570  51.414  0.00  0.00     0.127 A 
ATOM     20  C   UNL d   1      61.048  49.449  50.587  0.00  0.00     0.024 A 
ATOM     21  C   UNL d   1      60.361  49.450  50.164  0.00  0.00     0.006 A 
BRANCH  19  22
ATOM     22  N   UNL d   1      61.713  49.574  51.871  0.00  0.00    -0.114 N 
ATOM     23  O   UNL d   1      62.495  49.581  51.572  0.00  0.00    -0.532 OA
ATOM     24  O   UNL d   1      61.710  49.571  52.696  0.00  0.00    -0.532 OA
ENDBRANCH  19  22
ENDBRANCH   2  16
TORSDOF 7
ENDMDL
