MODEL 1
REMARK VINA RESULT:      -4.0      0.000      0.000
REMARK  4 active torsions:
REMARK  status: ('A' for Active; 'I' for Inactive)
REMARK    1  A    between atoms: N_2  and  S_1 
REMARK    2  A    between atoms: C_6  and  S_1 
REMARK       I    between atoms: C_3  and  N_5 
REMARK    3  A    between atoms: C_7  and  C_3 
REMARK    4  A    between atoms: C_4  and  C_8 
ROOT
ATOM      1  N   UNL d   1      58.080   0.149  29.819  0.00  0.00    -0.226 N 
ATOM      2  C   UNL d   1      56.977  -0.661  31.868  0.00  0.00     0.288 C 
ATOM      3  N   UNL d   1      57.345  -0.394  31.182  0.00  0.00    -0.267 N 
ATOM      4  C   UNL d   1      57.928   0.668  30.441  0.00  0.00     0.111 A 
ATOM      5  C   UNL d   1      57.860  -0.651  29.883  0.00  0.00     0.111 A 
ATOM      6  C   UNL d   1      57.492  -0.918  30.569  0.00  0.00     0.103 A 
ATOM      7  C   UNL d   1      57.563   0.393  31.116  0.00  0.00     0.103 A 
ATOM      8  O   UNL d   1      56.757  -1.453  31.936  0.00  0.00    -0.264 OA
ENDROOT
BRANCH   1   9
ATOM      9  S   UNL d   1      58.443   0.412  29.143  0.00  0.00     0.271 S 
ATOM     10  O   UNL d   1      58.811   0.679  28.457  0.00  0.00    -0.200 OA
ATOM     11  O   UNL d   1      57.728   0.682  28.859  0.00  0.00    -0.200 OA
BRANCH   9  12
ATOM     12  C   UNL d   1      59.166   0.141  29.426  0.00  0.00     0.104 A 
ATOM     13  C   UNL d   1      59.477  -0.577  29.163  0.00  0.00     0.017 A 
ATOM     14  C   UNL d   1      60.201  -0.848  29.445  0.00  0.00     0.072 A 
ATOM     15  C   UNL d   1      60.621  -0.403  29.994  0.00  0.00     0.004 A 
ATOM     16  C   UNL d   1      60.317   0.319  30.264  0.00  0.00     0.001 A 
ATOM     17  C   UNL d   1      59.586   0.593  29.979  0.00  0.00     0.013 A 
BRANCH  14  18
ATOM     18  C   UNL d   1      60.505  -1.563  29.180  0.00  0.00     0.419 C 
ATOM     19  F   UNL d   1      61.133  -1.703  28.617  0.00  0.00    -0.166 F 
ATOM     20  F   UNL d   1      60.277  -2.364  29.394  0.00  0.00    -0.166 F 
ATOM     21  F   UNL d   1      60.785  -2.216  28.935  0.00  0.00    -0.166 F 
ENDBRANCH  14  18
ENDBRANCH   9  12
ENDBRANCH   1   9
BRANCH   2  22
ATOM     22  C   UNL d   1      56.827  -0.141  32.488  0.00  0.00     0.156 A 
ATOM     23  O   UNL d   1      57.377   0.137  33.041  0.00  0.00    -0.300 OA
ATOM     24  C   UNL d   1      56.993   0.640  33.557  0.00  0.00     0.123 A 
ATOM     25  C   UNL d   1      56.196   0.682  33.331  0.00  0.00     0.029 A 
ATOM     26  C   UNL d   1      56.092   0.197  32.667  0.00  0.00     0.032 A 
ENDBRANCH   2  22
TORSDOF 4
ENDMDL
MODEL 2
REMARK VINA RESULT:      -2.5      2.199      4.162
REMARK  4 active torsions:
REMARK  status: ('A' for Active; 'I' for Inactive)
REMARK    1  A    between atoms: N_2  and  S_1 
REMARK    2  A    between atoms: C_6  and  S_1 
REMARK       I    between atoms: C_3  and  N_5 
REMARK    3  A    between atoms: C_7  and  C_3 
REMARK    4  A    between atoms: C_4  and  C_8 
ROOT
ATOM      1  N   UNL d   1      58.191  -0.074  29.841  0.00  0.00    -0.226 N 
ATOM      2  C   UNL d   1      60.369  -1.200  29.597  0.00  0.00     0.288 C 
ATOM      3  N   UNL d   1      59.643  -0.821  29.679  0.00  0.00    -0.267 N 
ATOM      4  C   UNL d   1      58.225  -0.875  29.649  0.00  0.00     0.111 A 
ATOM      5  C   UNL d   1      58.895   0.356  29.953  0.00  0.00     0.111 A 
ATOM      6  C   UNL d   1      59.621  -0.024  29.870  0.00  0.00     0.103 A 
ATOM      7  C   UNL d   1      58.949  -1.241  29.570  0.00  0.00     0.103 A 
ATOM      8  O   UNL d   1      61.070  -0.779  29.706  0.00  0.00    -0.264 OA
ENDROOT
BRANCH   1   9
ATOM      9  S   UNL d   1      57.476   0.300  29.923  0.00  0.00     0.271 S 
ATOM     10  O   UNL d   1      56.751   0.680  30.005  0.00  0.00    -0.200 OA
ATOM     11  O   UNL d   1      57.433   0.402  29.115  0.00  0.00    -0.200 OA
BRANCH   9  12
ATOM     12  C   UNL d   1      57.516   0.200  30.739  0.00  0.00     0.104 A 
ATOM     13  C   UNL d   1      57.055  -0.372  31.114  0.00  0.00     0.017 A 
ATOM     14  C   UNL d   1      57.095  -0.473  31.929  0.00  0.00     0.072 A 
ATOM     15  C   UNL d   1      57.597  -0.002  32.378  0.00  0.00     0.004 A 
ATOM     16  C   UNL d   1      58.065   0.574  32.011  0.00  0.00     0.001 A 
ATOM     17  C   UNL d   1      58.025   0.676  31.187  0.00  0.00     0.013 A 
BRANCH  14  18
ATOM     18  C   UNL d   1      56.632  -1.044  32.298  0.00  0.00     0.419 C 
ATOM     19  F   UNL d   1      56.282  -1.748  31.962  0.00  0.00    -0.166 F 
ATOM     20  F   UNL d   1      56.375  -1.090  33.116  0.00  0.00    -0.166 F 
ATOM     21  F   UNL d   1      56.209  -1.568  32.631  0.00  0.00    -0.166 F 
ENDBRANCH  14  18
ENDBRANCH   9  12
ENDBRANCH   1   9
BRANCH   2  22
ATOM     22  C   UNL d   1      60.400  -2.001  29.405  0.00  0.00     0.156 A 
ATOM     23  O   UNL d   1      60.169  -2.631  29.890  0.00  0.00    -0.300 OA
ATOM     24  C   UNL d   1      60.292  -3.328  29.482  0.00  0.00     0.123 A 
ATOM     25  C   UNL d   1      60.602  -3.139  28.737  0.00  0.00     0.029 A 
ATOM     26  C   UNL d   1      60.669  -2.315  28.688  0.00  0.00     0.032 A 
ENDBRANCH   2  22
TORSDOF 4
ENDMDL
MODEL 3
REMARK VINA RESULT:      -2.1      2.504      4.495
REMARK  4 active torsions:
REMARK  status: ('A' for Active; 'I' for Inactive)
REMARK    1  A    between atoms: N_2  and  S_1 
REMARK    2  A    between atoms: C_6  and  S_1 
REMARK       I    between atoms: C_3  and  N_5 
REMARK    3  A    between atoms: C_7  and  C_3 
REMARK    4  A    between atoms: C_4  and  C_8 
ROOT
ATOM      1  N   UNL d   1      57.917   0.202  31.778  0.00  0.00    -0.226 N 
ATOM      2  C   UNL d   1      58.122  -0.481  29.419  0.00  0.00     0.288 C 
ATOM      3  N   UNL d   1      58.052  -0.249  30.206  0.00  0.00    -0.267 N 
ATOM      4  C   UNL d   1      58.308  -0.496  31.580  0.00  0.00     0.111 A 
ATOM      5  C   UNL d   1      57.590   0.678  31.178  0.00  0.00     0.111 A 
ATOM      6  C   UNL d   1      57.661   0.446  30.392  0.00  0.00     0.103 A 
ATOM      7  C   UNL d   1      58.372  -0.716  30.798  0.00  0.00     0.103 A 
ATOM      8  O   UNL d   1      57.800  -0.013  28.821  0.00  0.00    -0.264 OA
ENDROOT
BRANCH   1   9
ATOM      9  S   UNL d   1      57.848   0.430  32.553  0.00  0.00     0.271 S 
ATOM     10  O   UNL d   1      57.777   0.662  33.340  0.00  0.00    -0.200 OA
ATOM     11  O   UNL d   1      58.623   0.682  32.553  0.00  0.00    -0.200 OA
BRANCH   9  12
ATOM     12  C   UNL d   1      57.065   0.177  32.557  0.00  0.00     0.104 A 
ATOM     13  C   UNL d   1      56.869  -0.575  32.835  0.00  0.00     0.017 A 
ATOM     14  C   UNL d   1      56.086  -0.828  32.839  0.00  0.00     0.072 A 
ATOM     15  C   UNL d   1      55.491  -0.331  32.566  0.00  0.00     0.004 A 
ATOM     16  C   UNL d   1      55.678   0.426  32.285  0.00  0.00     0.001 A 
ATOM     17  C   UNL d   1      56.468   0.682  32.281  0.00  0.00     0.013 A 
BRANCH  14  18
ATOM     18  C   UNL d   1      55.896  -1.578  33.116  0.00  0.00     0.419 C 
ATOM     19  F   UNL d   1      55.830  -1.850  33.924  0.00  0.00    -0.166 F 
ATOM     20  F   UNL d   1      55.714  -2.291  32.674  0.00  0.00    -0.166 F 
ATOM     21  F   UNL d   1      55.724  -2.263  33.373  0.00  0.00    -0.166 F 
ENDBRANCH  14  18
ENDBRANCH   9  12
ENDBRANCH   1   9
BRANCH   2  22
ATOM     22  C   UNL d   1      58.513  -1.180  29.225  0.00  0.00     0.156 A 
ATOM     23  O   UNL d   1      58.195  -1.943  29.248  0.00  0.00    -0.300 OA
ATOM     24  C   UNL d   1      58.773  -2.470  29.012  0.00  0.00     0.123 A 
ATOM     25  C   UNL d   1      59.460  -2.039  28.839  0.00  0.00     0.029 A 
ATOM     26  C   UNL d   1      59.299  -1.238  28.972  0.00  0.00     0.032 A 
ENDBRANCH   2  22
TORSDOF 4
ENDMDL
