MODEL 1
REMARK VINA RESULT:      71.9      0.000      0.000
REMARK  6 active torsions:
REMARK  status: ('A' for Active; 'I' for Inactive)
REMARK    1  A    between atoms: C_7  and  C_1 
REMARK    2  A    between atoms: N_5  and  C_3 
REMARK       I    between atoms: C_9  and  N_5 
REMARK    3  A    between atoms: C_8  and  S_11 
REMARK    4  A    between atoms: C_13  and  C_9 
REMARK    5  A    between atoms: S_11  and  C_13 
REMARK    6  A    between atoms: O_17  and  C_14 
ROOT
ATOM      1  C   UNL d   1      61.633  46.080  49.952  0.00  0.00     0.137 A 
ATOM      2  S   UNL d   1      61.065  46.454  50.430  0.00  0.00    -0.026 SA
ATOM      3  C   UNL d   1      61.156  47.272  50.351  0.00  0.00     0.219 A 
ATOM      4  N   UNL d   1      62.078  46.676  49.577  0.00  0.00    -0.139 NA
ATOM      5  N   UNL d   1      61.784  47.411  49.823  0.00  0.00    -0.121 NA
ENDROOT
BRANCH   3   6
ATOM      6  N   UNL d   1      60.707  47.853  50.728  0.00  0.00    -0.181 NA
ATOM      7  C   UNL d   1      60.932  48.651  50.691  0.00  0.00     0.287 C 
ATOM      8  O   UNL d   1      61.613  48.862  50.271  0.00  0.00    -0.265 OA
BRANCH   7   9
ATOM      9  C   UNL d   1      60.477  49.229  51.071  0.00  0.00     0.089 C 
ATOM     10  C   UNL d   1      60.534  49.326  51.889  0.00  0.00     0.012 C 
BRANCH   9  11
ATOM     11  S   UNL d   1      59.965  49.707  50.622  0.00  0.00    -0.057 SA
BRANCH  11  12
ATOM     12  C   UNL d   1      59.157  49.706  50.798  0.00  0.00     0.141 A 
ATOM     13  N   UNL d   1      58.525  49.703  50.255  0.00  0.00    -0.230 NA
ATOM     14  C   UNL d   1      57.814  49.703  50.681  0.00  0.00     0.107 A 
ATOM     15  C   UNL d   1      57.998  49.705  51.494  0.00  0.00     0.058 A 
ATOM     16  S   UNL d   1      58.828  49.707  51.567  0.00  0.00    -0.059 SA
ENDBRANCH  11  12
ENDBRANCH   9  11
ENDBRANCH   7   9
ENDBRANCH   3   6
BRANCH   1  17
ATOM     17  C   UNL d   1      61.744  45.263  49.861  0.00  0.00     0.048 A 
ATOM     18  C   UNL d   1      61.355  44.735  50.341  0.00  0.00     0.096 A 
ATOM     19  C   UNL d   1      61.466  43.935  50.248  0.00  0.00     0.024 A 
ATOM     20  C   UNL d   1      61.976  43.680  49.662  0.00  0.00     0.002 A 
ATOM     21  C   UNL d   1      62.364  44.187  49.185  0.00  0.00     0.000 A 
ATOM     22  C   UNL d   1      62.252  44.992  49.277  0.00  0.00     0.004 A 
BRANCH  18  23
ATOM     23  O   UNL d   1      60.851  44.997  50.919  0.00  0.00    -0.328 OA
ATOM     24  C   UNL d   1      60.841  44.463  51.690  0.00  0.00     0.181 C 
ENDBRANCH  18  23
ENDBRANCH   1  17
TORSDOF 6
ENDMDL
MODEL 2
REMARK VINA RESULT:      74.7      1.151      1.437
REMARK  6 active torsions:
REMARK  status: ('A' for Active; 'I' for Inactive)
REMARK    1  A    between atoms: C_7  and  C_1 
REMARK    2  A    between atoms: N_5  and  C_3 
REMARK       I    between atoms: C_9  and  N_5 
REMARK    3  A    between atoms: C_8  and  S_11 
REMARK    4  A    between atoms: C_13  and  C_9 
REMARK    5  A    between atoms: S_11  and  C_13 
REMARK    6  A    between atoms: O_17  and  C_14 
ROOT
ATOM      1  C   UNL d   1      61.200  46.882  50.281  0.00  0.00     0.137 A 
ATOM      2  S   UNL d   1      60.545  47.390  50.238  0.00  0.00    -0.026 SA
ATOM      3  C   UNL d   1      60.735  48.094  50.630  0.00  0.00     0.219 A 
ATOM      4  N   UNL d   1      61.799  47.277  50.703  0.00  0.00    -0.139 NA
ATOM      5  N   UNL d   1      61.512  48.025  50.919  0.00  0.00    -0.121 NA
ENDROOT
BRANCH   3   6
ATOM      6  N   UNL d   1      60.245  48.751  50.722  0.00  0.00    -0.181 NA
ATOM      7  C   UNL d   1      59.425  48.685  50.612  0.00  0.00     0.287 C 
ATOM      8  O   UNL d   1      59.100  47.952  50.410  0.00  0.00    -0.265 OA
BRANCH   7   9
ATOM      9  C   UNL d   1      58.938  49.349  50.706  0.00  0.00     0.089 C 
ATOM     10  C   UNL d   1      58.851  49.693  51.451  0.00  0.00     0.012 C 
BRANCH   9  11
ATOM     11  S   UNL d   1      58.542  49.662  50.044  0.00  0.00    -0.057 SA
BRANCH  11  12
ATOM     12  C   UNL d   1      57.721  49.585  49.995  0.00  0.00     0.141 A 
ATOM     13  N   UNL d   1      57.269  49.451  49.308  0.00  0.00    -0.230 NA
ATOM     14  C   UNL d   1      56.470  49.412  49.523  0.00  0.00     0.107 A 
ATOM     15  C   UNL d   1      56.417  49.521  50.347  0.00  0.00     0.058 A 
ATOM     16  S   UNL d   1      57.190  49.628  50.640  0.00  0.00    -0.059 SA
ENDBRANCH  11  12
ENDBRANCH   9  11
ENDBRANCH   7   9
ENDBRANCH   3   6
BRANCH   1  17
ATOM     17  C   UNL d   1      61.256  46.118  49.962  0.00  0.00     0.048 A 
ATOM     18  C   UNL d   1      61.271  45.466  50.447  0.00  0.00     0.096 A 
ATOM     19  C   UNL d   1      61.326  44.718  50.131  0.00  0.00     0.024 A 
ATOM     20  C   UNL d   1      61.364  44.644  49.318  0.00  0.00     0.002 A 
ATOM     21  C   UNL d   1      61.350  45.274  48.831  0.00  0.00     0.000 A 
ATOM     22  C   UNL d   1      61.295  46.027  49.148  0.00  0.00     0.004 A 
BRANCH  18  23
ATOM     23  O   UNL d   1      61.233  45.550  51.252  0.00  0.00    -0.328 OA
ATOM     24  C   UNL d   1      61.290  44.742  51.725  0.00  0.00     0.181 C 
ENDBRANCH  18  23
ENDBRANCH   1  17
TORSDOF 6
ENDMDL
