MODEL 1
REMARK VINA RESULT:      -4.8      0.000      0.000
REMARK  3 active torsions:
REMARK  status: ('A' for Active; 'I' for Inactive)
REMARK    1  A    between atoms: S_6  and  C_2 
REMARK    2  A    between atoms: C_9  and  S_6 
REMARK    3  A    between atoms: C_7  and  C_9 
ROOT
ATOM      1  N   UNL d   1     -41.199-123.626 -54.116  0.00  0.00    -0.243 NA
ATOM      2  C   UNL d   1     -41.458-122.691 -53.209  0.00  0.00     0.046 A 
ATOM      3  C   UNL d   1     -41.744-122.431 -53.937  0.00  0.00     0.025 A 
ATOM      4  C   UNL d   1     -41.123-123.427 -53.319  0.00  0.00     0.105 A 
ATOM      5  C   UNL d   1     -41.585-123.011 -54.502  0.00  0.00     0.082 A 
ATOM      6  C   UNL d   1     -42.131-121.740 -54.158  0.00  0.00     0.002 A 
ATOM      7  C   UNL d   1     -41.813-122.898 -55.293  0.00  0.00     0.019 A 
ATOM      8  C   UNL d   1     -42.366-121.616 -54.957  0.00  0.00     0.000 A 
ATOM      9  C   UNL d   1     -42.205-122.195 -55.514  0.00  0.00     0.002 A 
ENDROOT
BRANCH   2  10
ATOM     10  S   UNL d   1     -41.497-122.287 -52.484  0.00  0.00    -0.101 SA
BRANCH  10  11
ATOM     11  C   UNL d   1     -41.370-122.693 -51.772  0.00  0.00     0.160 C 
BRANCH  11  12
ATOM     12  C   UNL d   1     -41.562-122.345 -51.048  0.00  0.00     0.197 C 
ATOM     13  O   UNL d   1     -41.123-121.689 -50.779  0.00  0.00    -0.647 OA
ATOM     14  O   UNL d   1     -42.180-122.633 -50.586  0.00  0.00    -0.647 OA
ENDBRANCH  11  12
ENDBRANCH  10  11
ENDBRANCH   2  10
TORSDOF 3
ENDMDL
MODEL 2
REMARK VINA RESULT:      -4.2      2.039      3.685
REMARK  3 active torsions:
REMARK  status: ('A' for Active; 'I' for Inactive)
REMARK    1  A    between atoms: S_6  and  C_2 
REMARK    2  A    between atoms: C_9  and  S_6 
REMARK    3  A    between atoms: C_7  and  C_9 
ROOT
ATOM      1  N   UNL d   1     -41.131-121.526 -51.350  0.00  0.00    -0.243 NA
ATOM      2  C   UNL d   1     -41.175-122.507 -52.243  0.00  0.00     0.046 A 
ATOM      3  C   UNL d   1     -41.217-122.841 -51.490  0.00  0.00     0.025 A 
ATOM      4  C   UNL d   1     -41.123-121.698 -52.156  0.00  0.00     0.105 A 
ATOM      5  C   UNL d   1     -41.189-122.232 -50.934  0.00  0.00     0.082 A 
ATOM      6  C   UNL d   1     -41.276-123.622 -51.239  0.00  0.00     0.002 A 
ATOM      7  C   UNL d   1     -41.221-122.407 -50.122  0.00  0.00     0.019 A 
ATOM      8  C   UNL d   1     -41.309-123.808 -50.419  0.00  0.00     0.000 A 
ATOM      9  C   UNL d   1     -41.281-123.200 -49.871  0.00  0.00     0.002 A 
ENDROOT
BRANCH   2  10
ATOM     10  S   UNL d   1     -41.185-122.911 -52.969  0.00  0.00    -0.101 SA
BRANCH  10  11
ATOM     11  C   UNL d   1     -41.323-122.499 -53.675  0.00  0.00     0.160 C 
BRANCH  11  12
ATOM     12  C   UNL d   1     -41.276-122.883 -54.405  0.00  0.00     0.197 C 
ATOM     13  O   UNL d   1     -41.274-122.431 -55.106  0.00  0.00    -0.647 OA
ATOM     14  O   UNL d   1     -41.231-123.704 -54.454  0.00  0.00    -0.647 OA
ENDBRANCH  11  12
ENDBRANCH  10  11
ENDBRANCH   2  10
TORSDOF 3
ENDMDL
MODEL 3
REMARK VINA RESULT:      -4.1      1.145      1.644
REMARK  3 active torsions:
REMARK  status: ('A' for Active; 'I' for Inactive)
REMARK    1  A    between atoms: S_6  and  C_2 
REMARK    2  A    between atoms: C_9  and  S_6 
REMARK    3  A    between atoms: C_7  and  C_9 
ROOT
ATOM      1  N   UNL d   1     -41.259-121.593 -53.134  0.00  0.00    -0.243 NA
ATOM      2  C   UNL d   1     -41.333-122.620 -52.297  0.00  0.00     0.046 A 
ATOM      3  C   UNL d   1     -41.372-122.912 -53.067  0.00  0.00     0.025 A 
ATOM      4  C   UNL d   1     -41.263-121.809 -52.339  0.00  0.00     0.105 A 
ATOM      5  C   UNL d   1     -41.327-122.275 -53.589  0.00  0.00     0.082 A 
ATOM      6  C   UNL d   1     -41.445-123.677 -53.361  0.00  0.00     0.002 A 
ATOM      7  C   UNL d   1     -41.353-122.404 -54.410  0.00  0.00     0.019 A 
ATOM      8  C   UNL d   1     -41.472-123.818 -54.190  0.00  0.00     0.000 A 
ATOM      9  C   UNL d   1     -41.427-123.181 -54.704  0.00  0.00     0.002 A 
ENDROOT
BRANCH   2  10
ATOM     10  S   UNL d   1     -41.358-123.063 -51.594  0.00  0.00    -0.101 SA
BRANCH  10  11
ATOM     11  C   UNL d   1     -41.532-122.692 -50.873  0.00  0.00     0.160 C 
BRANCH  11  12
ATOM     12  C   UNL d   1     -41.714-123.138 -50.202  0.00  0.00     0.197 C 
ATOM     13  O   UNL d   1     -42.513-123.249 -49.989  0.00  0.00    -0.647 OA
ATOM     14  O   UNL d   1     -41.123-123.475 -49.738  0.00  0.00    -0.647 OA
ENDBRANCH  11  12
ENDBRANCH  10  11
ENDBRANCH   2  10
TORSDOF 3
ENDMDL
MODEL 4
REMARK VINA RESULT:      -3.8      2.505      4.677
REMARK  3 active torsions:
REMARK  status: ('A' for Active; 'I' for Inactive)
REMARK    1  A    between atoms: S_6  and  C_2 
REMARK    2  A    between atoms: C_9  and  S_6 
REMARK    3  A    between atoms: C_7  and  C_9 
ROOT
ATOM      1  N   UNL d   1     -43.132-122.677 -49.357  0.00  0.00    -0.243 NA
ATOM      2  C   UNL d   1     -42.087-122.776 -50.170  0.00  0.00     0.046 A 
ATOM      3  C   UNL d   1     -41.879-123.103 -49.442  0.00  0.00     0.025 A 
ATOM      4  C   UNL d   1     -42.857-122.514 -50.117  0.00  0.00     0.105 A 
ATOM      5  C   UNL d   1     -42.528-123.043 -48.935  0.00  0.00     0.082 A 
ATOM      6  C   UNL d   1     -41.183-123.449 -49.174  0.00  0.00     0.002 A 
ATOM      7  C   UNL d   1     -42.479-123.330 -48.157  0.00  0.00     0.019 A 
ATOM      8  C   UNL d   1     -41.123-123.743 -48.387  0.00  0.00     0.000 A 
ATOM      9  C   UNL d   1     -41.770-123.680 -47.889  0.00  0.00     0.002 A 
ENDROOT
BRANCH   2  10
ATOM     10  S   UNL d   1     -41.606-122.718 -50.845  0.00  0.00    -0.101 SA
BRANCH  10  11
ATOM     11  C   UNL d   1     -41.857-122.275 -51.499  0.00  0.00     0.160 C 
BRANCH  11  12
ATOM     12  C   UNL d   1     -41.422-122.274 -52.201  0.00  0.00     0.197 C 
ATOM     13  O   UNL d   1     -41.124-121.554 -52.498  0.00  0.00    -0.647 OA
ATOM     14  O   UNL d   1     -41.276-122.972 -52.615  0.00  0.00    -0.647 OA
ENDBRANCH  11  12
ENDBRANCH  10  11
ENDBRANCH   2  10
TORSDOF 3
ENDMDL
