MODEL 1
REMARK VINA RESULT:      85.9      0.000      0.000
REMARK  5 active torsions:
REMARK  status: ('A' for Active; 'I' for Inactive)
REMARK    1  A    between atoms: N_2  and  S_1 
REMARK    2  A    between atoms: C_6  and  S_1 
REMARK       I    between atoms: C_3  and  N_4 
REMARK    3  A    between atoms: C_5  and  C_3 
REMARK    4  A    between atoms: O_22  and  C_12 
REMARK    5  A    between atoms: O_26  and  C_16 
ROOT
ATOM      1  N   UNL d   1     -47.960  29.219  35.454  0.00  0.00    -0.226 N 
ATOM      2  C   UNL d   1     -48.641  27.519  33.783  0.00  0.00     0.265 C 
ATOM      3  N   UNL d   1     -48.413  28.084  34.338  0.00  0.00    -0.269 N 
ATOM      4  C   UNL d   1     -47.406  28.827  34.996  0.00  0.00     0.111 A 
ATOM      5  C   UNL d   1     -48.763  29.036  35.348  0.00  0.00     0.111 A 
ATOM      6  C   UNL d   1     -48.971  28.470  34.790  0.00  0.00     0.103 A 
ATOM      7  C   UNL d   1     -47.609  28.268  34.444  0.00  0.00     0.103 A 
ATOM      8  O   UNL d   1     -48.066  27.141  33.337  0.00  0.00    -0.267 OA
ENDROOT
BRANCH   2   9
ATOM      9  C   UNL d   1     -49.422  27.340  33.680  0.00  0.00     0.059 A 
ATOM     10  C   UNL d   1     -49.701  26.583  33.847  0.00  0.00     0.031 A 
ATOM     11  C   UNL d   1     -50.477  26.406  33.745  0.00  0.00     0.116 A 
ATOM     12  C   UNL d   1     -51.002  26.979  33.473  0.00  0.00     0.116 A 
ATOM     13  C   UNL d   1     -50.723  27.737  33.306  0.00  0.00     0.026 A 
ATOM     14  C   UNL d   1     -49.948  27.914  33.408  0.00  0.00     0.007 A 
BRANCH  11  15
ATOM     15  O   UNL d   1     -50.727  25.625  33.924  0.00  0.00    -0.326 OA
ATOM     16  C   UNL d   1     -50.820  25.062  33.307  0.00  0.00     0.181 C 
ENDBRANCH  11  15
BRANCH  12  17
ATOM     17  O   UNL d   1     -51.806  26.801  33.366  0.00  0.00    -0.326 OA
ATOM     18  C   UNL d   1     -52.280  27.411  33.634  0.00  0.00     0.181 C 
ENDBRANCH  12  17
ENDBRANCH   2   9
BRANCH   1  19
ATOM     19  S   UNL d   1     -47.733  29.782  36.007  0.00  0.00     0.271 S 
ATOM     20  O   UNL d   1     -47.714  29.205  36.606  0.00  0.00    -0.200 OA
ATOM     21  O   UNL d   1     -47.503  30.363  36.558  0.00  0.00    -0.200 OA
BRANCH  19  22
ATOM     22  C   UNL d   1     -47.747  30.364  35.421  0.00  0.00     0.104 A 
ATOM     23  C   UNL d   1     -48.463  30.691  35.161  0.00  0.00     0.014 A 
ATOM     24  C   UNL d   1     -48.494  31.266  34.583  0.00  0.00     0.012 A 
ATOM     25  C   UNL d   1     -47.788  31.535  34.244  0.00  0.00     0.058 A 
ATOM     26  C   UNL d   1     -47.064  31.222  34.488  0.00  0.00     0.012 A 
ATOM     27 CL   UNL d   1     -47.802  32.116  33.658  0.00  0.00    -0.082 Cl
ATOM     28  C   UNL d   1     -47.042  30.632  35.082  0.00  0.00     0.014 A 
ENDBRANCH  19  22
ENDBRANCH   1  19
TORSDOF 5
ENDMDL
MODEL 2
REMARK VINA RESULT:      86.3      2.063      5.011
REMARK  5 active torsions:
REMARK  status: ('A' for Active; 'I' for Inactive)
REMARK    1  A    between atoms: N_2  and  S_1 
REMARK    2  A    between atoms: C_6  and  S_1 
REMARK       I    between atoms: C_3  and  N_4 
REMARK    3  A    between atoms: C_5  and  C_3 
REMARK    4  A    between atoms: O_22  and  C_12 
REMARK    5  A    between atoms: O_26  and  C_16 
ROOT
ATOM      1  N   UNL d   1     -50.420  27.371  33.923  0.00  0.00    -0.226 N 
ATOM      2  C   UNL d   1     -48.295  28.254  34.846  0.00  0.00     0.265 C 
ATOM      3  N   UNL d   1     -49.002  27.959  34.539  0.00  0.00    -0.269 N 
ATOM      4  C   UNL d   1     -49.838  26.870  34.202  0.00  0.00     0.111 A 
ATOM      5  C   UNL d   1     -50.286  28.191  33.953  0.00  0.00     0.111 A 
ATOM      6  C   UNL d   1     -49.577  28.466  34.262  0.00  0.00     0.103 A 
ATOM      7  C   UNL d   1     -49.135  27.139  34.508  0.00  0.00     0.103 A 
ATOM      8  O   UNL d   1     -47.728  27.729  35.120  0.00  0.00    -0.267 OA
ENDROOT
BRANCH   2   9
ATOM      9  C   UNL d   1     -48.165  29.050  34.876  0.00  0.00     0.059 A 
ATOM     10  C   UNL d   1     -47.740  29.379  35.500  0.00  0.00     0.031 A 
ATOM     11  C   UNL d   1     -47.611  30.170  35.530  0.00  0.00     0.116 A 
ATOM     12  C   UNL d   1     -47.902  30.662  34.937  0.00  0.00     0.116 A 
ATOM     13  C   UNL d   1     -48.327  30.333  34.311  0.00  0.00     0.026 A 
ATOM     14  C   UNL d   1     -48.456  29.542  34.282  0.00  0.00     0.007 A 
BRANCH  11  15
ATOM     15  O   UNL d   1     -47.174  30.472  36.181  0.00  0.00    -0.326 OA
ATOM     16  C   UNL d   1     -46.504  30.052  36.467  0.00  0.00     0.181 C 
ENDBRANCH  11  15
BRANCH  12  17
ATOM     17  O   UNL d   1     -47.771  31.481  34.963  0.00  0.00    -0.326 OA
ATOM     18  C   UNL d   1     -47.879  31.819  34.226  0.00  0.00     0.181 C 
ENDBRANCH  12  17
ENDBRANCH   2   9
BRANCH   1  19
ATOM     19  S   UNL d   1     -51.124  27.078  33.617  0.00  0.00     0.271 S 
ATOM     20  O   UNL d   1     -51.483  27.825  33.690  0.00  0.00    -0.200 OA
ATOM     21  O   UNL d   1     -51.831  26.767  33.306  0.00  0.00    -0.200 OA
BRANCH  19  22
ATOM     22  C   UNL d   1     -50.779  26.332  33.540  0.00  0.00     0.104 A 
ATOM     23  C   UNL d   1     -49.958  26.232  33.592  0.00  0.00     0.014 A 
ATOM     24  C   UNL d   1     -49.603  25.501  33.517  0.00  0.00     0.012 A 
ATOM     25  C   UNL d   1     -50.076  24.834  33.385  0.00  0.00     0.058 A 
ATOM     26  C   UNL d   1     -50.896  24.911  33.330  0.00  0.00     0.012 A 
ATOM     27 CL   UNL d   1     -49.732  24.088  33.308  0.00  0.00    -0.082 Cl
ATOM     28  C   UNL d   1     -51.252  25.665  33.408  0.00  0.00     0.014 A 
ENDBRANCH  19  22
ENDBRANCH   1  19
TORSDOF 5
ENDMDL
MODEL 3
REMARK VINA RESULT:      88.5      3.807      4.978
REMARK  5 active torsions:
REMARK  status: ('A' for Active; 'I' for Inactive)
REMARK    1  A    between atoms: N_2  and  S_1 
REMARK    2  A    between atoms: C_6  and  S_1 
REMARK       I    between atoms: C_3  and  N_4 
REMARK    3  A    between atoms: C_5  and  C_3 
REMARK    4  A    between atoms: O_22  and  C_12 
REMARK    5  A    between atoms: O_26  and  C_16 
ROOT
ATOM      1  N   UNL d   1     -51.052  26.809  36.843  0.00  0.00    -0.226 N 
ATOM      2  C   UNL d   1     -51.026  26.220  34.435  0.00  0.00     0.265 C 
ATOM      3  N   UNL d   1     -51.033  26.417  35.236  0.00  0.00    -0.269 N 
ATOM      4  C   UNL d   1     -50.567  27.202  36.314  0.00  0.00     0.111 A 
ATOM      5  C   UNL d   1     -51.541  26.202  36.556  0.00  0.00     0.111 A 
ATOM      6  C   UNL d   1     -51.520  26.020  35.755  0.00  0.00     0.103 A 
ATOM      7  C   UNL d   1     -50.544  27.024  35.523  0.00  0.00     0.103 A 
ATOM      8  O   UNL d   1     -50.530  26.630  33.926  0.00  0.00    -0.267 OA
ENDROOT
BRANCH   2   9
ATOM      9  C   UNL d   1     -51.501  25.629  34.156  0.00  0.00     0.059 A 
ATOM     10  C   UNL d   1     -51.173  24.931  33.869  0.00  0.00     0.031 A 
ATOM     11  C   UNL d   1     -51.645  24.345  33.592  0.00  0.00     0.116 A 
ATOM     12  C   UNL d   1     -52.464  24.435  33.591  0.00  0.00     0.116 A 
ATOM     13  C   UNL d   1     -52.793  25.135  33.879  0.00  0.00     0.026 A 
ATOM     14  C   UNL d   1     -52.321  25.721  34.156  0.00  0.00     0.007 A 
BRANCH  11  15
ATOM     15  O   UNL d   1     -51.276  23.646  33.307  0.00  0.00    -0.326 OA
ATOM     16  C   UNL d   1     -50.715  23.243  33.785  0.00  0.00     0.181 C 
ENDBRANCH  11  15
BRANCH  12  17
ATOM     17  O   UNL d   1     -52.957  23.832  33.306  0.00  0.00    -0.326 OA
ATOM     18  C   UNL d   1     -53.692  23.861  33.663  0.00  0.00     0.181 C 
ENDBRANCH  12  17
ENDBRANCH   2   9
BRANCH   1  19
ATOM     19  S   UNL d   1     -51.060  27.005  37.640  0.00  0.00     0.271 S 
ATOM     20  O   UNL d   1     -50.523  27.627  37.506  0.00  0.00    -0.200 OA
ATOM     21  O   UNL d   1     -51.077  27.194  38.451  0.00  0.00    -0.200 OA
BRANCH  19  22
ATOM     22  C   UNL d   1     -51.592  26.391  37.786  0.00  0.00     0.104 A 
ATOM     23  C   UNL d   1     -51.331  25.658  38.071  0.00  0.00     0.014 A 
ATOM     24  C   UNL d   1     -51.845  25.042  38.220  0.00  0.00     0.012 A 
ATOM     25  C   UNL d   1     -52.654  25.150  38.083  0.00  0.00     0.058 A 
ATOM     26  C   UNL d   1     -52.936  25.872  37.800  0.00  0.00     0.012 A 
ATOM     27 CL   UNL d   1     -53.187  24.536  38.229  0.00  0.00    -0.082 Cl
ATOM     28  C   UNL d   1     -52.401  26.499  37.650  0.00  0.00     0.014 A 
ENDBRANCH  19  22
ENDBRANCH   1  19
TORSDOF 5
ENDMDL
