MODEL 1
REMARK VINA RESULT:      -9.9      0.000      0.000
REMARK  5 active torsions:
REMARK  status: ('A' for Active; 'I' for Inactive)
REMARK    1  A    between atoms: C_8  and  C_1 
REMARK    2  A    between atoms: C_11  and  C_3 
REMARK    3  A    between atoms: C_7  and  C_4 
REMARK    4  A    between atoms: O_16  and  C_8 
REMARK    5  A    between atoms: C_19  and  O_16 
ROOT
ATOM      1  C   UNL d   1      53.090  31.999  53.347  0.00  0.00     0.102 A 
ATOM      2  C   UNL d   1      52.468  31.792  52.839  0.00  0.00     0.201 A 
ATOM      3  C   UNL d   1      53.134  32.755  53.675  0.00  0.00     0.008 A 
ATOM      4  C   UNL d   1      51.943  33.118  53.001  0.00  0.00     0.009 A 
ATOM      5  C   UNL d   1      51.899  32.362  52.672  0.00  0.00     0.043 A 
ATOM      6  C   UNL d   1      52.557  33.311  53.498  0.00  0.00     0.001 A 
ATOM      7  O   UNL d   1      52.424  31.044  52.513  0.00  0.00    -0.286 OA
ENDROOT
BRANCH   3   8
ATOM      8  C   UNL d   1      53.756  32.946  54.177  0.00  0.00     0.000 A 
ATOM      9  C   UNL d   1      53.649  32.867  54.992  0.00  0.00     0.000 A 
ATOM     10  C   UNL d   1      54.278  33.061  55.491  0.00  0.00     0.000 A 
ATOM     11  C   UNL d   1      54.983  33.321  55.201  0.00  0.00     0.000 A 
ATOM     12  C   UNL d   1      55.079  33.397  54.372  0.00  0.00     0.000 A 
ATOM     13  C   UNL d   1      54.459  33.207  53.865  0.00  0.00     0.000 A 
ENDBRANCH   3   8
BRANCH   1  14
ATOM     14  C   UNL d   1      53.674  31.436  53.526  0.00  0.00     0.303 C 
ATOM     15  O   UNL d   1      54.422  31.493  53.182  0.00  0.00    -0.259 OA
BRANCH  14  16
ATOM     16  O   UNL d   1      53.510  30.817  54.049  0.00  0.00    -0.271 OA
BRANCH  16  17
ATOM     17  C   UNL d   1      53.807  30.064  53.901  0.00  0.00     0.126 C 
ATOM     18  C   UNL d   1      53.595  29.436  54.390  0.00  0.00     0.029 C 
ENDBRANCH  16  17
ENDBRANCH  14  16
ENDBRANCH   1  14
BRANCH   4  19
ATOM     19  C   UNL d   1      51.358  33.676  52.820  0.00  0.00     0.030 A 
ATOM     20  S   UNL d   1      50.680  33.832  53.254  0.00  0.00    -0.086 SA
ATOM     21  C   UNL d   1      50.271  34.414  52.876  0.00  0.00     0.035 A 
ATOM     22  C   UNL d   1      50.684  34.638  52.194  0.00  0.00     0.007 A 
ATOM     23  C   UNL d   1      51.367  34.177  52.155  0.00  0.00     0.007 A 
ENDBRANCH   4  19
TORSDOF 5
ENDMDL
MODEL 2
REMARK VINA RESULT:      -9.8      1.517      3.337
REMARK  5 active torsions:
REMARK  status: ('A' for Active; 'I' for Inactive)
REMARK    1  A    between atoms: C_8  and  C_1 
REMARK    2  A    between atoms: C_11  and  C_3 
REMARK    3  A    between atoms: C_7  and  C_4 
REMARK    4  A    between atoms: O_16  and  C_8 
REMARK    5  A    between atoms: C_19  and  O_16 
ROOT
ATOM      1  C   UNL d   1      53.176  32.443  53.355  0.00  0.00     0.102 A 
ATOM      2  C   UNL d   1      52.689  31.908  52.950  0.00  0.00     0.201 A 
ATOM      3  C   UNL d   1      53.692  32.183  53.944  0.00  0.00     0.008 A 
ATOM      4  C   UNL d   1      53.250  30.853  53.743  0.00  0.00     0.009 A 
ATOM      5  C   UNL d   1      52.735  31.113  53.154  0.00  0.00     0.043 A 
ATOM      6  C   UNL d   1      53.725  31.385  54.135  0.00  0.00     0.001 A 
ATOM      7  O   UNL d   1      52.179  32.166  52.366  0.00  0.00    -0.286 OA
ENDROOT
BRANCH   3   8
ATOM      8  C   UNL d   1      54.169  32.724  54.337  0.00  0.00     0.000 A 
ATOM      9  C   UNL d   1      53.935  32.996  55.080  0.00  0.00     0.000 A 
ATOM     10  C   UNL d   1      54.420  33.540  55.470  0.00  0.00     0.000 A 
ATOM     11  C   UNL d   1      55.106  33.806  55.142  0.00  0.00     0.000 A 
ATOM     12  C   UNL d   1      55.333  33.522  54.386  0.00  0.00     0.000 A 
ATOM     13  C   UNL d   1      54.858  32.980  53.989  0.00  0.00     0.000 A 
ENDBRANCH   3   8
BRANCH   1  14
ATOM     14  C   UNL d   1      53.143  33.251  53.162  0.00  0.00     0.303 C 
ATOM     15  O   UNL d   1      53.723  33.585  52.679  0.00  0.00    -0.259 OA
BRANCH  14  16
ATOM     16  O   UNL d   1      52.530  33.724  53.453  0.00  0.00    -0.271 OA
BRANCH  16  17
ATOM     17  C   UNL d   1      52.280  34.381  53.025  0.00  0.00     0.126 C 
ATOM     18  C   UNL d   1      51.702  34.878  53.339  0.00  0.00     0.029 C 
ENDBRANCH  16  17
ENDBRANCH  14  16
ENDBRANCH   1  14
BRANCH   4  19
ATOM     19  C   UNL d   1      53.280  30.047  53.932  0.00  0.00     0.030 A 
ATOM     20  S   UNL d   1      53.367  29.424  53.405  0.00  0.00    -0.086 SA
ATOM     21  C   UNL d   1      53.367  28.738  53.829  0.00  0.00     0.035 A 
ATOM     22  C   UNL d   1      53.281  28.915  54.633  0.00  0.00     0.007 A 
ATOM     23  C   UNL d   1      53.226  29.735  54.703  0.00  0.00     0.007 A 
ENDBRANCH   4  19
TORSDOF 5
ENDMDL
MODEL 3
REMARK VINA RESULT:      -9.7      1.781      3.861
REMARK  5 active torsions:
REMARK  status: ('A' for Active; 'I' for Inactive)
REMARK    1  A    between atoms: C_8  and  C_1 
REMARK    2  A    between atoms: C_11  and  C_3 
REMARK    3  A    between atoms: C_7  and  C_4 
REMARK    4  A    between atoms: O_16  and  C_8 
REMARK    5  A    between atoms: C_19  and  O_16 
ROOT
ATOM      1  C   UNL d   1      53.048  33.484  53.476  0.00  0.00     0.102 A 
ATOM      2  C   UNL d   1      53.727  33.088  53.740  0.00  0.00     0.201 A 
ATOM      3  C   UNL d   1      52.402  33.064  53.180  0.00  0.00     0.008 A 
ATOM      4  C   UNL d   1      53.092  31.847  53.401  0.00  0.00     0.009 A 
ATOM      5  C   UNL d   1      53.737  32.267  53.697  0.00  0.00     0.043 A 
ATOM      6  C   UNL d   1      52.429  32.245  53.145  0.00  0.00     0.001 A 
ATOM      7  O   UNL d   1      54.367  33.504  54.033  0.00  0.00    -0.286 OA
ENDROOT
BRANCH   3   8
ATOM      8  C   UNL d   1      51.736  33.470  52.923  0.00  0.00     0.000 A 
ATOM      9  C   UNL d   1      51.076  33.508  53.417  0.00  0.00     0.000 A 
ATOM     10  C   UNL d   1      50.409  33.917  53.152  0.00  0.00     0.000 A 
ATOM     11  C   UNL d   1      50.391  34.274  52.430  0.00  0.00     0.000 A 
ATOM     12  C   UNL d   1      51.067  34.228  51.937  0.00  0.00     0.000 A 
ATOM     13  C   UNL d   1      51.737  33.823  52.191  0.00  0.00     0.000 A 
ENDBRANCH   3   8
BRANCH   1  14
ATOM     14  C   UNL d   1      53.020  34.314  53.512  0.00  0.00     0.303 C 
ATOM     15  O   UNL d   1      53.144  34.761  52.830  0.00  0.00    -0.259 OA
BRANCH  14  16
ATOM     16  O   UNL d   1      52.868  34.695  54.230  0.00  0.00    -0.271 OA
BRANCH  16  17
ATOM     17  C   UNL d   1      53.145  35.460  54.356  0.00  0.00     0.126 C 
ATOM     18  C   UNL d   1      52.862  35.899  54.993  0.00  0.00     0.029 C 
ENDBRANCH  16  17
ENDBRANCH  14  16
ENDBRANCH   1  14
BRANCH   4  19
ATOM     19  C   UNL d   1      53.123  31.020  53.368  0.00  0.00     0.030 A 
ATOM     20  S   UNL d   1      53.323  30.513  53.981  0.00  0.00    -0.086 SA
ATOM     21  C   UNL d   1      53.282  29.758  53.703  0.00  0.00     0.035 A 
ATOM     22  C   UNL d   1      53.055  29.773  52.907  0.00  0.00     0.007 A 
ATOM     23  C   UNL d   1      52.954  30.564  52.692  0.00  0.00     0.007 A 
ENDBRANCH   4  19
TORSDOF 5
ENDMDL
MODEL 4
REMARK VINA RESULT:      -8.8      1.155      2.329
REMARK  5 active torsions:
REMARK  status: ('A' for Active; 'I' for Inactive)
REMARK    1  A    between atoms: C_8  and  C_1 
REMARK    2  A    between atoms: C_11  and  C_3 
REMARK    3  A    between atoms: C_7  and  C_4 
REMARK    4  A    between atoms: O_16  and  C_8 
REMARK    5  A    between atoms: C_19  and  O_16 
ROOT
ATOM      1  C   UNL d   1      53.256  33.497  53.535  0.00  0.00     0.102 A 
ATOM      2  C   UNL d   1      53.042  34.296  53.475  0.00  0.00     0.201 A 
ATOM      3  C   UNL d   1      52.737  32.901  53.299  0.00  0.00     0.008 A 
ATOM      4  C   UNL d   1      51.779  33.880  52.938  0.00  0.00     0.009 A 
ATOM      5  C   UNL d   1      52.298  34.475  53.174  0.00  0.00     0.043 A 
ATOM      6  C   UNL d   1      51.998  33.099  53.001  0.00  0.00     0.001 A 
ATOM      7  O   UNL d   1      53.557  34.886  53.709  0.00  0.00    -0.286 OA
ENDROOT
BRANCH   3   8
ATOM      8  C   UNL d   1      52.963  32.114  53.363  0.00  0.00     0.000 A 
ATOM      9  C   UNL d   1      52.790  31.706  54.059  0.00  0.00     0.000 A 
ATOM     10  C   UNL d   1      53.020  30.914  54.118  0.00  0.00     0.000 A 
ATOM     11  C   UNL d   1      53.403  30.540  53.516  0.00  0.00     0.000 A 
ATOM     12  C   UNL d   1      53.573  30.965  52.814  0.00  0.00     0.000 A 
ATOM     13  C   UNL d   1      53.349  31.754  52.745  0.00  0.00     0.000 A 
ENDBRANCH   3   8
BRANCH   1  14
ATOM     14  C   UNL d   1      54.004  33.297  53.836  0.00  0.00     0.303 C 
ATOM     15  O   UNL d   1      54.608  33.065  53.324  0.00  0.00    -0.259 OA
BRANCH  14  16
ATOM     16  O   UNL d   1      54.148  33.330  54.650  0.00  0.00    -0.271 OA
BRANCH  16  17
ATOM     17  C   UNL d   1      54.907  33.487  54.928  0.00  0.00     0.126 C 
ATOM     18  C   UNL d   1      55.039  33.568  55.737  0.00  0.00     0.029 C 
ENDBRANCH  16  17
ENDBRANCH  14  16
ENDBRANCH   1  14
BRANCH   4  19
ATOM     19  C   UNL d   1      51.034  34.083  52.638  0.00  0.00     0.030 A 
ATOM     20  S   UNL d   1      50.370  34.287  53.075  0.00  0.00    -0.086 SA
ATOM     21  C   UNL d   1      49.771  34.441  52.559  0.00  0.00     0.035 A 
ATOM     22  C   UNL d   1      50.045  34.339  51.785  0.00  0.00     0.007 A 
ATOM     23  C   UNL d   1      50.837  34.113  51.830  0.00  0.00     0.007 A 
ENDBRANCH   4  19
TORSDOF 5
ENDMDL
MODEL 5
REMARK VINA RESULT:      -7.4      1.272      3.258
REMARK  5 active torsions:
REMARK  status: ('A' for Active; 'I' for Inactive)
REMARK    1  A    between atoms: C_8  and  C_1 
REMARK    2  A    between atoms: C_11  and  C_3 
REMARK    3  A    between atoms: C_7  and  C_4 
REMARK    4  A    between atoms: O_16  and  C_8 
REMARK    5  A    between atoms: C_19  and  O_16 
ROOT
ATOM      1  C   UNL d   1      53.114  32.019  53.416  0.00  0.00     0.102 A 
ATOM      2  C   UNL d   1      53.810  31.679  53.711  0.00  0.00     0.201 A 
ATOM      3  C   UNL d   1      52.934  32.811  53.563  0.00  0.00     0.008 A 
ATOM      4  C   UNL d   1      54.135  32.946  54.300  0.00  0.00     0.009 A 
ATOM      5  C   UNL d   1      54.315  32.154  54.153  0.00  0.00     0.043 A 
ATOM      6  C   UNL d   1      53.449  33.270  54.006  0.00  0.00     0.001 A 
ATOM      7  O   UNL d   1      53.988  30.895  53.565  0.00  0.00    -0.286 OA
ENDROOT
BRANCH   3   8
ATOM      8  C   UNL d   1      52.240  33.134  53.264  0.00  0.00     0.000 A 
ATOM      9  C   UNL d   1      52.253  33.483  52.516  0.00  0.00     0.000 A 
ATOM     10  C   UNL d   1      51.551  33.806  52.222  0.00  0.00     0.000 A 
ATOM     11  C   UNL d   1      50.867  33.787  52.646  0.00  0.00     0.000 A 
ATOM     12  C   UNL d   1      50.867  33.430  53.404  0.00  0.00     0.000 A 
ATOM     13  C   UNL d   1      51.560  33.105  53.707  0.00  0.00     0.000 A 
ENDBRANCH   3   8
BRANCH   1  14
ATOM     14  C   UNL d   1      52.592  31.554  52.967  0.00  0.00     0.303 C 
ATOM     15  O   UNL d   1      52.582  31.620  52.144  0.00  0.00    -0.259 OA
BRANCH  14  16
ATOM     16  O   UNL d   1      52.080  31.022  53.341  0.00  0.00    -0.271 OA
BRANCH  16  17
ATOM     17  C   UNL d   1      51.977  30.265  53.034  0.00  0.00     0.126 C 
ATOM     18  C   UNL d   1      51.507  29.721  53.436  0.00  0.00     0.029 C 
ENDBRANCH  16  17
ENDBRANCH  14  16
ENDBRANCH   1  14
BRANCH   4  19
ATOM     19  C   UNL d   1      54.658  33.407  54.748  0.00  0.00     0.030 A 
ATOM     20  S   UNL d   1      54.615  33.551  55.555  0.00  0.00    -0.086 SA
ATOM     21  C   UNL d   1      55.234  34.025  55.756  0.00  0.00     0.035 A 
ATOM     22  C   UNL d   1      55.682  34.190  55.080  0.00  0.00     0.007 A 
ATOM     23  C   UNL d   1      55.324  33.804  54.444  0.00  0.00     0.007 A 
ENDBRANCH   4  19
TORSDOF 5
ENDMDL
