MODEL 1
REMARK VINA RESULT:      -7.2      0.000      0.000
REMARK  2 active torsions:
REMARK  status: ('A' for Active; 'I' for Inactive)
REMARK    1  A    between atoms: C_6  and  C_1 
REMARK    2  A    between atoms: C_11  and  C_6 
ROOT
ATOM      1  C   UNL d   1     -47.393  13.390  23.009  0.00  0.00     0.059 A 
ATOM      2  C   UNL d   1     -47.932  13.987  22.833  0.00  0.00     0.085 A 
ATOM      3  N   UNL d   1     -48.709  13.720  22.954  0.00  0.00    -0.245 NA
ATOM      4  C   UNL d   1     -47.840  12.724  23.248  0.00  0.00     0.022 A 
ATOM      5  C   UNL d   1     -48.647  12.921  23.217  0.00  0.00     0.082 A 
ATOM      6  C   UNL d   1     -47.681  14.724  22.578  0.00  0.00     0.021 C 
ATOM      7  C   UNL d   1     -47.610  11.970  23.489  0.00  0.00     0.002 A 
ATOM      8  C   UNL d   1     -49.223  12.365  23.425  0.00  0.00     0.019 A 
ATOM      9  C   UNL d   1     -48.203  11.418  23.697  0.00  0.00     0.000 A 
ATOM     10  C   UNL d   1     -48.978  11.614  23.664  0.00  0.00     0.002 A 
ENDROOT
BRANCH   1  11
ATOM     11  C   UNL d   1     -46.567  13.448  22.955  0.00  0.00     0.208 C 
ATOM     12  O   UNL d   1     -46.114  13.651  23.607  0.00  0.00    -0.286 OA
BRANCH  11  13
ATOM     13  C   UNL d   1     -46.202  13.300  22.245  0.00  0.00     0.110 C 
ATOM     14 CL   UNL d   1     -45.396  13.311  22.208  0.00  0.00    -0.078 Cl
ENDBRANCH  11  13
ENDBRANCH   1  11
TORSDOF 2
ENDMDL
MODEL 2
REMARK VINA RESULT:      -6.8      2.003      2.791
REMARK  2 active torsions:
REMARK  status: ('A' for Active; 'I' for Inactive)
REMARK    1  A    between atoms: C_6  and  C_1 
REMARK    2  A    between atoms: C_11  and  C_6 
ROOT
ATOM      1  C   UNL d   1     -48.609  12.420  22.520  0.00  0.00     0.059 A 
ATOM      2  C   UNL d   1     -48.758  12.880  21.855  0.00  0.00     0.085 A 
ATOM      3  N   UNL d   1     -48.114  13.378  21.696  0.00  0.00    -0.245 NA
ATOM      4  C   UNL d   1     -47.846  12.631  22.793  0.00  0.00     0.022 A 
ATOM      5  C   UNL d   1     -47.538  13.218  22.291  0.00  0.00     0.082 A 
ATOM      6  C   UNL d   1     -49.465  12.815  21.443  0.00  0.00     0.021 C 
ATOM      7  C   UNL d   1     -47.401  12.361  23.431  0.00  0.00     0.002 A 
ATOM      8  C   UNL d   1     -46.786  13.535  22.428  0.00  0.00     0.019 A 
ATOM      9  C   UNL d   1     -46.642  12.690  23.558  0.00  0.00     0.000 A 
ATOM     10  C   UNL d   1     -46.352  13.255  23.071  0.00  0.00     0.002 A 
ENDROOT
BRANCH   1  11
ATOM     11  C   UNL d   1     -49.122  11.857  22.850  0.00  0.00     0.208 C 
ATOM     12  O   UNL d   1     -49.036  11.059  22.686  0.00  0.00    -0.286 OA
BRANCH  11  13
ATOM     13  C   UNL d   1     -49.719  12.102  23.342  0.00  0.00     0.110 C 
ATOM     14 CL   UNL d   1     -50.189  11.549  23.695  0.00  0.00    -0.078 Cl
ENDBRANCH  11  13
ENDBRANCH   1  11
TORSDOF 2
ENDMDL
MODEL 3
REMARK VINA RESULT:      -6.8      1.771      2.463
REMARK  2 active torsions:
REMARK  status: ('A' for Active; 'I' for Inactive)
REMARK    1  A    between atoms: C_6  and  C_1 
REMARK    2  A    between atoms: C_11  and  C_6 
ROOT
ATOM      1  C   UNL d   1     -48.713  12.673  22.590  0.00  0.00     0.059 A 
ATOM      2  C   UNL d   1     -49.256  12.068  22.719  0.00  0.00     0.085 A 
ATOM      3  N   UNL d   1     -48.902  11.444  23.136  0.00  0.00    -0.245 NA
ATOM      4  C   UNL d   1     -47.992  12.427  22.936  0.00  0.00     0.022 A 
ATOM      5  C   UNL d   1     -48.102  11.675  23.272  0.00  0.00     0.082 A 
ATOM      6  C   UNL d   1     -50.028  12.127  22.450  0.00  0.00     0.021 C 
ATOM      7  C   UNL d   1     -47.256  12.795  22.984  0.00  0.00     0.002 A 
ATOM      8  C   UNL d   1     -47.477  11.290  23.655  0.00  0.00     0.019 A 
ATOM      9  C   UNL d   1     -46.633  12.395  23.375  0.00  0.00     0.000 A 
ATOM     10  C   UNL d   1     -46.746  11.671  23.696  0.00  0.00     0.002 A 
ENDROOT
BRANCH   1  11
ATOM     11  C   UNL d   1     -48.862  13.386  22.193  0.00  0.00     0.208 C 
ATOM     12  O   UNL d   1     -48.740  13.454  21.386  0.00  0.00    -0.286 OA
BRANCH  11  13
ATOM     13  C   UNL d   1     -49.133  14.027  22.611  0.00  0.00     0.110 C 
ATOM     14 CL   UNL d   1     -49.224  14.734  22.233  0.00  0.00    -0.078 Cl
ENDBRANCH  11  13
ENDBRANCH   1  11
TORSDOF 2
ENDMDL
