MODEL 1
REMARK VINA RESULT:      -1.7      0.000      0.000
REMARK  7 active torsions:
REMARK  status: ('A' for Active; 'I' for Inactive)
REMARK    1  A    between atoms: C_8  and  N_2 
REMARK    2  A    between atoms: C_13  and  C_8 
REMARK    3  A    between atoms: O_17  and  C_13 
REMARK    4  A    between atoms: O_18  and  C_15 
REMARK    5  A    between atoms: C_21  and  O_17 
REMARK    6  A    between atoms: C_23  and  C_21 
REMARK    7  A    between atoms: C_24  and  C_23 
ROOT
ATOM      1  C   UNL d   1      33.092  21.540 -22.630  0.00  0.00     0.166 A 
ATOM      2  N   UNL d   1      33.110  20.928 -22.087  0.00  0.00    -0.285 N 
ATOM      3  C   UNL d   1      32.943  22.242 -22.218  0.00  0.00     0.117 A 
ATOM      4  C   UNL d   1      32.870  22.059 -21.419  0.00  0.00     0.039 A 
ATOM      5  C   UNL d   1      32.973  21.244 -21.335  0.00  0.00     0.067 A 
ATOM      6  N   UNL d   1      33.190  21.554 -23.444  0.00  0.00    -0.225 NA
ATOM      7  N   UNL d   1      32.893  22.965 -22.623  0.00  0.00    -0.241 NA
ATOM      8  C   UNL d   1      33.141  22.275 -23.857  0.00  0.00     0.101 A 
ATOM      9  C   UNL d   1      32.993  22.977 -23.445  0.00  0.00     0.099 A 
ATOM     10  C   UNL d   1      32.928  20.896 -20.587  0.00  0.00     0.020 A 
ATOM     11  C   UNL d   1      32.723  22.527 -20.756  0.00  0.00     0.027 A 
ATOM     12  C   UNL d   1      32.679  22.179 -20.009  0.00  0.00     0.094 A 
ATOM     13  C   UNL d   1      32.781  21.365 -19.924  0.00  0.00     0.026 A 
ATOM     14  C   UNL d   1      32.944  23.688 -23.852  0.00  0.00     0.021 A 
ATOM     15  C   UNL d   1      33.241  22.284 -24.672  0.00  0.00     0.021 A 
ATOM     16  C   UNL d   1      33.044  23.698 -24.671  0.00  0.00     0.002 A 
ATOM     17  C   UNL d   1      33.193  22.997 -25.087  0.00  0.00     0.002 A 
ENDROOT
BRANCH   2  18
ATOM     18  C   UNL d   1      33.241  20.134 -22.257  0.00  0.00     0.151 C 
BRANCH  18  19
ATOM     19  C   UNL d   1      32.633  19.687 -22.589  0.00  0.00     0.318 C 
ATOM     20  O   UNL d   1      31.848  19.898 -22.477  0.00  0.00    -0.257 OA
BRANCH  19  21
ATOM     21  O   UNL d   1      32.817  19.021 -23.037  0.00  0.00    -0.270 OA
BRANCH  21  22
ATOM     22  C   UNL d   1      32.322  18.366 -23.019  0.00  0.00     0.126 C 
BRANCH  22  23
ATOM     23  C   UNL d   1      32.465  17.735 -23.527  0.00  0.00     0.027 C 
BRANCH  23  24
ATOM     24  C   UNL d   1      32.116  17.002 -23.382  0.00  0.00     0.002 C 
ATOM     25  C   UNL d   1      32.286  16.358 -23.866  0.00  0.00     0.000 C 
ENDBRANCH  23  24
ENDBRANCH  22  23
ENDBRANCH  21  22
ENDBRANCH  19  21
ENDBRANCH  18  19
ENDBRANCH   2  18
BRANCH  12  26
ATOM     26  O   UNL d   1      32.532  22.647 -19.350  0.00  0.00    -0.328 OA
ATOM     27  C   UNL d   1      33.076  23.208 -19.116  0.00  0.00     0.181 C 
ENDBRANCH  12  26
TORSDOF 7
ENDMDL
MODEL 2
REMARK VINA RESULT:      -1.6      1.104      3.210
REMARK  7 active torsions:
REMARK  status: ('A' for Active; 'I' for Inactive)
REMARK    1  A    between atoms: C_8  and  N_2 
REMARK    2  A    between atoms: C_13  and  C_8 
REMARK    3  A    between atoms: O_17  and  C_13 
REMARK    4  A    between atoms: O_18  and  C_15 
REMARK    5  A    between atoms: C_21  and  O_17 
REMARK    6  A    between atoms: C_23  and  C_21 
REMARK    7  A    between atoms: C_24  and  C_23 
ROOT
ATOM      1  C   UNL d   1      33.183  21.821 -21.347  0.00  0.00     0.166 A 
ATOM      2  N   UNL d   1      33.213  21.350 -22.016  0.00  0.00    -0.285 N 
ATOM      3  C   UNL d   1      33.162  22.611 -21.593  0.00  0.00     0.117 A 
ATOM      4  C   UNL d   1      33.180  22.624 -22.416  0.00  0.00     0.039 A 
ATOM      5  C   UNL d   1      33.211  21.843 -22.681  0.00  0.00     0.067 A 
ATOM      6  N   UNL d   1      33.172  21.639 -20.548  0.00  0.00    -0.225 NA
ATOM      7  N   UNL d   1      33.130  23.225 -21.035  0.00  0.00    -0.241 NA
ATOM      8  C   UNL d   1      33.140  22.248 -19.982  0.00  0.00     0.101 A 
ATOM      9  C   UNL d   1      33.119  23.038 -20.228  0.00  0.00     0.099 A 
ATOM     10  C   UNL d   1      33.234  21.681 -23.490  0.00  0.00     0.020 A 
ATOM     11  C   UNL d   1      33.171  23.243 -22.959  0.00  0.00     0.027 A 
ATOM     12  C   UNL d   1      33.194  23.081 -23.768  0.00  0.00     0.094 A 
ATOM     13  C   UNL d   1      33.225  22.301 -24.034  0.00  0.00     0.026 A 
ATOM     14  C   UNL d   1      33.087  23.640 -19.670  0.00  0.00     0.021 A 
ATOM     15  C   UNL d   1      33.129  22.061 -19.183  0.00  0.00     0.021 A 
ATOM     16  C   UNL d   1      33.076  23.452 -18.867  0.00  0.00     0.002 A 
ATOM     17  C   UNL d   1      33.097  22.662 -18.617  0.00  0.00     0.002 A 
ENDROOT
BRANCH   2  18
ATOM     18  C   UNL d   1      33.241  20.528 -22.028  0.00  0.00     0.151 C 
BRANCH  18  19
ATOM     19  C   UNL d   1      32.557  20.104 -22.208  0.00  0.00     0.318 C 
ATOM     20  O   UNL d   1      31.859  20.241 -21.797  0.00  0.00    -0.257 OA
BRANCH  19  21
ATOM     21  O   UNL d   1      32.575  19.539 -22.806  0.00  0.00    -0.270 OA
BRANCH  21  22
ATOM     22  C   UNL d   1      32.313  18.775 -22.655  0.00  0.00     0.126 C 
BRANCH  22  23
ATOM     23  C   UNL d   1      32.380  18.201 -23.240  0.00  0.00     0.027 C 
BRANCH  23  24
ATOM     24  C   UNL d   1      32.659  17.448 -23.047  0.00  0.00     0.002 C 
ATOM     25  C   UNL d   1      32.534  16.816 -23.559  0.00  0.00     0.000 C 
ENDBRANCH  23  24
ENDBRANCH  22  23
ENDBRANCH  21  22
ENDBRANCH  19  21
ENDBRANCH  18  19
ENDBRANCH   2  18
BRANCH  12  26
ATOM     26  O   UNL d   1      33.185  23.701 -24.307  0.00  0.00    -0.328 OA
ATOM     27  C   UNL d   1      32.819  23.610 -25.031  0.00  0.00     0.181 C 
ENDBRANCH  12  26
TORSDOF 7
ENDMDL
