MODEL 1
REMARK VINA RESULT:      -6.2      0.000      0.000
REMARK  4 active torsions:
REMARK  status: ('A' for Active; 'I' for Inactive)
REMARK    1  A    between atoms: C_3  and  C_2 
REMARK    2  A    between atoms: C_14  and  C_12 
REMARK    3  A    between atoms: C_15  and  C_14 
REMARK    4  A    between atoms: C_16  and  C_15 
ROOT
ATOM      1  N   UNL d   1     -48.184  12.869  23.157  0.00  0.00    -0.244 NA
ATOM      2  C   UNL d   1     -47.371  12.982  23.113  0.00  0.00     0.081 A 
ATOM      3  C   UNL d   1     -47.063  13.782  22.926  0.00  0.00     0.019 A 
ATOM      4  C   UNL d   1     -48.716  13.490  23.030  0.00  0.00     0.099 A 
ATOM      5  C   UNL d   1     -47.595  14.403  22.799  0.00  0.00     0.003 A 
ATOM      6  C   UNL d   1     -48.461  14.255  22.852  0.00  0.00     0.019 A 
ENDROOT
BRANCH   2   7
ATOM      7  C   UNL d   1     -46.839  12.360  23.240  0.00  0.00     0.018 A 
ATOM      8  C   UNL d   1     -47.076  11.643  23.573  0.00  0.00     0.002 A 
ATOM      9  C   UNL d   1     -46.564  11.046  23.695  0.00  0.00     0.007 A 
ATOM     10  C   UNL d   1     -45.754  11.092  23.499  0.00  0.00     0.035 A 
ATOM     11  C   UNL d   1     -45.482  11.859  23.139  0.00  0.00     0.007 A 
ATOM     12 BR   UNL d   1     -45.242  10.495  23.622  0.00  0.00    -0.049 Br
ATOM     13  C   UNL d   1     -45.993  12.457  23.016  0.00  0.00     0.002 A 
ENDBRANCH   2   7
BRANCH   6  14
ATOM     14  C   UNL d   1     -48.985  14.866  22.727  0.00  0.00     0.002 C 
BRANCH  14  15
ATOM     15  C   UNL d   1     -49.495  15.105  23.309  0.00  0.00     0.000 C 
BRANCH  15  16
ATOM     16  C   UNL d   1     -49.918  15.798  23.239  0.00  0.00     0.000 C 
ATOM     17  C   UNL d   1     -50.561  15.921  23.697  0.00  0.00     0.000 C 
ENDBRANCH  15  16
ENDBRANCH  14  15
ENDBRANCH   6  14
TORSDOF 4
ENDMDL
MODEL 2
REMARK VINA RESULT:      -6.1      2.242      4.508
REMARK  4 active torsions:
REMARK  status: ('A' for Active; 'I' for Inactive)
REMARK    1  A    between atoms: C_3  and  C_2 
REMARK    2  A    between atoms: C_14  and  C_12 
REMARK    3  A    between atoms: C_15  and  C_14 
REMARK    4  A    between atoms: C_16  and  C_15 
ROOT
ATOM      1  N   UNL d   1     -48.158  11.503  23.022  0.00  0.00    -0.244 NA
ATOM      2  C   UNL d   1     -48.227  12.302  22.844  0.00  0.00     0.081 A 
ATOM      3  C   UNL d   1     -47.531  12.824  22.956  0.00  0.00     0.019 A 
ATOM      4  C   UNL d   1     -47.449  11.181  23.303  0.00  0.00     0.099 A 
ATOM      5  C   UNL d   1     -46.822  12.502  23.238  0.00  0.00     0.003 A 
ATOM      6  C   UNL d   1     -46.775  11.643  23.421  0.00  0.00     0.019 A 
ENDROOT
BRANCH   2   7
ATOM      7  C   UNL d   1     -48.936  12.625  22.562  0.00  0.00     0.018 A 
ATOM      8  C   UNL d   1     -49.579  12.768  23.059  0.00  0.00     0.002 A 
ATOM      9  C   UNL d   1     -50.260  13.078  22.789  0.00  0.00     0.007 A 
ATOM     10  C   UNL d   1     -50.382  13.282  21.988  0.00  0.00     0.035 A 
ATOM     11  C   UNL d   1     -49.698  13.133  21.438  0.00  0.00     0.007 A 
ATOM     12 BR   UNL d   1     -51.064  13.591  21.717  0.00  0.00    -0.049 Br
ATOM     13  C   UNL d   1     -49.017  12.824  21.709  0.00  0.00     0.002 A 
ENDBRANCH   2   7
BRANCH   6  14
ATOM     14  C   UNL d   1     -46.077  11.326  23.698  0.00  0.00     0.002 C 
BRANCH  14  15
ATOM     15  C   UNL d   1     -45.692  10.742  23.289  0.00  0.00     0.000 C 
BRANCH  15  16
ATOM     16  C   UNL d   1     -45.161  10.249  23.662  0.00  0.00     0.000 C 
ATOM     17  C   UNL d   1     -44.401  10.224  23.416  0.00  0.00     0.000 C 
ENDBRANCH  15  16
ENDBRANCH  14  15
ENDBRANCH   6  14
TORSDOF 4
ENDMDL
MODEL 3
REMARK VINA RESULT:      -6.1      2.083      3.969
REMARK  4 active torsions:
REMARK  status: ('A' for Active; 'I' for Inactive)
REMARK    1  A    between atoms: C_3  and  C_2 
REMARK    2  A    between atoms: C_14  and  C_12 
REMARK    3  A    between atoms: C_15  and  C_14 
REMARK    4  A    between atoms: C_16  and  C_15 
ROOT
ATOM      1  N   UNL d   1     -47.751  13.311  22.306  0.00  0.00    -0.244 NA
ATOM      2  C   UNL d   1     -47.936  12.861  22.969  0.00  0.00     0.081 A 
ATOM      3  C   UNL d   1     -47.287  12.592  23.494  0.00  0.00     0.019 A 
ATOM      4  C   UNL d   1     -46.969  13.513  22.124  0.00  0.00     0.099 A 
ATOM      5  C   UNL d   1     -46.505  12.794  23.312  0.00  0.00     0.003 A 
ATOM      6  C   UNL d   1     -46.335  13.276  22.596  0.00  0.00     0.019 A 
ENDROOT
BRANCH   2   7
ATOM      7  C   UNL d   1     -48.718  12.659  23.151  0.00  0.00     0.018 A 
ATOM      8  C   UNL d   1     -48.974  11.875  23.166  0.00  0.00     0.002 A 
ATOM      9  C   UNL d   1     -49.726  11.680  23.341  0.00  0.00     0.007 A 
ATOM     10  C   UNL d   1     -50.313  12.246  23.523  0.00  0.00     0.035 A 
ATOM     11  C   UNL d   1     -50.053  13.096  23.511  0.00  0.00     0.007 A 
ATOM     12 BR   UNL d   1     -51.064  12.051  23.698  0.00  0.00    -0.049 Br
ATOM     13  C   UNL d   1     -49.301  13.291  23.336  0.00  0.00     0.002 A 
ENDBRANCH   2   7
BRANCH   6  14
ATOM     14  C   UNL d   1     -45.565  13.476  22.416  0.00  0.00     0.002 C 
BRANCH  14  15
ATOM     15  C   UNL d   1     -45.091  12.974  21.991  0.00  0.00     0.000 C 
BRANCH  15  16
ATOM     16  C   UNL d   1     -44.336  13.192  21.774  0.00  0.00     0.000 C 
ATOM     17  C   UNL d   1     -43.837  12.646  21.472  0.00  0.00     0.000 C 
ENDBRANCH  15  16
ENDBRANCH  14  15
ENDBRANCH   6  14
TORSDOF 4
ENDMDL
MODEL 4
REMARK VINA RESULT:      -5.5      8.084      9.311
REMARK  4 active torsions:
REMARK  status: ('A' for Active; 'I' for Inactive)
REMARK    1  A    between atoms: C_3  and  C_2 
REMARK    2  A    between atoms: C_14  and  C_12 
REMARK    3  A    between atoms: C_15  and  C_14 
REMARK    4  A    between atoms: C_16  and  C_15 
ROOT
ATOM      1  N   UNL d   1     -39.384  14.798  19.892  0.00  0.00    -0.244 NA
ATOM      2  C   UNL d   1     -40.174  14.787  19.666  0.00  0.00     0.081 A 
ATOM      3  C   UNL d   1     -40.783  14.564  20.257  0.00  0.00     0.019 A 
ATOM      4  C   UNL d   1     -39.151  14.604  20.663  0.00  0.00     0.099 A 
ATOM      5  C   UNL d   1     -40.550  14.370  21.027  0.00  0.00     0.003 A 
ATOM      6  C   UNL d   1     -39.697  14.389  21.244  0.00  0.00     0.019 A 
ENDROOT
BRANCH   2   7
ATOM      7  C   UNL d   1     -40.408  14.981  18.895  0.00  0.00     0.018 A 
ATOM      8  C   UNL d   1     -40.705  15.727  18.703  0.00  0.00     0.002 A 
ATOM      9  C   UNL d   1     -40.929  15.913  17.963  0.00  0.00     0.007 A 
ATOM     10  C   UNL d   1     -40.883  15.377  17.324  0.00  0.00     0.035 A 
ATOM     11  C   UNL d   1     -40.565  14.568  17.514  0.00  0.00     0.007 A 
ATOM     12 BR   UNL d   1     -41.108  15.564  16.583  0.00  0.00    -0.049 Br
ATOM     13  C   UNL d   1     -40.341  14.382  18.254  0.00  0.00     0.002 A 
ENDBRANCH   2   7
BRANCH   6  14
ATOM     14  C   UNL d   1     -39.467  14.198  22.002  0.00  0.00     0.002 C 
BRANCH  14  15
ATOM     15  C   UNL d   1     -38.856  13.684  22.137  0.00  0.00     0.000 C 
BRANCH  15  16
ATOM     16  C   UNL d   1     -38.690  13.416  22.888  0.00  0.00     0.000 C 
ATOM     17  C   UNL d   1     -37.974  13.100  23.049  0.00  0.00     0.000 C 
ENDBRANCH  15  16
ENDBRANCH  14  15
ENDBRANCH   6  14
TORSDOF 4
ENDMDL
MODEL 5
REMARK VINA RESULT:      -5.1      8.167      8.904
REMARK  4 active torsions:
REMARK  status: ('A' for Active; 'I' for Inactive)
REMARK    1  A    between atoms: C_3  and  C_2 
REMARK    2  A    between atoms: C_14  and  C_12 
REMARK    3  A    between atoms: C_15  and  C_14 
REMARK    4  A    between atoms: C_16  and  C_15 
ROOT
ATOM      1  N   UNL d   1     -39.127  14.483  19.973  0.00  0.00    -0.244 NA
ATOM      2  C   UNL d   1     -39.607  14.448  20.639  0.00  0.00     0.081 A 
ATOM      3  C   UNL d   1     -40.477  14.421  20.534  0.00  0.00     0.019 A 
ATOM      4  C   UNL d   1     -39.445  14.493  19.208  0.00  0.00     0.099 A 
ATOM      5  C   UNL d   1     -40.796  14.431  19.770  0.00  0.00     0.003 A 
ATOM      6  C   UNL d   1     -40.259  14.469  19.073  0.00  0.00     0.019 A 
ENDROOT
BRANCH   2   7
ATOM      7  C   UNL d   1     -39.289  14.439  21.403  0.00  0.00     0.018 A 
ATOM      8  C   UNL d   1     -39.112  15.133  21.812  0.00  0.00     0.002 A 
ATOM      9  C   UNL d   1     -38.806  15.124  22.547  0.00  0.00     0.007 A 
ATOM     10  C   UNL d   1     -38.639  14.419  22.962  0.00  0.00     0.035 A 
ATOM     11  C   UNL d   1     -38.824  13.660  22.535  0.00  0.00     0.007 A 
ATOM     12 BR   UNL d   1     -38.333  14.409  23.697  0.00  0.00    -0.049 Br
ATOM     13  C   UNL d   1     -39.130  13.670  21.801  0.00  0.00     0.002 A 
ENDBRANCH   2   7
BRANCH   6  14
ATOM     14  C   UNL d   1     -40.573  14.478  18.321  0.00  0.00     0.002 C 
BRANCH  14  15
ATOM     15  C   UNL d   1     -40.608  15.164  17.892  0.00  0.00     0.000 C 
BRANCH  15  16
ATOM     16  C   UNL d   1     -40.871  15.165  17.120  0.00  0.00     0.000 C 
ATOM     17  C   UNL d   1     -41.261  15.800  16.833  0.00  0.00     0.000 C 
ENDBRANCH  15  16
ENDBRANCH  14  15
ENDBRANCH   6  14
TORSDOF 4
ENDMDL
MODEL 6
REMARK VINA RESULT:      -4.8      8.831     10.536
REMARK  4 active torsions:
REMARK  status: ('A' for Active; 'I' for Inactive)
REMARK    1  A    between atoms: C_3  and  C_2 
REMARK    2  A    between atoms: C_14  and  C_12 
REMARK    3  A    between atoms: C_15  and  C_14 
REMARK    4  A    between atoms: C_16  and  C_15 
ROOT
ATOM      1  N   UNL d   1     -38.865  13.969  18.436  0.00  0.00    -0.244 NA
ATOM      2  C   UNL d   1     -39.522  14.450  18.320  0.00  0.00     0.081 A 
ATOM      3  C   UNL d   1     -39.797  14.603  17.501  0.00  0.00     0.019 A 
ATOM      4  C   UNL d   1     -38.459  13.628  17.800  0.00  0.00     0.099 A 
ATOM      5  C   UNL d   1     -39.391  14.261  16.865  0.00  0.00     0.003 A 
ATOM      6  C   UNL d   1     -38.690  13.750  17.018  0.00  0.00     0.019 A 
ENDROOT
BRANCH   2   7
ATOM      7  C   UNL d   1     -39.927  14.792  18.956  0.00  0.00     0.018 A 
ATOM      8  C   UNL d   1     -39.849  15.591  19.146  0.00  0.00     0.002 A 
ATOM      9  C   UNL d   1     -40.239  15.919  19.757  0.00  0.00     0.007 A 
ATOM     10  C   UNL d   1     -40.755  15.488  20.252  0.00  0.00     0.035 A 
ATOM     11  C   UNL d   1     -40.852  14.625  20.061  0.00  0.00     0.007 A 
ATOM     12 BR   UNL d   1     -41.145  15.817  20.864  0.00  0.00    -0.049 Br
ATOM     13  C   UNL d   1     -40.461  14.296  19.450  0.00  0.00     0.002 A 
ENDBRANCH   2   7
BRANCH   6  14
ATOM     14  C   UNL d   1     -38.291  13.414  16.392  0.00  0.00     0.002 C 
BRANCH  14  15
ATOM     15  C   UNL d   1     -38.294  13.760  15.659  0.00  0.00     0.000 C 
BRANCH  15  16
ATOM     16  C   UNL d   1     -37.940  13.398  15.021  0.00  0.00     0.000 C 
ATOM     17  C   UNL d   1     -37.967  13.743  14.301  0.00  0.00     0.000 C 
ENDBRANCH  15  16
ENDBRANCH  14  15
ENDBRANCH   6  14
TORSDOF 4
ENDMDL
MODEL 7
REMARK VINA RESULT:      -4.8      8.798     10.085
REMARK  4 active torsions:
REMARK  status: ('A' for Active; 'I' for Inactive)
REMARK    1  A    between atoms: C_3  and  C_2 
REMARK    2  A    between atoms: C_14  and  C_12 
REMARK    3  A    between atoms: C_15  and  C_14 
REMARK    4  A    between atoms: C_16  and  C_15 
ROOT
ATOM      1  N   UNL d   1     -39.046  15.406  18.448  0.00  0.00    -0.244 NA
ATOM      2  C   UNL d   1     -39.293  14.711  18.086  0.00  0.00     0.081 A 
ATOM      3  C   UNL d   1     -39.927  14.237  18.464  0.00  0.00     0.019 A 
ATOM      4  C   UNL d   1     -39.381  15.668  19.159  0.00  0.00     0.099 A 
ATOM      5  C   UNL d   1     -40.262  14.499  19.175  0.00  0.00     0.003 A 
ATOM      6  C   UNL d   1     -39.979  15.247  19.541  0.00  0.00     0.019 A 
ENDROOT
BRANCH   2   7
ATOM      7  C   UNL d   1     -38.959  14.449  17.375  0.00  0.00     0.018 A 
ATOM      8  C   UNL d   1     -38.641  13.692  17.294  0.00  0.00     0.002 A 
ATOM      9  C   UNL d   1     -38.320  13.440  16.611  0.00  0.00     0.007 A 
ATOM     10  C   UNL d   1     -38.276  13.915  15.925  0.00  0.00     0.035 A 
ATOM     11  C   UNL d   1     -38.614  14.735  15.996  0.00  0.00     0.007 A 
ATOM     12 BR   UNL d   1     -37.954  13.663  15.242  0.00  0.00    -0.049 Br
ATOM     13  C   UNL d   1     -38.936  14.987  16.679  0.00  0.00     0.002 A 
ENDBRANCH   2   7
BRANCH   6  14
ATOM     14  C   UNL d   1     -40.308  15.505  20.241  0.00  0.00     0.002 C 
BRANCH  14  15
ATOM     15  C   UNL d   1     -39.850  15.630  20.897  0.00  0.00     0.000 C 
BRANCH  15  16
ATOM     16  C   UNL d   1     -40.188  15.800  21.619  0.00  0.00     0.000 C 
ATOM     17  C   UNL d   1     -39.723  15.922  22.258  0.00  0.00     0.000 C 
ENDBRANCH  15  16
ENDBRANCH  14  15
ENDBRANCH   6  14
TORSDOF 4
ENDMDL
