MODEL 1
REMARK VINA RESULT:      -5.4      0.000      0.000
REMARK  7 active torsions:
REMARK  status: ('A' for Active; 'I' for Inactive)
REMARK    1  A    between atoms: N_4  and  C_1 
REMARK    2  A    between atoms: C_9  and  C_2 
REMARK    3  A    between atoms: C_7  and  N_4 
REMARK       I    between atoms: C_10  and  N_8 
REMARK    4  A    between atoms: C_17  and  C_10 
REMARK    5  A    between atoms: C_12  and  C_18 
REMARK    6  A    between atoms: O_20  and  C_12 
REMARK    7  A    between atoms: C_18  and  C_17 
ROOT
ATOM      1  N   UNL d   1      52.679  34.162  53.803  0.00  0.00    -0.211 NA
ENDROOT
BRANCH   1   2
ATOM      2  C   UNL d   1      51.894  34.299  53.524  0.00  0.00     0.118 A 
ATOM      3  C   UNL d   1      51.628  34.204  52.727  0.00  0.00     0.084 A 
ATOM      4  C   UNL d   1      50.826  34.398  52.707  0.00  0.00     0.013 A 
ATOM      5  C   UNL d   1      50.326  34.382  52.012  0.00  0.00     0.001 C 
ATOM      6  C   UNL d   1      50.587  34.607  53.449  0.00  0.00     0.031 A 
ATOM      7  S   UNL d   1      51.232  34.551  53.960  0.00  0.00    -0.068 SA
ATOM      8  C   UNL d   1      49.791  34.845  53.653  0.00  0.00     0.007 C 
BRANCH   3   9
ATOM      9  C   UNL d   1      52.104  33.954  52.067  0.00  0.00     0.299 C 
ATOM     10  O   UNL d   1      52.092  33.146  51.821  0.00  0.00    -0.264 OA
ATOM     11  N   UNL d   1      52.599  34.512  51.646  0.00  0.00    -0.102 N 
ENDBRANCH   3   9
ENDBRANCH   1   2
BRANCH   1  12
ATOM     12  C   UNL d   1      53.019  34.688  54.303  0.00  0.00     0.224 C 
ATOM     13  N   UNL d   1      53.896  34.314  55.027  0.00  0.00    -0.179 NA
ATOM     14  C   UNL d   1      54.131  33.541  55.001  0.00  0.00     0.281 C 
ATOM     15  O   UNL d   1      54.722  33.290  55.488  0.00  0.00    -0.265 OA
ATOM     16  S   UNL d   1      52.780  35.461  54.326  0.00  0.00    -0.037 SA
BRANCH  14  17
ATOM     17  C   UNL d   1      53.785  33.027  54.498  0.00  0.00     0.068 C 
BRANCH  17  18
ATOM     18  C   UNL d   1      53.896  32.232  54.621  0.00  0.00     0.073 C 
BRANCH  18  19
ATOM     19  C   UNL d   1      53.883  31.743  53.970  0.00  0.00     0.296 C 
ATOM     20  O   UNL d   1      54.435  31.808  53.418  0.00  0.00    -0.259 OA
BRANCH  19  21
ATOM     21  O   UNL d   1      53.296  31.188  53.897  0.00  0.00    -0.296 OA
ATOM     22  C   UNL d   1      53.460  30.479  53.523  0.00  0.00     0.185 C 
ENDBRANCH  19  21
ENDBRANCH  18  19
ENDBRANCH  17  18
ENDBRANCH  14  17
ENDBRANCH   1  12
TORSDOF 7
ENDMDL
MODEL 2
REMARK VINA RESULT:      -4.9      1.913      3.156
REMARK  7 active torsions:
REMARK  status: ('A' for Active; 'I' for Inactive)
REMARK    1  A    between atoms: N_4  and  C_1 
REMARK    2  A    between atoms: C_9  and  C_2 
REMARK    3  A    between atoms: C_7  and  N_4 
REMARK       I    between atoms: C_10  and  N_8 
REMARK    4  A    between atoms: C_17  and  C_10 
REMARK    5  A    between atoms: C_12  and  C_18 
REMARK    6  A    between atoms: O_20  and  C_12 
REMARK    7  A    between atoms: C_18  and  C_17 
ROOT
ATOM      1  N   UNL d   1      53.102  32.601  53.589  0.00  0.00    -0.211 NA
ENDROOT
BRANCH   1   2
ATOM      2  C   UNL d   1      53.146  33.309  54.046  0.00  0.00     0.118 A 
ATOM      3  C   UNL d   1      53.753  33.504  54.602  0.00  0.00     0.084 A 
ATOM      4  C   UNL d   1      53.574  34.245  54.918  0.00  0.00     0.013 A 
ATOM      5  C   UNL d   1      54.038  34.663  55.504  0.00  0.00     0.001 C 
ATOM      6  C   UNL d   1      52.890  34.515  54.586  0.00  0.00     0.031 A 
ATOM      7  S   UNL d   1      52.617  33.951  54.049  0.00  0.00    -0.068 SA
ATOM      8  C   UNL d   1      52.525  35.265  54.772  0.00  0.00     0.007 C 
BRANCH   3   9
ATOM      9  C   UNL d   1      54.426  33.019  54.798  0.00  0.00     0.299 C 
ATOM     10  O   UNL d   1      54.407  32.529  55.485  0.00  0.00    -0.264 OA
ATOM     11  N   UNL d   1      55.126  33.023  54.305  0.00  0.00    -0.102 N 
ENDBRANCH   3   9
ENDBRANCH   1   2
BRANCH   1  12
ATOM     12  C   UNL d   1      52.831  32.633  52.835  0.00  0.00     0.224 C 
ATOM     13  N   UNL d   1      52.584  31.609  52.266  0.00  0.00    -0.179 NA
ATOM     14  C   UNL d   1      52.695  30.905  52.648  0.00  0.00     0.281 C 
ATOM     15  O   UNL d   1      52.529  30.216  52.264  0.00  0.00    -0.265 OA
ATOM     16  S   UNL d   1      52.722  33.340  52.458  0.00  0.00    -0.037 SA
BRANCH  14  17
ATOM     17  C   UNL d   1      52.966  30.887  53.399  0.00  0.00     0.068 C 
BRANCH  17  18
ATOM     18  C   UNL d   1      52.785  30.243  53.859  0.00  0.00     0.073 C 
BRANCH  18  19
ATOM     19  C   UNL d   1      53.403  29.840  54.205  0.00  0.00     0.296 C 
ATOM     20  O   UNL d   1      54.073  29.737  53.815  0.00  0.00    -0.259 OA
BRANCH  19  21
ATOM     21  O   UNL d   1      53.318  29.545  54.957  0.00  0.00    -0.296 OA
ATOM     22  C   UNL d   1      53.400  28.741  55.082  0.00  0.00     0.185 C 
ENDBRANCH  19  21
ENDBRANCH  18  19
ENDBRANCH  17  18
ENDBRANCH  14  17
ENDBRANCH   1  12
TORSDOF 7
ENDMDL
MODEL 3
REMARK VINA RESULT:      -4.9      1.666      3.510
REMARK  7 active torsions:
REMARK  status: ('A' for Active; 'I' for Inactive)
REMARK    1  A    between atoms: N_4  and  C_1 
REMARK    2  A    between atoms: C_9  and  C_2 
REMARK    3  A    between atoms: C_7  and  N_4 
REMARK       I    between atoms: C_10  and  N_8 
REMARK    4  A    between atoms: C_17  and  C_10 
REMARK    5  A    between atoms: C_12  and  C_18 
REMARK    6  A    between atoms: O_20  and  C_12 
REMARK    7  A    between atoms: C_18  and  C_17 
ROOT
ATOM      1  N   UNL d   1      53.644  33.293  54.245  0.00  0.00    -0.211 NA
ENDROOT
BRANCH   1   2
ATOM      2  C   UNL d   1      53.622  32.457  54.356  0.00  0.00     0.118 A 
ATOM      3  C   UNL d   1      53.660  31.875  53.743  0.00  0.00     0.084 A 
ATOM      4  C   UNL d   1      53.620  31.133  54.101  0.00  0.00     0.013 A 
ATOM      5  C   UNL d   1      53.639  30.380  53.693  0.00  0.00     0.001 C 
ATOM      6  C   UNL d   1      53.560  31.228  54.900  0.00  0.00     0.031 A 
ATOM      7  S   UNL d   1      53.560  32.036  55.070  0.00  0.00    -0.068 SA
ATOM      8  C   UNL d   1      53.506  30.587  55.462  0.00  0.00     0.007 C 
BRANCH   3   9
ATOM      9  C   UNL d   1      53.727  32.031  52.908  0.00  0.00     0.299 C 
ATOM     10  O   UNL d   1      53.068  31.890  52.399  0.00  0.00    -0.264 OA
ATOM     11  N   UNL d   1      54.457  32.331  52.576  0.00  0.00    -0.102 N 
ENDBRANCH   3   9
ENDBRANCH   1   2
BRANCH   1  12
ATOM     12  C   UNL d   1      54.071  33.748  54.749  0.00  0.00     0.224 C 
ATOM     13  N   UNL d   1      53.750  34.889  54.911  0.00  0.00    -0.179 NA
ATOM     14  C   UNL d   1      53.111  35.184  54.513  0.00  0.00     0.281 C 
ATOM     15  O   UNL d   1      52.895  35.953  54.622  0.00  0.00    -0.265 OA
ATOM     16  S   UNL d   1      54.710  33.448  55.145  0.00  0.00    -0.037 SA
BRANCH  14  17
ATOM     17  C   UNL d   1      52.694  34.721  54.014  0.00  0.00     0.068 C 
BRANCH  17  18
ATOM     18  C   UNL d   1      51.955  34.967  53.786  0.00  0.00     0.073 C 
BRANCH  18  19
ATOM     19  C   UNL d   1      51.646  34.654  53.100  0.00  0.00     0.296 C 
ATOM     20  O   UNL d   1      51.993  34.795  52.413  0.00  0.00    -0.259 OA
BRANCH  19  21
ATOM     21  O   UNL d   1      50.977  34.196  53.133  0.00  0.00    -0.296 OA
ATOM     22  C   UNL d   1      50.433  34.239  52.524  0.00  0.00     0.185 C 
ENDBRANCH  19  21
ENDBRANCH  18  19
ENDBRANCH  17  18
ENDBRANCH  14  17
ENDBRANCH   1  12
TORSDOF 7
ENDMDL
MODEL 4
REMARK VINA RESULT:      -4.0      2.257      3.399
REMARK  7 active torsions:
REMARK  status: ('A' for Active; 'I' for Inactive)
REMARK    1  A    between atoms: N_4  and  C_1 
REMARK    2  A    between atoms: C_9  and  C_2 
REMARK    3  A    between atoms: C_7  and  N_4 
REMARK       I    between atoms: C_10  and  N_8 
REMARK    4  A    between atoms: C_17  and  C_10 
REMARK    5  A    between atoms: C_12  and  C_18 
REMARK    6  A    between atoms: O_20  and  C_12 
REMARK    7  A    between atoms: C_18  and  C_17 
ROOT
ATOM      1  N   UNL d   1      54.001  32.618  53.660  0.00  0.00    -0.211 NA
ENDROOT
BRANCH   1   2
ATOM      2  C   UNL d   1      53.575  31.896  53.564  0.00  0.00     0.118 A 
ATOM      3  C   UNL d   1      52.812  31.815  53.207  0.00  0.00     0.084 A 
ATOM      4  C   UNL d   1      52.609  31.016  53.231  0.00  0.00     0.013 A 
ATOM      5  C   UNL d   1      51.882  30.676  52.931  0.00  0.00     0.001 C 
ATOM      6  C   UNL d   1      53.205  30.602  53.584  0.00  0.00     0.031 A 
ATOM      7  S   UNL d   1      53.804  31.131  53.793  0.00  0.00    -0.068 SA
ATOM      8  C   UNL d   1      53.200  29.757  53.712  0.00  0.00     0.007 C 
BRANCH   3   9
ATOM      9  C   UNL d   1      52.342  32.447  52.882  0.00  0.00     0.299 C 
ATOM     10  O   UNL d   1      52.589  32.834  52.173  0.00  0.00    -0.264 OA
ATOM     11  N   UNL d   1      51.619  32.697  53.265  0.00  0.00    -0.102 N 
ENDBRANCH   3   9
ENDBRANCH   1   2
BRANCH   1  12
ATOM     12  C   UNL d   1      54.796  32.625  53.552  0.00  0.00     0.224 C 
ATOM     13  N   UNL d   1      55.462  33.366  54.214  0.00  0.00    -0.179 NA
ATOM     14  C   UNL d   1      55.104  33.846  54.757  0.00  0.00     0.281 C 
ATOM     15  O   UNL d   1      55.553  34.345  55.203  0.00  0.00    -0.265 OA
ATOM     16  S   UNL d   1      55.149  32.143  53.007  0.00  0.00    -0.037 SA
BRANCH  14  17
ATOM     17  C   UNL d   1      54.312  33.830  54.855  0.00  0.00     0.068 C 
BRANCH  17  18
ATOM     18  C   UNL d   1      53.983  34.308  55.422  0.00  0.00     0.073 C 
BRANCH  18  19
ATOM     19  C   UNL d   1      53.290  34.694  55.237  0.00  0.00     0.296 C 
ATOM     20  O   UNL d   1      52.610  34.446  55.532  0.00  0.00    -0.259 OA
BRANCH  19  21
ATOM     21  O   UNL d   1      53.310  35.338  54.744  0.00  0.00    -0.296 OA
ATOM     22  C   UNL d   1      52.642  35.803  54.667  0.00  0.00     0.185 C 
ENDBRANCH  19  21
ENDBRANCH  18  19
ENDBRANCH  17  18
ENDBRANCH  14  17
ENDBRANCH   1  12
TORSDOF 7
ENDMDL
MODEL 5
REMARK VINA RESULT:      -3.7      1.428      2.231
REMARK  7 active torsions:
REMARK  status: ('A' for Active; 'I' for Inactive)
REMARK    1  A    between atoms: N_4  and  C_1 
REMARK    2  A    between atoms: C_9  and  C_2 
REMARK    3  A    between atoms: C_7  and  N_4 
REMARK       I    between atoms: C_10  and  N_8 
REMARK    4  A    between atoms: C_17  and  C_10 
REMARK    5  A    between atoms: C_12  and  C_18 
REMARK    6  A    between atoms: O_20  and  C_12 
REMARK    7  A    between atoms: C_18  and  C_17 
ROOT
ATOM      1  N   UNL d   1      52.595  32.910  53.311  0.00  0.00    -0.211 NA
ENDROOT
BRANCH   1   2
ATOM      2  C   UNL d   1      51.878  33.344  53.209  0.00  0.00     0.118 A 
ATOM      3  C   UNL d   1      51.820  34.163  53.005  0.00  0.00     0.084 A 
ATOM      4  C   UNL d   1      51.018  34.353  52.964  0.00  0.00     0.013 A 
ATOM      5  C   UNL d   1      50.696  35.125  52.774  0.00  0.00     0.001 C 
ATOM      6  C   UNL d   1      50.581  33.696  53.132  0.00  0.00     0.031 A 
ATOM      7  S   UNL d   1      51.097  33.069  53.284  0.00  0.00    -0.068 SA
ATOM      8  C   UNL d   1      49.727  33.671  53.146  0.00  0.00     0.007 C 
BRANCH   3   9
ATOM      9  C   UNL d   1      52.473  34.692  52.867  0.00  0.00     0.299 C 
ATOM     10  O   UNL d   1      52.716  35.228  53.472  0.00  0.00    -0.264 OA
ATOM     11  N   UNL d   1      52.889  34.689  52.118  0.00  0.00    -0.102 N 
ENDBRANCH   3   9
ENDBRANCH   1   2
BRANCH   1  12
ATOM     12  C   UNL d   1      52.637  32.152  53.054  0.00  0.00     0.224 C 
ATOM     13  N   UNL d   1      53.376  31.393  53.614  0.00  0.00    -0.179 NA
ATOM     14  C   UNL d   1      53.817  31.655  54.238  0.00  0.00     0.281 C 
ATOM     15  O   UNL d   1      54.314  31.144  54.614  0.00  0.00    -0.265 OA
ATOM     16  S   UNL d   1      52.193  31.894  52.428  0.00  0.00    -0.037 SA
BRANCH  14  17
ATOM     17  C   UNL d   1      53.765  32.413  54.484  0.00  0.00     0.068 C 
BRANCH  17  18
ATOM     18  C   UNL d   1      54.122  32.617  55.183  0.00  0.00     0.073 C 
BRANCH  18  19
ATOM     19  C   UNL d   1      54.448  33.362  55.239  0.00  0.00     0.296 C 
ATOM     20  O   UNL d   1      54.089  33.918  55.655  0.00  0.00    -0.259 OA
BRANCH  19  21
ATOM     21  O   UNL d   1      55.148  33.522  54.861  0.00  0.00    -0.296 OA
ATOM     22  C   UNL d   1      55.603  34.153  55.114  0.00  0.00     0.185 C 
ENDBRANCH  19  21
ENDBRANCH  18  19
ENDBRANCH  17  18
ENDBRANCH  14  17
ENDBRANCH   1  12
TORSDOF 7
ENDMDL
MODEL 6
REMARK VINA RESULT:      -3.7      1.783      2.657
REMARK  7 active torsions:
REMARK  status: ('A' for Active; 'I' for Inactive)
REMARK    1  A    between atoms: N_4  and  C_1 
REMARK    2  A    between atoms: C_9  and  C_2 
REMARK    3  A    between atoms: C_7  and  N_4 
REMARK       I    between atoms: C_10  and  N_8 
REMARK    4  A    between atoms: C_17  and  C_10 
REMARK    5  A    between atoms: C_12  and  C_18 
REMARK    6  A    between atoms: O_20  and  C_12 
REMARK    7  A    between atoms: C_18  and  C_17 
ROOT
ATOM      1  N   UNL d   1      53.404  32.450  53.492  0.00  0.00    -0.211 NA
ENDROOT
BRANCH   1   2
ATOM      2  C   UNL d   1      53.128  33.189  53.790  0.00  0.00     0.118 A 
ATOM      3  C   UNL d   1      52.462  33.623  53.501  0.00  0.00     0.084 A 
ATOM      4  C   UNL d   1      52.395  34.310  53.953  0.00  0.00     0.013 A 
ATOM      5  C   UNL d   1      51.798  34.916  53.856  0.00  0.00     0.001 C 
ATOM      6  C   UNL d   1      52.985  34.321  54.504  0.00  0.00     0.031 A 
ATOM      7  S   UNL d   1      53.441  33.639  54.415  0.00  0.00    -0.068 SA
ATOM      8  C   UNL d   1      53.101  34.944  55.077  0.00  0.00     0.007 C 
BRANCH   3   9
ATOM      9  C   UNL d   1      51.954  33.389  52.858  0.00  0.00     0.299 C 
ATOM     10  O   UNL d   1      52.232  33.435  52.062  0.00  0.00    -0.264 OA
ATOM     11  N   UNL d   1      51.159  33.107  53.008  0.00  0.00    -0.102 N 
ENDBRANCH   3   9
ENDBRANCH   1   2
BRANCH   1  12
ATOM     12  C   UNL d   1      54.192  32.315  53.437  0.00  0.00     0.224 C 
ATOM     13  N   UNL d   1      54.581  31.186  53.353  0.00  0.00    -0.179 NA
ATOM     14  C   UNL d   1      54.047  30.580  53.353  0.00  0.00     0.281 C 
ATOM     15  O   UNL d   1      54.309  29.820  53.296  0.00  0.00    -0.265 OA
ATOM     16  S   UNL d   1      54.723  32.925  53.437  0.00  0.00    -0.037 SA
BRANCH  14  17
ATOM     17  C   UNL d   1      53.264  30.727  53.408  0.00  0.00     0.068 C 
BRANCH  17  18
ATOM     18  C   UNL d   1      52.745  30.157  53.155  0.00  0.00     0.073 C 
BRANCH  18  19
ATOM     19  C   UNL d   1      52.168  29.912  53.675  0.00  0.00     0.296 C 
ATOM     20  O   UNL d   1      52.361  29.500  54.311  0.00  0.00    -0.259 OA
BRANCH  19  21
ATOM     21  O   UNL d   1      51.392  30.097  53.529  0.00  0.00    -0.296 OA
ATOM     22  C   UNL d   1      50.806  29.577  53.764  0.00  0.00     0.185 C 
ENDBRANCH  19  21
ENDBRANCH  18  19
ENDBRANCH  17  18
ENDBRANCH  14  17
ENDBRANCH   1  12
TORSDOF 7
ENDMDL
MODEL 7
REMARK VINA RESULT:      -3.5      1.645      3.006
REMARK  7 active torsions:
REMARK  status: ('A' for Active; 'I' for Inactive)
REMARK    1  A    between atoms: N_4  and  C_1 
REMARK    2  A    between atoms: C_9  and  C_2 
REMARK    3  A    between atoms: C_7  and  N_4 
REMARK       I    between atoms: C_10  and  N_8 
REMARK    4  A    between atoms: C_17  and  C_10 
REMARK    5  A    between atoms: C_12  and  C_18 
REMARK    6  A    between atoms: O_20  and  C_12 
REMARK    7  A    between atoms: C_18  and  C_17 
ROOT
ATOM      1  N   UNL d   1      52.667  33.501  53.343  0.00  0.00    -0.211 NA
ENDROOT
BRANCH   1   2
ATOM      2  C   UNL d   1      52.438  32.692  53.277  0.00  0.00     0.118 A 
ATOM      3  C   UNL d   1      52.959  32.039  53.140  0.00  0.00     0.084 A 
ATOM      4  C   UNL d   1      52.499  31.354  53.115  0.00  0.00     0.013 A 
ATOM      5  C   UNL d   1      52.793  30.560  52.988  0.00  0.00     0.001 C 
ATOM      6  C   UNL d   1      51.725  31.552  53.229  0.00  0.00     0.031 A 
ATOM      7  S   UNL d   1      51.674  32.369  53.330  0.00  0.00    -0.068 SA
ATOM      8  C   UNL d   1      51.079  30.993  53.240  0.00  0.00     0.007 C 
BRANCH   3   9
ATOM      9  C   UNL d   1      53.804  32.085  53.046  0.00  0.00     0.299 C 
ATOM     10  O   UNL d   1      54.134  32.556  52.427  0.00  0.00    -0.264 OA
ATOM     11  N   UNL d   1      54.327  31.658  53.572  0.00  0.00    -0.102 N 
ENDBRANCH   3   9
ENDBRANCH   1   2
BRANCH   1  12
ATOM     12  C   UNL d   1      52.181  34.074  53.063  0.00  0.00     0.224 C 
ATOM     13  N   UNL d   1      52.213  35.158  53.571  0.00  0.00    -0.179 NA
ATOM     14  C   UNL d   1      52.722  35.296  54.184  0.00  0.00     0.281 C 
ATOM     15  O   UNL d   1      52.743  36.026  54.525  0.00  0.00    -0.265 OA
ATOM     16  S   UNL d   1      51.674  33.931  52.450  0.00  0.00    -0.037 SA
BRANCH  14  17
ATOM     17  C   UNL d   1      53.201  34.717  54.453  0.00  0.00     0.068 C 
BRANCH  17  18
ATOM     18  C   UNL d   1      53.557  34.815  55.176  0.00  0.00     0.073 C 
BRANCH  18  19
ATOM     19  C   UNL d   1      54.289  34.475  55.287  0.00  0.00     0.296 C 
ATOM     20  O   UNL d   1      54.898  34.699  54.849  0.00  0.00    -0.259 OA
BRANCH  19  21
ATOM     21  O   UNL d   1      54.383  33.903  55.854  0.00  0.00    -0.296 OA
ATOM     22  C   UNL d   1      55.133  33.620  56.016  0.00  0.00     0.185 C 
ENDBRANCH  19  21
ENDBRANCH  18  19
ENDBRANCH  17  18
ENDBRANCH  14  17
ENDBRANCH   1  12
TORSDOF 7
ENDMDL
MODEL 8
REMARK VINA RESULT:      -3.3      1.886      4.170
REMARK  7 active torsions:
REMARK  status: ('A' for Active; 'I' for Inactive)
REMARK    1  A    between atoms: N_4  and  C_1 
REMARK    2  A    between atoms: C_9  and  C_2 
REMARK    3  A    between atoms: C_7  and  N_4 
REMARK       I    between atoms: C_10  and  N_8 
REMARK    4  A    between atoms: C_17  and  C_10 
REMARK    5  A    between atoms: C_12  and  C_18 
REMARK    6  A    between atoms: O_20  and  C_12 
REMARK    7  A    between atoms: C_18  and  C_17 
ROOT
ATOM      1  N   UNL d   1      53.154  32.538  53.882  0.00  0.00    -0.211 NA
ENDROOT
BRANCH   1   2
ATOM      2  C   UNL d   1      53.938  32.850  53.870  0.00  0.00     0.118 A 
ATOM      3  C   UNL d   1      54.286  33.338  54.467  0.00  0.00     0.084 A 
ATOM      4  C   UNL d   1      55.057  33.513  54.228  0.00  0.00     0.013 A 
ATOM      5  C   UNL d   1      55.617  33.993  54.663  0.00  0.00     0.001 C 
ATOM      6  C   UNL d   1      55.200  33.158  53.517  0.00  0.00     0.031 A 
ATOM      7  S   UNL d   1      54.522  32.749  53.286  0.00  0.00    -0.068 SA
ATOM      8  C   UNL d   1      55.938  33.211  53.090  0.00  0.00     0.007 C 
BRANCH   3   9
ATOM      9  C   UNL d   1      53.907  33.599  55.183  0.00  0.00     0.299 C 
ATOM     10  O   UNL d   1      53.939  33.118  55.877  0.00  0.00    -0.264 OA
ATOM     11  N   UNL d   1      53.492  34.347  55.211  0.00  0.00    -0.102 N 
ENDBRANCH   3   9
ENDBRANCH   1   2
BRANCH   1  12
ATOM     12  C   UNL d   1      53.036  31.760  53.727  0.00  0.00     0.224 C 
ATOM     13  N   UNL d   1      51.985  31.415  53.268  0.00  0.00    -0.179 NA
ATOM     14  C   UNL d   1      51.414  31.968  53.123  0.00  0.00     0.281 C 
ATOM     15  O   UNL d   1      50.707  31.736  52.814  0.00  0.00    -0.265 OA
ATOM     16  S   UNL d   1      53.611  31.210  53.874  0.00  0.00    -0.037 SA
BRANCH  14  17
ATOM     17  C   UNL d   1      51.544  32.740  53.281  0.00  0.00     0.068 C 
BRANCH  17  18
ATOM     18  C   UNL d   1      50.912  33.249  53.268  0.00  0.00     0.073 C 
BRANCH  18  19
ATOM     19  C   UNL d   1      51.023  33.983  52.932  0.00  0.00     0.296 C 
ATOM     20  O   UNL d   1      51.356  34.046  52.227  0.00  0.00    -0.259 OA
BRANCH  19  21
ATOM     21  O   UNL d   1      50.788  34.647  53.334  0.00  0.00    -0.296 OA
ATOM     22  C   UNL d   1      50.058  34.977  53.166  0.00  0.00     0.185 C 
ENDBRANCH  19  21
ENDBRANCH  18  19
ENDBRANCH  17  18
ENDBRANCH  14  17
ENDBRANCH   1  12
TORSDOF 7
ENDMDL
