MODEL 1
REMARK VINA RESULT:      -7.3      0.000      0.000
REMARK  3 active torsions:
REMARK  status: ('A' for Active; 'I' for Inactive)
REMARK    1  A    between atoms: N_3  and  C_1 
REMARK       I    between atoms: C_5  and  N_3 
REMARK    2  A    between atoms: C_6  and  C_5 
REMARK    3  A    between atoms: O_19  and  C_17 
ROOT
ATOM      1  N   UNL d   1     -47.934  12.825  23.474  0.00  0.00    -0.181 NA
ATOM      2  C   UNL d   1     -48.390  12.929  22.795  0.00  0.00     0.306 C 
ATOM      3  O   UNL d   1     -48.165  12.543  22.081  0.00  0.00    -0.263 OA
ENDROOT
BRANCH   1   4
ATOM      4  C   UNL d   1     -47.264  12.348  23.464  0.00  0.00     0.197 A 
ATOM      5  N   UNL d   1     -47.253  11.544  23.665  0.00  0.00    -0.221 NA
ATOM      6  C   UNL d   1     -46.469  11.286  23.578  0.00  0.00     0.090 A 
ATOM      7  C   UNL d   1     -46.125  10.547  23.698  0.00  0.00     0.022 A 
ATOM      8  C   UNL d   1     -46.017  11.927  23.328  0.00  0.00     0.052 A 
ATOM      9  C   UNL d   1     -45.312  10.460  23.562  0.00  0.00     0.026 A 
ATOM     10  C   UNL d   1     -44.864  11.094  23.315  0.00  0.00     0.095 A 
ATOM     11  C   UNL d   1     -45.203  11.839  23.192  0.00  0.00     0.032 A 
ATOM     12  S   UNL d   1     -46.513  12.570  23.262  0.00  0.00    -0.047 SA
BRANCH  10  13
ATOM     13  O   UNL d   1     -44.025  11.011  23.173  0.00  0.00    -0.328 OA
ATOM     14  C   UNL d   1     -43.647  10.293  23.384  0.00  0.00     0.181 C 
ENDBRANCH  10  13
ENDBRANCH   1   4
BRANCH   2  15
ATOM     15  C   UNL d   1     -49.060  13.406  22.805  0.00  0.00     0.182 A 
ATOM     16  O   UNL d   1     -49.017  14.145  23.160  0.00  0.00    -0.298 OA
ATOM     17  C   UNL d   1     -49.696  14.632  23.171  0.00  0.00     0.123 A 
ATOM     18  C   UNL d   1     -49.661  15.379  23.527  0.00  0.00     0.027 A 
ATOM     19  C   UNL d   1     -50.390  14.366  22.831  0.00  0.00     0.123 A 
ATOM     20  C   UNL d   1     -50.336  15.853  23.535  0.00  0.00     0.002 A 
ATOM     21  C   UNL d   1     -51.029  15.599  23.200  0.00  0.00     0.002 A 
ATOM     22  C   UNL d   1     -51.064  14.852  22.844  0.00  0.00     0.027 A 
ATOM     23  O   UNL d   1     -50.425  13.618  22.475  0.00  0.00    -0.301 OA
ATOM     24  C   UNL d   1     -49.753  13.149  22.469  0.00  0.00     0.152 A 
ENDBRANCH   2  15
TORSDOF 3
ENDMDL
MODEL 2
REMARK VINA RESULT:      -7.0      1.214      5.575
REMARK  3 active torsions:
REMARK  status: ('A' for Active; 'I' for Inactive)
REMARK    1  A    between atoms: N_3  and  C_1 
REMARK       I    between atoms: C_5  and  N_3 
REMARK    2  A    between atoms: C_6  and  C_5 
REMARK    3  A    between atoms: O_19  and  C_17 
ROOT
ATOM      1  N   UNL d   1     -47.069  12.875  22.223  0.00  0.00    -0.181 NA
ATOM      2  C   UNL d   1     -46.669  12.726  22.928  0.00  0.00     0.306 C 
ATOM      3  O   UNL d   1     -47.007  12.977  23.657  0.00  0.00    -0.263 OA
ENDROOT
BRANCH   1   4
ATOM      4  C   UNL d   1     -47.793  13.266  22.222  0.00  0.00     0.197 A 
ATOM      5  N   UNL d   1     -48.488  12.971  21.879  0.00  0.00    -0.221 NA
ATOM      6  C   UNL d   1     -49.078  13.541  22.006  0.00  0.00     0.090 A 
ATOM      7  C   UNL d   1     -49.874  13.554  21.792  0.00  0.00     0.022 A 
ATOM      8  C   UNL d   1     -48.741  14.167  22.420  0.00  0.00     0.052 A 
ATOM      9  C   UNL d   1     -50.331  14.213  22.002  0.00  0.00     0.026 A 
ATOM     10  C   UNL d   1     -49.998  14.833  22.412  0.00  0.00     0.095 A 
ATOM     11  C   UNL d   1     -49.199  14.826  22.630  0.00  0.00     0.032 A 
ATOM     12  S   UNL d   1     -47.956  13.988  22.546  0.00  0.00    -0.047 SA
BRANCH  10  13
ATOM     13  O   UNL d   1     -50.463  15.516  22.632  0.00  0.00    -0.328 OA
ATOM     14  C   UNL d   1     -50.760  15.569  23.415  0.00  0.00     0.181 C 
ENDBRANCH  10  13
ENDBRANCH   1   4
BRANCH   2  15
ATOM     15  C   UNL d   1     -45.945  12.335  22.929  0.00  0.00     0.182 A 
ATOM     16  O   UNL d   1     -45.889  11.603  23.296  0.00  0.00    -0.298 OA
ATOM     17  C   UNL d   1     -45.155  11.204  23.299  0.00  0.00     0.123 A 
ATOM     18  C   UNL d   1     -45.090  10.464  23.667  0.00  0.00     0.027 A 
ATOM     19  C   UNL d   1     -44.507  11.547  22.939  0.00  0.00     0.123 A 
ATOM     20  C   UNL d   1     -44.362  10.077  23.665  0.00  0.00     0.002 A 
ATOM     21  C   UNL d   1     -43.713  10.408  23.311  0.00  0.00     0.002 A 
ATOM     22  C   UNL d   1     -43.777  11.148  22.943  0.00  0.00     0.027 A 
ATOM     23  O   UNL d   1     -44.572  12.287  22.571  0.00  0.00    -0.301 OA
ATOM     24  C   UNL d   1     -45.296  12.670  22.573  0.00  0.00     0.152 A 
ENDBRANCH   2  15
TORSDOF 3
ENDMDL
MODEL 3
REMARK VINA RESULT:      -6.6      1.281      1.479
REMARK  3 active torsions:
REMARK  status: ('A' for Active; 'I' for Inactive)
REMARK    1  A    between atoms: N_3  and  C_1 
REMARK       I    between atoms: C_5  and  N_3 
REMARK    2  A    between atoms: C_6  and  C_5 
REMARK    3  A    between atoms: O_19  and  C_17 
ROOT
ATOM      1  N   UNL d   1     -47.340  13.644  23.053  0.00  0.00    -0.181 NA
ATOM      2  C   UNL d   1     -48.047  13.293  22.816  0.00  0.00     0.306 C 
ATOM      3  O   UNL d   1     -48.026  12.597  22.342  0.00  0.00    -0.263 OA
ENDROOT
BRANCH   1   4
ATOM      4  C   UNL d   1     -46.615  13.324  22.834  0.00  0.00     0.197 A 
ATOM      5  N   UNL d   1     -46.238  12.698  23.223  0.00  0.00    -0.221 NA
ATOM      6  C   UNL d   1     -45.526  12.557  22.819  0.00  0.00     0.090 A 
ATOM      7  C   UNL d   1     -44.927  12.007  22.950  0.00  0.00     0.022 A 
ATOM      8  C   UNL d   1     -45.479  13.093  22.196  0.00  0.00     0.052 A 
ATOM      9  C   UNL d   1     -44.273  12.003  22.442  0.00  0.00     0.026 A 
ATOM     10  C   UNL d   1     -44.225  12.533  21.825  0.00  0.00     0.095 A 
ATOM     11  C   UNL d   1     -44.824  13.088  21.687  0.00  0.00     0.032 A 
ATOM     12  S   UNL d   1     -46.149  13.556  22.215  0.00  0.00    -0.047 SA
BRANCH  10  13
ATOM     13  O   UNL d   1     -43.553  12.534  21.297  0.00  0.00    -0.328 OA
ATOM     14  C   UNL d   1     -42.850  12.926  21.536  0.00  0.00     0.181 C 
ENDBRANCH  10  13
ENDBRANCH   1   4
BRANCH   2  15
ATOM     15  C   UNL d   1     -48.773  13.613  23.035  0.00  0.00     0.182 A 
ATOM     16  O   UNL d   1     -48.863  14.429  23.038  0.00  0.00    -0.298 OA
ATOM     17  C   UNL d   1     -49.598  14.756  23.261  0.00  0.00     0.123 A 
ATOM     18  C   UNL d   1     -49.698  15.579  23.266  0.00  0.00     0.027 A 
ATOM     19  C   UNL d   1     -50.215  14.263  23.471  0.00  0.00     0.123 A 
ATOM     20  C   UNL d   1     -50.427  15.895  23.487  0.00  0.00     0.002 A 
ATOM     21  C   UNL d   1     -51.045  15.414  23.697  0.00  0.00     0.002 A 
ATOM     22  C   UNL d   1     -50.945  14.591  23.692  0.00  0.00     0.027 A 
ATOM     23  O   UNL d   1     -50.115  13.440  23.465  0.00  0.00    -0.301 OA
ATOM     24  C   UNL d   1     -49.389  13.128  23.246  0.00  0.00     0.152 A 
ENDBRANCH   2  15
TORSDOF 3
ENDMDL
MODEL 4
REMARK VINA RESULT:      -6.1      1.582      5.502
REMARK  3 active torsions:
REMARK  status: ('A' for Active; 'I' for Inactive)
REMARK    1  A    between atoms: N_3  and  C_1 
REMARK       I    between atoms: C_5  and  N_3 
REMARK    2  A    between atoms: C_6  and  C_5 
REMARK    3  A    between atoms: O_19  and  C_17 
ROOT
ATOM      1  N   UNL d   1     -47.324  13.061  22.013  0.00  0.00    -0.181 NA
ATOM      2  C   UNL d   1     -46.824  13.044  22.668  0.00  0.00     0.306 C 
ATOM      3  O   UNL d   1     -47.109  13.313  23.413  0.00  0.00    -0.263 OA
ENDROOT
BRANCH   1   4
ATOM      4  C   UNL d   1     -48.097  13.337  22.077  0.00  0.00     0.197 A 
ATOM      5  N   UNL d   1     -48.774  12.886  21.917  0.00  0.00    -0.221 NA
ATOM      6  C   UNL d   1     -49.427  13.379  22.053  0.00  0.00     0.090 A 
ATOM      7  C   UNL d   1     -50.236  13.237  21.986  0.00  0.00     0.022 A 
ATOM      8  C   UNL d   1     -49.145  14.115  22.292  0.00  0.00     0.052 A 
ATOM      9  C   UNL d   1     -50.764  13.852  22.164  0.00  0.00     0.026 A 
ATOM     10  C   UNL d   1     -50.485  14.579  22.400  0.00  0.00     0.095 A 
ATOM     11  C   UNL d   1     -49.673  14.729  22.470  0.00  0.00     0.032 A 
ATOM     12  S   UNL d   1     -48.331  14.077  22.303  0.00  0.00    -0.047 SA
BRANCH  10  13
ATOM     13  O   UNL d   1     -51.023  15.218  22.585  0.00  0.00    -0.328 OA
ATOM     14  C   UNL d   1     -51.061  15.500  23.375  0.00  0.00     0.181 C 
ENDBRANCH  10  13
ENDBRANCH   1   4
BRANCH   2  15
ATOM     15  C   UNL d   1     -46.051  12.769  22.603  0.00  0.00     0.182 A 
ATOM     16  O   UNL d   1     -45.554  13.109  22.045  0.00  0.00    -0.298 OA
ATOM     17  C   UNL d   1     -44.769  12.832  21.977  0.00  0.00     0.123 A 
ATOM     18  C   UNL d   1     -44.260  13.170  21.417  0.00  0.00     0.027 A 
ATOM     19  C   UNL d   1     -44.509  12.229  22.464  0.00  0.00     0.123 A 
ATOM     20  C   UNL d   1     -43.486  12.890  21.356  0.00  0.00     0.002 A 
ATOM     21  C   UNL d   1     -43.218  12.293  21.834  0.00  0.00     0.002 A 
ATOM     22  C   UNL d   1     -43.727  11.955  22.395  0.00  0.00     0.027 A 
ATOM     23  O   UNL d   1     -45.018  11.891  23.024  0.00  0.00    -0.301 OA
ATOM     24  C   UNL d   1     -45.786  12.170  23.083  0.00  0.00     0.152 A 
ENDBRANCH   2  15
TORSDOF 3
ENDMDL
MODEL 5
REMARK VINA RESULT:      -5.8      1.707      2.294
REMARK  3 active torsions:
REMARK  status: ('A' for Active; 'I' for Inactive)
REMARK    1  A    between atoms: N_3  and  C_1 
REMARK       I    between atoms: C_5  and  N_3 
REMARK    2  A    between atoms: C_6  and  C_5 
REMARK    3  A    between atoms: O_19  and  C_17 
ROOT
ATOM      1  N   UNL d   1     -46.731  13.018  22.979  0.00  0.00    -0.181 NA
ATOM      2  C   UNL d   1     -47.391  12.939  22.493  0.00  0.00     0.306 C 
ATOM      3  O   UNL d   1     -47.289  12.703  21.691  0.00  0.00    -0.263 OA
ENDROOT
BRANCH   1   4
ATOM      4  C   UNL d   1     -45.974  12.871  22.693  0.00  0.00     0.197 A 
ATOM      5  N   UNL d   1     -45.495  12.238  22.928  0.00  0.00    -0.221 NA
ATOM      6  C   UNL d   1     -44.785  12.302  22.503  0.00  0.00     0.090 A 
ATOM      7  C   UNL d   1     -44.107  11.834  22.506  0.00  0.00     0.022 A 
ATOM      8  C   UNL d   1     -44.839  12.966  22.019  0.00  0.00     0.052 A 
ATOM      9  C   UNL d   1     -43.477  12.045  22.010  0.00  0.00     0.026 A 
ATOM     10  C   UNL d   1     -43.530  12.702  21.531  0.00  0.00     0.095 A 
ATOM     11  C   UNL d   1     -44.209  13.176  21.523  0.00  0.00     0.032 A 
ATOM     12  S   UNL d   1     -45.570  13.305  22.143  0.00  0.00    -0.047 SA
BRANCH  10  13
ATOM     13  O   UNL d   1     -42.884  12.925  21.016  0.00  0.00    -0.328 OA
ATOM     14  C   UNL d   1     -42.152  13.149  21.360  0.00  0.00     0.181 C 
ENDBRANCH  10  13
ENDBRANCH   1   4
BRANCH   2  15
ATOM     15  C   UNL d   1     -48.149  13.086  22.779  0.00  0.00     0.182 A 
ATOM     16  O   UNL d   1     -48.682  12.464  22.830  0.00  0.00    -0.298 OA
ATOM     17  C   UNL d   1     -49.452  12.610  23.120  0.00  0.00     0.123 A 
ATOM     18  C   UNL d   1     -49.997  11.988  23.174  0.00  0.00     0.027 A 
ATOM     19  C   UNL d   1     -49.661  13.366  23.349  0.00  0.00     0.123 A 
ATOM     20  C   UNL d   1     -50.754  12.141  23.462  0.00  0.00     0.002 A 
ATOM     21  C   UNL d   1     -50.972  12.887  23.692  0.00  0.00     0.002 A 
ATOM     22  C   UNL d   1     -50.427  13.509  23.638  0.00  0.00     0.027 A 
ATOM     23  O   UNL d   1     -49.116  13.989  23.295  0.00  0.00    -0.301 OA
ATOM     24  C   UNL d   1     -48.363  13.835  23.009  0.00  0.00     0.152 A 
ENDBRANCH   2  15
TORSDOF 3
ENDMDL
MODEL 6
REMARK VINA RESULT:      -4.8      9.212     11.096
REMARK  3 active torsions:
REMARK  status: ('A' for Active; 'I' for Inactive)
REMARK    1  A    between atoms: N_3  and  C_1 
REMARK       I    between atoms: C_5  and  N_3 
REMARK    2  A    between atoms: C_6  and  C_5 
REMARK    3  A    between atoms: O_19  and  C_17 
ROOT
ATOM      1  N   UNL d   1     -38.480  15.200  18.758  0.00  0.00    -0.181 NA
ATOM      2  C   UNL d   1     -39.041  15.097  18.164  0.00  0.00     0.306 C 
ATOM      3  O   UNL d   1     -39.850  14.985  18.371  0.00  0.00    -0.263 OA
ENDROOT
BRANCH   1   4
ATOM      4  C   UNL d   1     -38.699  15.196  19.552  0.00  0.00     0.197 A 
ATOM      5  N   UNL d   1     -39.114  14.583  19.924  0.00  0.00    -0.221 NA
ATOM      6  C   UNL d   1     -39.215  14.809  20.717  0.00  0.00     0.090 A 
ATOM      7  C   UNL d   1     -39.583  14.426  21.347  0.00  0.00     0.022 A 
ATOM      8  C   UNL d   1     -38.866  15.548  20.817  0.00  0.00     0.052 A 
ATOM      9  C   UNL d   1     -39.595  14.800  22.087  0.00  0.00     0.026 A 
ATOM     10  C   UNL d   1     -39.250  15.530  22.186  0.00  0.00     0.095 A 
ATOM     11  C   UNL d   1     -38.879  15.921  21.557  0.00  0.00     0.032 A 
ATOM     12  S   UNL d   1     -38.554  15.774  20.098  0.00  0.00    -0.047 SA
BRANCH  10  13
ATOM     13  O   UNL d   1     -39.258  15.922  22.946  0.00  0.00    -0.328 OA
ATOM     14  C   UNL d   1     -38.850  15.568  23.589  0.00  0.00     0.181 C 
ENDBRANCH  10  13
ENDBRANCH   1   4
BRANCH   2  15
ATOM     15  C   UNL d   1     -38.822  15.100  17.370  0.00  0.00     0.182 A 
ATOM     16  O   UNL d   1     -38.605  14.393  17.015  0.00  0.00    -0.298 OA
ATOM     17  C   UNL d   1     -38.382  14.393  16.210  0.00  0.00     0.123 A 
ATOM     18  C   UNL d   1     -38.161  13.683  15.843  0.00  0.00     0.027 A 
ATOM     19  C   UNL d   1     -38.384  15.094  15.790  0.00  0.00     0.123 A 
ATOM     20  C   UNL d   1     -37.942  13.693  15.048  0.00  0.00     0.002 A 
ATOM     21  C   UNL d   1     -37.941  14.382  14.623  0.00  0.00     0.002 A 
ATOM     22  C   UNL d   1     -38.162  15.092  14.989  0.00  0.00     0.027 A 
ATOM     23  O   UNL d   1     -38.605  15.804  16.157  0.00  0.00    -0.301 OA
ATOM     24  C   UNL d   1     -38.822  15.793  16.947  0.00  0.00     0.152 A 
ENDBRANCH   2  15
TORSDOF 3
ENDMDL
MODEL 7
REMARK VINA RESULT:      -4.6      8.913      9.607
REMARK  3 active torsions:
REMARK  status: ('A' for Active; 'I' for Inactive)
REMARK    1  A    between atoms: N_3  and  C_1 
REMARK       I    between atoms: C_5  and  N_3 
REMARK    2  A    between atoms: C_6  and  C_5 
REMARK    3  A    between atoms: O_19  and  C_17 
ROOT
ATOM      1  N   UNL d   1     -39.835  15.260  19.758  0.00  0.00    -0.181 NA
ATOM      2  C   UNL d   1     -39.463  14.987  19.075  0.00  0.00     0.306 C 
ATOM      3  O   UNL d   1     -38.810  14.461  19.141  0.00  0.00    -0.263 OA
ENDROOT
BRANCH   1   4
ATOM      4  C   UNL d   1     -39.577  15.026  20.503  0.00  0.00     0.197 A 
ATOM      5  N   UNL d   1     -39.164  15.510  21.034  0.00  0.00    -0.221 NA
ATOM      6  C   UNL d   1     -39.016  15.052  21.710  0.00  0.00     0.090 A 
ATOM      7  C   UNL d   1     -38.629  15.235  22.414  0.00  0.00     0.022 A 
ATOM      8  C   UNL d   1     -39.335  14.304  21.585  0.00  0.00     0.052 A 
ATOM      9  C   UNL d   1     -38.568  14.650  22.998  0.00  0.00     0.026 A 
ATOM     10  C   UNL d   1     -38.884  13.909  22.875  0.00  0.00     0.095 A 
ATOM     11  C   UNL d   1     -39.273  13.719  22.169  0.00  0.00     0.032 A 
ATOM     12  S   UNL d   1     -39.675  14.299  20.844  0.00  0.00    -0.047 SA
BRANCH  10  13
ATOM     13  O   UNL d   1     -38.824  13.300  23.472  0.00  0.00    -0.328 OA
ATOM     14  C   UNL d   1     -38.064  13.020  23.690  0.00  0.00     0.181 C 
ENDBRANCH  10  13
ENDBRANCH   1   4
BRANCH   2  15
ATOM     15  C   UNL d   1     -39.722  15.222  18.330  0.00  0.00     0.182 A 
ATOM     16  O   UNL d   1     -40.521  15.166  18.151  0.00  0.00    -0.298 OA
ATOM     17  C   UNL d   1     -40.787  15.404  17.395  0.00  0.00     0.123 A 
ATOM     18  C   UNL d   1     -41.592  15.351  17.206  0.00  0.00     0.027 A 
ATOM     19  C   UNL d   1     -40.250  15.686  16.848  0.00  0.00     0.123 A 
ATOM     20  C   UNL d   1     -41.846  15.587  16.458  0.00  0.00     0.002 A 
ATOM     21  C   UNL d   1     -41.322  15.869  15.908  0.00  0.00     0.002 A 
ATOM     22  C   UNL d   1     -40.516  15.922  16.097  0.00  0.00     0.027 A 
ATOM     23  O   UNL d   1     -39.444  15.739  17.037  0.00  0.00    -0.301 OA
ATOM     24  C   UNL d   1     -39.194  15.504  17.781  0.00  0.00     0.152 A 
ENDBRANCH   2  15
TORSDOF 3
ENDMDL
MODEL 8
REMARK VINA RESULT:      -4.4      2.908      5.894
REMARK  3 active torsions:
REMARK  status: ('A' for Active; 'I' for Inactive)
REMARK    1  A    between atoms: N_3  and  C_1 
REMARK       I    between atoms: C_5  and  N_3 
REMARK    2  A    between atoms: C_6  and  C_5 
REMARK    3  A    between atoms: O_19  and  C_17 
ROOT
ATOM      1  N   UNL d   1     -44.723  13.248  22.427  0.00  0.00    -0.181 NA
ATOM      2  C   UNL d   1     -44.420  12.984  21.708  0.00  0.00     0.306 C 
ATOM      3  O   UNL d   1     -44.928  12.595  21.161  0.00  0.00    -0.263 OA
ENDROOT
BRANCH   1   4
ATOM      4  C   UNL d   1     -45.516  13.137  22.618  0.00  0.00     0.197 A 
ATOM      5  N   UNL d   1     -45.808  12.513  23.079  0.00  0.00    -0.221 NA
ATOM      6  C   UNL d   1     -46.630  12.617  23.130  0.00  0.00     0.090 A 
ATOM      7  C   UNL d   1     -47.209  12.173  23.513  0.00  0.00     0.022 A 
ATOM      8  C   UNL d   1     -46.827  13.294  22.705  0.00  0.00     0.052 A 
ATOM      9  C   UNL d   1     -47.998  12.422  23.461  0.00  0.00     0.026 A 
ATOM     10  C   UNL d   1     -48.194  13.092  23.041  0.00  0.00     0.095 A 
ATOM     11  C   UNL d   1     -47.616  13.542  22.654  0.00  0.00     0.032 A 
ATOM     12  S   UNL d   1     -46.138  13.603  22.396  0.00  0.00    -0.047 SA
BRANCH  10  13
ATOM     13  O   UNL d   1     -49.006  13.354  22.984  0.00  0.00    -0.328 OA
ATOM     14  C   UNL d   1     -49.615  12.849  23.263  0.00  0.00     0.181 C 
ENDBRANCH  10  13
ENDBRANCH   1   4
BRANCH   2  15
ATOM     15  C   UNL d   1     -43.627  13.095  21.517  0.00  0.00     0.182 A 
ATOM     16  O   UNL d   1     -43.349  13.859  21.404  0.00  0.00    -0.298 OA
ATOM     17  C   UNL d   1     -42.545  13.976  21.210  0.00  0.00     0.123 A 
ATOM     18  C   UNL d   1     -42.256  14.744  21.094  0.00  0.00     0.027 A 
ATOM     19  C   UNL d   1     -42.049  13.330  21.136  0.00  0.00     0.123 A 
ATOM     20  C   UNL d   1     -41.461  14.850  20.903  0.00  0.00     0.002 A 
ATOM     21  C   UNL d   1     -40.960  14.217  20.827  0.00  0.00     0.002 A 
ATOM     22  C   UNL d   1     -41.249  13.448  20.943  0.00  0.00     0.027 A 
ATOM     23  O   UNL d   1     -42.338  12.562  21.252  0.00  0.00    -0.301 OA
ATOM     24  C   UNL d   1     -43.129  12.458  21.442  0.00  0.00     0.152 A 
ENDBRANCH   2  15
TORSDOF 3
ENDMDL
