MODEL 1
REMARK VINA RESULT:     -12.2      0.000      0.000
REMARK  2 active torsions:
REMARK  status: ('A' for Active; 'I' for Inactive)
REMARK    1  A    between atoms: C_8  and  C_2 
REMARK    2  A    between atoms: C_9  and  C_4 
ROOT
ATOM      1  N   UNL d   1      51.955  32.186  52.787  0.00  0.00    -0.246 NA
ATOM      2  C   UNL d   1      53.232  32.691  53.702  0.00  0.00     0.003 A 
ATOM      3  C   UNL d   1      53.166  31.897  53.489  0.00  0.00     0.018 A 
ATOM      4  C   UNL d   1      52.021  32.981  53.000  0.00  0.00     0.081 A 
ATOM      5  C   UNL d   1      52.661  33.233  53.458  0.00  0.00     0.019 A 
ATOM      6  C   UNL d   1      52.527  31.645  53.031  0.00  0.00     0.081 A 
ATOM      7  C   UNL d   1      53.737  31.355  53.733  0.00  0.00     0.002 A 
ATOM      8  C   UNL d   1      52.460  30.851  52.818  0.00  0.00     0.019 A 
ATOM      9  C   UNL d   1      53.671  30.561  53.520  0.00  0.00     0.000 A 
ATOM     10  C   UNL d   1      53.032  30.308  53.062  0.00  0.00     0.002 A 
ATOM     11  C   UNL d   1      54.223  30.071  53.762  0.00  0.00     0.000 C 
ENDROOT
BRANCH   2  12
ATOM     12  C   UNL d   1      53.867  32.941  54.156  0.00  0.00     0.000 A 
ATOM     13  C   UNL d   1      53.805  32.953  54.979  0.00  0.00     0.000 A 
ATOM     14  C   UNL d   1      54.445  33.205  55.437  0.00  0.00     0.000 A 
ATOM     15  C   UNL d   1      55.144  33.446  55.071  0.00  0.00     0.000 A 
ATOM     16  C   UNL d   1      55.206  33.434  54.249  0.00  0.00     0.000 A 
ATOM     17  C   UNL d   1      54.566  33.181  53.791  0.00  0.00     0.000 A 
ENDBRANCH   2  12
BRANCH   4  18
ATOM     18  C   UNL d   1      51.450  33.523  52.756  0.00  0.00     0.021 A 
ATOM     19  C   UNL d   1      50.780  33.655  53.220  0.00  0.00     0.022 A 
ATOM     20  C   UNL d   1      50.209  34.197  52.976  0.00  0.00     0.099 A 
ATOM     21  N   UNL d   1      50.306  34.607  52.268  0.00  0.00    -0.242 NA
ATOM     22  C   UNL d   1      50.968  34.449  51.850  0.00  0.00     0.099 A 
ATOM     23  C   UNL d   1      51.547  33.933  52.047  0.00  0.00     0.022 A 
ENDBRANCH   4  18
TORSDOF 2
ENDMDL
MODEL 2
REMARK VINA RESULT:     -12.0      1.050      3.165
REMARK  2 active torsions:
REMARK  status: ('A' for Active; 'I' for Inactive)
REMARK    1  A    between atoms: C_8  and  C_2 
REMARK    2  A    between atoms: C_9  and  C_4 
ROOT
ATOM      1  N   UNL d   1      52.448  31.953  53.106  0.00  0.00    -0.246 NA
ATOM      2  C   UNL d   1      53.651  32.703  53.950  0.00  0.00     0.003 A 
ATOM      3  C   UNL d   1      53.069  33.151  53.576  0.00  0.00     0.018 A 
ATOM      4  C   UNL d   1      53.030  31.504  53.481  0.00  0.00     0.081 A 
ATOM      5  C   UNL d   1      53.632  31.879  53.903  0.00  0.00     0.019 A 
ATOM      6  C   UNL d   1      52.467  32.776  53.154  0.00  0.00     0.081 A 
ATOM      7  C   UNL d   1      53.088  33.974  53.623  0.00  0.00     0.002 A 
ATOM      8  C   UNL d   1      51.885  33.224  52.780  0.00  0.00     0.019 A 
ATOM      9  C   UNL d   1      52.506  34.423  53.249  0.00  0.00     0.000 A 
ATOM     10  C   UNL d   1      51.904  34.048  52.826  0.00  0.00     0.002 A 
ATOM     11  C   UNL d   1      52.547  35.196  53.309  0.00  0.00     0.000 C 
ENDROOT
BRANCH   2  12
ATOM     12  C   UNL d   1      54.249  33.076  54.369  0.00  0.00     0.000 A 
ATOM     13  C   UNL d   1      54.155  33.227  55.175  0.00  0.00     0.000 A 
ATOM     14  C   UNL d   1      54.758  33.602  55.597  0.00  0.00     0.000 A 
ATOM     15  C   UNL d   1      55.453  33.825  55.213  0.00  0.00     0.000 A 
ATOM     16  C   UNL d   1      55.547  33.674  54.408  0.00  0.00     0.000 A 
ATOM     17  C   UNL d   1      54.944  33.299  53.986  0.00  0.00     0.000 A 
ENDBRANCH   2  12
BRANCH   4  18
ATOM     18  C   UNL d   1      53.011  30.681  53.434  0.00  0.00     0.021 A 
ATOM     19  C   UNL d   1      53.121  30.225  54.113  0.00  0.00     0.022 A 
ATOM     20  C   UNL d   1      53.102  29.403  54.065  0.00  0.00     0.099 A 
ATOM     21  N   UNL d   1      52.972  29.034  53.339  0.00  0.00    -0.242 NA
ATOM     22  C   UNL d   1      52.871  29.513  52.708  0.00  0.00     0.099 A 
ATOM     23  C   UNL d   1      52.881  30.313  52.707  0.00  0.00     0.022 A 
ENDBRANCH   4  18
TORSDOF 2
ENDMDL
MODEL 3
REMARK VINA RESULT:     -11.4      1.219      3.827
REMARK  2 active torsions:
REMARK  status: ('A' for Active; 'I' for Inactive)
REMARK    1  A    between atoms: C_8  and  C_2 
REMARK    2  A    between atoms: C_9  and  C_4 
ROOT
ATOM      1  N   UNL d   1      53.548  32.175  54.106  0.00  0.00    -0.246 NA
ATOM      2  C   UNL d   1      52.344  33.044  53.387  0.00  0.00     0.003 A 
ATOM      3  C   UNL d   1      52.896  33.424  53.867  0.00  0.00     0.018 A 
ATOM      4  C   UNL d   1      52.996  31.794  53.625  0.00  0.00     0.081 A 
ATOM      5  C   UNL d   1      52.394  32.229  53.265  0.00  0.00     0.019 A 
ATOM      6  C   UNL d   1      53.498  32.989  54.228  0.00  0.00     0.081 A 
ATOM      7  C   UNL d   1      52.846  34.238  53.989  0.00  0.00     0.002 A 
ATOM      8  C   UNL d   1      54.050  33.369  54.708  0.00  0.00     0.019 A 
ATOM      9  C   UNL d   1      53.398  34.618  54.470  0.00  0.00     0.000 A 
ATOM     10  C   UNL d   1      54.001  34.183  54.830  0.00  0.00     0.002 A 
ATOM     11  C   UNL d   1      53.329  35.385  54.568  0.00  0.00     0.000 C 
ENDROOT
BRANCH   2  12
ATOM     12  C   UNL d   1      51.746  33.476  53.029  0.00  0.00     0.000 A 
ATOM     13  C   UNL d   1      51.013  33.551  53.401  0.00  0.00     0.000 A 
ATOM     14  C   UNL d   1      50.410  33.986  53.040  0.00  0.00     0.000 A 
ATOM     15  C   UNL d   1      50.542  34.345  52.309  0.00  0.00     0.000 A 
ATOM     16  C   UNL d   1      51.274  34.270  51.938  0.00  0.00     0.000 A 
ATOM     17  C   UNL d   1      51.877  33.835  52.298  0.00  0.00     0.000 A 
ENDBRANCH   2  12
BRANCH   4  18
ATOM     18  C   UNL d   1      53.046  30.980  53.504  0.00  0.00     0.021 A 
ATOM     19  C   UNL d   1      53.201  30.476  54.138  0.00  0.00     0.022 A 
ATOM     20  C   UNL d   1      53.250  29.663  54.017  0.00  0.00     0.099 A 
ATOM     21  N   UNL d   1      53.146  29.351  53.260  0.00  0.00    -0.242 NA
ATOM     22  C   UNL d   1      52.998  29.875  52.675  0.00  0.00     0.099 A 
ATOM     23  C   UNL d   1      52.941  30.669  52.747  0.00  0.00     0.022 A 
ENDBRANCH   4  18
TORSDOF 2
ENDMDL
MODEL 4
REMARK VINA RESULT:     -10.7      0.851      2.368
REMARK  2 active torsions:
REMARK  status: ('A' for Active; 'I' for Inactive)
REMARK    1  A    between atoms: C_8  and  C_2 
REMARK    2  A    between atoms: C_9  and  C_4 
ROOT
ATOM      1  N   UNL d   1      52.313  34.285  53.673  0.00  0.00    -0.246 NA
ATOM      2  C   UNL d   1      52.865  32.734  53.566  0.00  0.00     0.003 A 
ATOM      3  C   UNL d   1      53.250  33.276  54.053  0.00  0.00     0.018 A 
ATOM      4  C   UNL d   1      51.927  33.744  53.185  0.00  0.00     0.081 A 
ATOM      5  C   UNL d   1      52.203  32.967  53.131  0.00  0.00     0.019 A 
ATOM      6  C   UNL d   1      52.974  34.052  54.107  0.00  0.00     0.081 A 
ATOM      7  C   UNL d   1      53.912  33.042  54.487  0.00  0.00     0.002 A 
ATOM      8  C   UNL d   1      53.360  34.594  54.594  0.00  0.00     0.019 A 
ATOM      9  C   UNL d   1      54.298  33.584  54.974  0.00  0.00     0.000 A 
ATOM     10  C   UNL d   1      54.022  34.361  55.028  0.00  0.00     0.002 A 
ATOM     11  C   UNL d   1      54.918  33.339  55.372  0.00  0.00     0.000 C 
ENDROOT
BRANCH   2  12
ATOM     12  C   UNL d   1      53.139  31.963  53.512  0.00  0.00     0.000 A 
ATOM     13  C   UNL d   1      52.815  31.376  53.994  0.00  0.00     0.000 A 
ATOM     14  C   UNL d   1      53.091  30.600  53.940  0.00  0.00     0.000 A 
ATOM     15  C   UNL d   1      53.690  30.412  53.405  0.00  0.00     0.000 A 
ATOM     16  C   UNL d   1      54.013  30.998  52.924  0.00  0.00     0.000 A 
ATOM     17  C   UNL d   1      53.737  31.775  52.978  0.00  0.00     0.000 A 
ENDBRANCH   2  12
BRANCH   4  18
ATOM     18  C   UNL d   1      51.266  33.977  52.752  0.00  0.00     0.021 A 
ATOM     19  C   UNL d   1      50.538  34.076  53.128  0.00  0.00     0.022 A 
ATOM     20  C   UNL d   1      49.877  34.309  52.695  0.00  0.00     0.099 A 
ATOM     21  N   UNL d   1      49.942  34.444  51.883  0.00  0.00    -0.242 NA
ATOM     22  C   UNL d   1      50.665  34.336  51.560  0.00  0.00     0.099 A 
ATOM     23  C   UNL d   1      51.331  34.112  51.940  0.00  0.00     0.022 A 
ENDBRANCH   4  18
TORSDOF 2
ENDMDL
MODEL 5
REMARK VINA RESULT:      -9.7      1.294      3.481
REMARK  2 active torsions:
REMARK  status: ('A' for Active; 'I' for Inactive)
REMARK    1  A    between atoms: C_8  and  C_2 
REMARK    2  A    between atoms: C_9  and  C_4 
ROOT
ATOM      1  N   UNL d   1      54.188  32.038  54.198  0.00  0.00    -0.246 NA
ATOM      2  C   UNL d   1      52.851  32.738  53.530  0.00  0.00     0.003 A 
ATOM      3  C   UNL d   1      52.976  31.927  53.448  0.00  0.00     0.018 A 
ATOM      4  C   UNL d   1      54.063  32.849  54.280  0.00  0.00     0.081 A 
ATOM      5  C   UNL d   1      53.394  33.200  53.946  0.00  0.00     0.019 A 
ATOM      6  C   UNL d   1      53.645  31.577  53.782  0.00  0.00     0.081 A 
ATOM      7  C   UNL d   1      52.433  31.466  53.033  0.00  0.00     0.002 A 
ATOM      8  C   UNL d   1      53.770  30.766  53.700  0.00  0.00     0.019 A 
ATOM      9  C   UNL d   1      52.558  30.654  52.951  0.00  0.00     0.000 A 
ATOM     10  C   UNL d   1      53.227  30.304  53.285  0.00  0.00     0.002 A 
ATOM     11  C   UNL d   1      52.032  30.243  52.555  0.00  0.00     0.000 C 
ENDROOT
BRANCH   2  12
ATOM     12  C   UNL d   1      52.187  33.085  53.198  0.00  0.00     0.000 A 
ATOM     13  C   UNL d   1      52.238  33.450  52.460  0.00  0.00     0.000 A 
ATOM     14  C   UNL d   1      51.569  33.801  52.125  0.00  0.00     0.000 A 
ATOM     15  C   UNL d   1      50.850  33.785  52.530  0.00  0.00     0.000 A 
ATOM     16  C   UNL d   1      50.799  33.420  53.268  0.00  0.00     0.000 A 
ATOM     17  C   UNL d   1      51.468  33.070  53.602  0.00  0.00     0.000 A 
ENDBRANCH   2  12
BRANCH   4  18
ATOM     18  C   UNL d   1      54.605  33.311  54.695  0.00  0.00     0.021 A 
ATOM     19  C   UNL d   1      55.253  33.640  54.304  0.00  0.00     0.022 A 
ATOM     20  C   UNL d   1      55.796  34.101  54.719  0.00  0.00     0.099 A 
ATOM     21  N   UNL d   1      55.691  34.234  55.527  0.00  0.00    -0.242 NA
ATOM     22  C   UNL d   1      55.051  33.896  55.865  0.00  0.00     0.099 A 
ATOM     23  C   UNL d   1      54.501  33.443  55.503  0.00  0.00     0.022 A 
ENDBRANCH   4  18
TORSDOF 2
ENDMDL
