MODEL 1
REMARK VINA RESULT:      -4.2      0.000      0.000
REMARK  6 active torsions:
REMARK  status: ('A' for Active; 'I' for Inactive)
REMARK    1  A    between atoms: S_10  and  C_3 
REMARK    2  A    between atoms: C_14  and  C_7 
REMARK    3  A    between atoms: C_18  and  S_10 
REMARK       I    between atoms: N_11  and  C_12 
REMARK    4  A    between atoms: C_13  and  N_11 
REMARK    5  A    between atoms: C_12  and  C_18 
REMARK    6  A    between atoms: O_20  and  C_16 
ROOT
ATOM      1  N   UNL d   1      59.307  -0.604  29.556  0.00  0.00    -0.186 N 
ATOM      2  N   UNL d   1      59.172  -1.400  29.426  0.00  0.00    -0.162 NA
ATOM      3  C   UNL d   1      58.867  -0.027  29.957  0.00  0.00     0.217 A 
ATOM      4  C   UNL d   1      59.985  -0.239  29.263  0.00  0.00     0.187 A 
ATOM      5  N   UNL d   1      59.279   0.678  29.905  0.00  0.00    -0.120 NA
ATOM      6  N   UNL d   1      59.972   0.549  29.475  0.00  0.00    -0.127 NA
ATOM      7  C   UNL d   1      59.724  -1.842  28.996  0.00  0.00     0.103 A 
ATOM      8  C   UNL d   1      60.538  -0.684  28.831  0.00  0.00     0.042 A 
ATOM      9  C   UNL d   1      60.407  -1.479  28.699  0.00  0.00     0.024 A 
ENDROOT
BRANCH   3  10
ATOM     10  S   UNL d   1      58.145  -0.126  30.344  0.00  0.00    -0.041 SA
BRANCH  10  11
ATOM     11  C   UNL d   1      57.883   0.430  30.878  0.00  0.00     0.101 C 
BRANCH  11  12
ATOM     12  C   UNL d   1      57.299   0.240  31.415  0.00  0.00     0.286 C 
ATOM     13  N   UNL d   1      57.259   0.613  32.153  0.00  0.00    -0.206 NA
ATOM     14  O   UNL d   1      56.733  -0.331  31.229  0.00  0.00    -0.265 OA
BRANCH  13  15
ATOM     15  C   UNL d   1      56.667   0.421  32.696  0.00  0.00     0.107 A 
ATOM     16  C   UNL d   1      56.815   0.453  33.504  0.00  0.00     0.112 A 
ATOM     17  C   UNL d   1      56.215   0.258  34.044  0.00  0.00     0.026 A 
ATOM     18  C   UNL d   1      55.480   0.036  33.762  0.00  0.00     0.002 A 
ATOM     19  C   UNL d   1      55.319  -0.001  32.959  0.00  0.00     0.002 A 
ATOM     20  C   UNL d   1      55.920   0.194  32.420  0.00  0.00     0.021 A 
BRANCH  16  21
ATOM     21  O   UNL d   1      57.570   0.682  33.775  0.00  0.00    -0.327 OA
ATOM     22  C   UNL d   1      57.763   0.599  34.578  0.00  0.00     0.181 C 
ENDBRANCH  16  21
ENDBRANCH  13  15
ENDBRANCH  11  12
ENDBRANCH  10  11
ENDBRANCH   3  10
BRANCH   7  23
ATOM     23  C   UNL d   1      59.581  -2.647  28.868  0.00  0.00     0.039 A 
ATOM     24  C   UNL d   1      58.847  -2.911  28.652  0.00  0.00     0.101 A 
ATOM     25  N   UNL d   1      58.713  -3.703  28.528  0.00  0.00    -0.242 NA
ATOM     26  C   UNL d   1      59.326  -4.250  28.621  0.00  0.00     0.099 A 
ATOM     27  C   UNL d   1      60.073  -3.982  28.841  0.00  0.00     0.021 A 
ATOM     28  C   UNL d   1      60.207  -3.176  28.966  0.00  0.00     0.005 A 
ENDBRANCH   7  23
TORSDOF 6
ENDMDL
