MODEL 1
REMARK VINA RESULT:      23.5      0.000      0.000
REMARK  5 active torsions:
REMARK  status: ('A' for Active; 'I' for Inactive)
REMARK    1  A    between atoms: C_2  and  N_1 
REMARK    2  A    between atoms: C_5  and  N_1 
REMARK    3  A    between atoms: C_7  and  C_2 
REMARK    4  A    between atoms: C_4  and  O_6 
REMARK    5  A    between atoms: O_6  and  C_8 
ROOT
ATOM      1  C   UNL d   1     -56.412 -99.363 -44.815  0.00  0.00     0.020 A 
ATOM      2  C   UNL d   1     -55.280-100.540 -44.573  0.00  0.00     0.105 A 
ATOM      3  C   UNL d   1     -55.609 -99.168 -44.833  0.00  0.00     0.004 A 
ATOM      4  C   UNL d   1     -56.659-100.131 -44.679  0.00  0.00     0.004 A 
ATOM      5  C   UNL d   1     -55.052 -99.756 -44.712  0.00  0.00     0.025 A 
ATOM      6  C   UNL d   1     -56.101-100.719 -44.558  0.00  0.00     0.025 A 
ENDROOT
BRANCH   1   7
ATOM      7  C   UNL d   1     -56.985 -98.758 -44.938  0.00  0.00     0.108 C 
BRANCH   7   8
ATOM      8  N   UNL d   1     -57.677 -98.762 -44.480  0.00  0.00    -0.184 N 
ATOM      9  O   UNL d   1     -57.639 -98.766 -43.657  0.00  0.00    -0.080 OA
BRANCH   8  10
ATOM     10  C   UNL d   1     -58.405 -98.761 -44.861  0.00  0.00     0.090 A 
ATOM     11  C   UNL d   1     -59.097 -98.765 -44.402  0.00  0.00     0.020 A 
ATOM     12  C   UNL d   1     -59.829 -98.765 -44.784  0.00  0.00     0.002 A 
ATOM     13  C   UNL d   1     -59.870 -98.760 -45.626  0.00  0.00     0.000 A 
ATOM     14  C   UNL d   1     -59.162 -98.755 -46.059  0.00  0.00     0.002 A 
ATOM     15  C   UNL d   1     -58.431 -98.756 -45.677  0.00  0.00     0.020 A 
ENDBRANCH   8  10
ENDBRANCH   7   8
ENDBRANCH   1   7
BRANCH   2  16
ATOM     16  O   UNL d   1     -54.717-101.121 -44.454  0.00  0.00    -0.260 OA
BRANCH  16  17
ATOM     17  C   UNL d   1     -54.916-101.807 -44.056  0.00  0.00     0.391 C 
ATOM     18  F   UNL d   1     -54.764-101.860 -43.247  0.00  0.00    -0.145 F 
ATOM     19  F   UNL d   1     -55.262-102.431 -44.458  0.00  0.00    -0.145 F 
ENDBRANCH  16  17
ENDBRANCH   2  16
TORSDOF 5
ENDMDL
MODEL 2
REMARK VINA RESULT:      25.2      2.109      4.025
REMARK  5 active torsions:
REMARK  status: ('A' for Active; 'I' for Inactive)
REMARK    1  A    between atoms: C_2  and  N_1 
REMARK    2  A    between atoms: C_5  and  N_1 
REMARK    3  A    between atoms: C_7  and  C_2 
REMARK    4  A    between atoms: C_4  and  O_6 
REMARK    5  A    between atoms: O_6  and  C_8 
ROOT
ATOM      1  C   UNL d   1     -56.239 -98.842 -44.339  0.00  0.00     0.020 A 
ATOM      2  C   UNL d   1     -57.890 -98.787 -44.351  0.00  0.00     0.105 A 
ATOM      3  C   UNL d   1     -56.643 -98.822 -45.060  0.00  0.00     0.004 A 
ATOM      4  C   UNL d   1     -56.643 -98.835 -43.627  0.00  0.00     0.004 A 
ATOM      5  C   UNL d   1     -57.462 -98.794 -45.060  0.00  0.00     0.025 A 
ATOM      6  C   UNL d   1     -57.462 -98.808 -43.627  0.00  0.00     0.025 A 
ENDROOT
BRANCH   1   7
ATOM      7  C   UNL d   1     -55.398 -98.870 -44.339  0.00  0.00     0.108 C 
BRANCH   7   8
ATOM      8  N   UNL d   1     -55.016 -99.445 -44.800  0.00  0.00    -0.184 N 
ATOM      9  O   UNL d   1     -54.741 -99.267 -45.556  0.00  0.00    -0.080 OA
BRANCH   8  10
ATOM     10  C   UNL d   1     -54.915-100.200 -44.490  0.00  0.00     0.090 A 
ATOM     11  C   UNL d   1     -54.854-100.290 -43.666  0.00  0.00     0.020 A 
ATOM     12  C   UNL d   1     -54.753-101.047 -43.355  0.00  0.00     0.002 A 
ATOM     13  C   UNL d   1     -54.712-101.717 -43.866  0.00  0.00     0.000 A 
ATOM     14  C   UNL d   1     -54.776-101.597 -44.685  0.00  0.00     0.002 A 
ATOM     15  C   UNL d   1     -54.877-100.840 -44.996  0.00  0.00     0.020 A 
ENDBRANCH   8  10
ENDBRANCH   7   8
ENDBRANCH   1   7
BRANCH   2  16
ATOM     16  O   UNL d   1     -58.707 -98.759 -44.360  0.00  0.00    -0.260 OA
BRANCH  16  17
ATOM     17  C   UNL d   1     -59.131 -98.989 -43.699  0.00  0.00     0.391 C 
ATOM     18  F   UNL d   1     -58.812 -98.854 -42.951  0.00  0.00    -0.145 F 
ATOM     19  F   UNL d   1     -59.861 -99.349 -43.784  0.00  0.00    -0.145 F 
ENDBRANCH  16  17
ENDBRANCH   2  16
TORSDOF 5
ENDMDL
