MODEL 1
REMARK VINA RESULT:      10.1      0.000      0.000
REMARK  0 active torsions:
REMARK  status: ('A' for Active; 'I' for Inactive)
ROOT
ATOM      1  N   UNL d   1      60.011  49.697  52.082  0.00  0.00    -0.169 NA
ATOM      2  C   UNL d   1      59.507  49.701  51.431  0.00  0.00     0.199 A 
ATOM      3  C   UNL d   1      59.796  49.703  50.658  0.00  0.00     0.130 A 
ATOM      4  N   UNL d   1      61.127  49.697  51.170  0.00  0.00    -0.151 NA
ATOM      5  C   UNL d   1      60.603  49.701  50.534  0.00  0.00     0.292 A 
ATOM      6  C   UNL d   1      60.837  49.695  51.942  0.00  0.00     0.373 A 
ATOM      7  O   UNL d   1      60.898  49.703  49.758  0.00  0.00    -0.264 OA
ATOM      8  O   UNL d   1      61.355  49.691  52.590  0.00  0.00    -0.242 OA
ATOM      9  N   UNL d   1      58.683  49.703  51.562  0.00  0.00    -0.126 N 
ATOM     10 BR   UNL d   1      59.275  49.707  50.018  0.00  0.00    -0.041 Br
ENDROOT
TORSDOF 0
ENDMDL
MODEL 2
REMARK VINA RESULT:      11.7      0.946      1.750
REMARK  0 active torsions:
REMARK  status: ('A' for Active; 'I' for Inactive)
ROOT
ATOM      1  N   UNL d   1      59.963  49.702  50.204  0.00  0.00    -0.169 NA
ATOM      2  C   UNL d   1      59.450  49.703  50.848  0.00  0.00     0.199 A 
ATOM      3  C   UNL d   1      59.729  49.704  51.625  0.00  0.00     0.130 A 
ATOM      4  N   UNL d   1      61.066  49.705  51.132  0.00  0.00    -0.151 NA
ATOM      5  C   UNL d   1      60.534  49.705  51.761  0.00  0.00     0.292 A 
ATOM      6  C   UNL d   1      60.788  49.703  50.356  0.00  0.00     0.373 A 
ATOM      7  O   UNL d   1      60.818  49.707  52.541  0.00  0.00    -0.264 OA
ATOM      8  O   UNL d   1      61.315  49.702  49.715  0.00  0.00    -0.242 OA
ATOM      9  N   UNL d   1      58.629  49.701  50.705  0.00  0.00    -0.126 N 
ATOM     10 BR   UNL d   1      59.198  49.705  52.258  0.00  0.00    -0.041 Br
ENDROOT
TORSDOF 0
ENDMDL
MODEL 3
REMARK VINA RESULT:      12.7      0.940      1.593
REMARK  0 active torsions:
REMARK  status: ('A' for Active; 'I' for Inactive)
ROOT
ATOM      1  N   UNL d   1      61.273  49.704  51.203  0.00  0.00    -0.169 NA
ATOM      2  C   UNL d   1      60.929  49.705  50.456  0.00  0.00     0.199 A 
ATOM      3  C   UNL d   1      60.110  49.703  50.355  0.00  0.00     0.130 A 
ATOM      4  N   UNL d   1      59.948  49.700  51.771  0.00  0.00    -0.151 NA
ATOM      5  C   UNL d   1      59.626  49.700  51.013  0.00  0.00     0.292 A 
ATOM      6  C   UNL d   1      60.767  49.702  51.871  0.00  0.00     0.373 A 
ATOM      7  O   UNL d   1      58.802  49.698  50.915  0.00  0.00    -0.264 OA
ATOM      8  O   UNL d   1      61.102  49.701  52.630  0.00  0.00    -0.242 OA
ATOM      9  N   UNL d   1      61.427  49.708  49.786  0.00  0.00    -0.126 N 
ATOM     10 BR   UNL d   1      59.783  49.704  49.596  0.00  0.00    -0.041 Br
ENDROOT
TORSDOF 0
ENDMDL
