MODEL 1
REMARK VINA RESULT:      -5.9      0.000      0.000
REMARK  0 active torsions:
REMARK  status: ('A' for Active; 'I' for Inactive)
ROOT
ATOM      1  N   UNL d   1      55.327  -0.737  33.521  0.00  0.00    -0.152 NA
ATOM      2  C   UNL d   1      55.823  -1.081  32.966  0.00  0.00     0.284 A 
ATOM      3  C   UNL d   1      55.255   0.094  33.554  0.00  0.00     0.371 A 
ATOM      4  C   UNL d   1      56.252  -0.609  32.441  0.00  0.00     0.076 A 
ATOM      5  N   UNL d   1      55.684   0.567  33.029  0.00  0.00    -0.191 NA
ATOM      6  C   UNL d   1      56.184   0.213  32.470  0.00  0.00     0.091 A 
ATOM      7  O   UNL d   1      55.893  -1.903  32.933  0.00  0.00    -0.265 OA
ATOM      8  O   UNL d   1      54.756   0.443  34.112  0.00  0.00    -0.242 OA
ATOM      9  C   UNL d   1      56.749  -0.963  31.886  0.00  0.00     0.006 A 
ATOM     10  C   UNL d   1      56.614   0.682  31.944  0.00  0.00     0.019 A 
ATOM     11  C   UNL d   1      57.178  -0.494  31.360  0.00  0.00     0.000 A 
ATOM     12  C   UNL d   1      57.111   0.327  31.389  0.00  0.00     0.002 A 
ENDROOT
TORSDOF 0
ENDMDL
MODEL 2
REMARK VINA RESULT:      -5.7      1.301      2.211
REMARK  0 active torsions:
REMARK  status: ('A' for Active; 'I' for Inactive)
ROOT
ATOM      1  N   UNL d   1      56.627  -1.480  31.947  0.00  0.00    -0.152 NA
ATOM      2  C   UNL d   1      56.126  -1.469  32.596  0.00  0.00     0.284 A 
ATOM      3  C   UNL d   1      56.874  -0.761  31.601  0.00  0.00     0.371 A 
ATOM      4  C   UNL d   1      55.864  -0.750  32.908  0.00  0.00     0.076 A 
ATOM      5  N   UNL d   1      56.612  -0.042  31.914  0.00  0.00    -0.191 NA
ATOM      6  C   UNL d   1      56.105  -0.037  32.570  0.00  0.00     0.091 A 
ATOM      7  O   UNL d   1      55.882  -2.180  32.938  0.00  0.00    -0.265 OA
ATOM      8  O   UNL d   1      57.379  -0.770  30.948  0.00  0.00    -0.242 OA
ATOM      9  C   UNL d   1      55.360  -0.747  33.561  0.00  0.00     0.006 A 
ATOM     10  C   UNL d   1      55.842   0.679  32.884  0.00  0.00     0.019 A 
ATOM     11  C   UNL d   1      55.097  -0.031  33.875  0.00  0.00     0.000 A 
ATOM     12  C   UNL d   1      55.338   0.681  33.536  0.00  0.00     0.002 A 
ENDROOT
TORSDOF 0
ENDMDL
MODEL 3
REMARK VINA RESULT:      -5.1      0.709      1.663
REMARK  0 active torsions:
REMARK  status: ('A' for Active; 'I' for Inactive)
ROOT
ATOM      1  N   UNL d   1      55.535  -0.746  33.285  0.00  0.00    -0.152 NA
ATOM      2  C   UNL d   1      55.787  -0.038  32.957  0.00  0.00     0.284 A 
ATOM      3  C   UNL d   1      55.829  -1.469  32.988  0.00  0.00     0.371 A 
ATOM      4  C   UNL d   1      56.332  -0.038  32.334  0.00  0.00     0.076 A 
ATOM      5  N   UNL d   1      56.374  -1.469  32.366  0.00  0.00    -0.191 NA
ATOM      6  C   UNL d   1      56.625  -0.750  32.038  0.00  0.00     0.091 A 
ATOM      7  O   UNL d   1      55.496   0.677  33.250  0.00  0.00    -0.265 OA
ATOM      8  O   UNL d   1      55.577  -2.183  33.317  0.00  0.00    -0.242 OA
ATOM      9  C   UNL d   1      56.580   0.678  32.010  0.00  0.00     0.006 A 
ATOM     10  C   UNL d   1      57.169  -0.746  31.418  0.00  0.00     0.019 A 
ATOM     11  C   UNL d   1      57.123   0.682  31.389  0.00  0.00     0.000 A 
ATOM     12  C   UNL d   1      57.417  -0.030  31.093  0.00  0.00     0.002 A 
ENDROOT
TORSDOF 0
ENDMDL
MODEL 4
REMARK VINA RESULT:      -4.7      8.014      8.761
REMARK  0 active torsions:
REMARK  status: ('A' for Active; 'I' for Inactive)
ROOT
ATOM      1  N   UNL d   1      59.905  -5.749  35.774  0.00  0.00    -0.152 NA
ATOM      2  C   UNL d   1      59.494  -6.458  35.771  0.00  0.00     0.284 A 
ATOM      3  C   UNL d   1      60.718  -5.741  35.965  0.00  0.00     0.371 A 
ATOM      4  C   UNL d   1      59.881  -7.165  35.956  0.00  0.00     0.076 A 
ATOM      5  N   UNL d   1      61.105  -6.448  36.150  0.00  0.00    -0.191 NA
ATOM      6  C   UNL d   1      60.684  -7.162  36.146  0.00  0.00     0.091 A 
ATOM      7  O   UNL d   1      58.690  -6.466  35.582  0.00  0.00    -0.265 OA
ATOM      8  O   UNL d   1      61.133  -5.027  35.969  0.00  0.00    -0.242 OA
ATOM      9  C   UNL d   1      59.461  -7.875  35.951  0.00  0.00     0.006 A 
ATOM     10  C   UNL d   1      61.068  -7.869  36.330  0.00  0.00     0.019 A 
ATOM     11  C   UNL d   1      59.844  -8.581  36.135  0.00  0.00     0.000 A 
ATOM     12  C   UNL d   1      60.647  -8.578  36.325  0.00  0.00     0.002 A 
ENDROOT
TORSDOF 0
ENDMDL
MODEL 5
REMARK VINA RESULT:      -4.5      1.831      2.792
REMARK  0 active torsions:
REMARK  status: ('A' for Active; 'I' for Inactive)
ROOT
ATOM      1  N   UNL d   1      57.792  -0.265  31.433  0.00  0.00    -0.152 NA
ATOM      2  C   UNL d   1      57.539   0.049  32.147  0.00  0.00     0.284 A 
ATOM      3  C   UNL d   1      57.377  -0.904  31.092  0.00  0.00     0.371 A 
ATOM      4  C   UNL d   1      56.877  -0.264  32.529  0.00  0.00     0.076 A 
ATOM      5  N   UNL d   1      56.715  -1.218  31.474  0.00  0.00    -0.191 NA
ATOM      6  C   UNL d   1      56.464  -0.896  32.196  0.00  0.00     0.091 A 
ATOM      7  O   UNL d   1      57.949   0.682  32.484  0.00  0.00    -0.265 OA
ATOM      8  O   UNL d   1      57.630  -1.223  30.372  0.00  0.00    -0.242 OA
ATOM      9  C   UNL d   1      56.629   0.058  33.247  0.00  0.00     0.006 A 
ATOM     10  C   UNL d   1      55.803  -1.206  32.580  0.00  0.00     0.019 A 
ATOM     11  C   UNL d   1      55.969  -0.252  33.631  0.00  0.00     0.000 A 
ATOM     12  C   UNL d   1      55.556  -0.884  33.298  0.00  0.00     0.002 A 
ENDROOT
TORSDOF 0
ENDMDL
