MODEL 1
REMARK VINA RESULT:      77.8      0.000      0.000
REMARK  3 active torsions:
REMARK  status: ('A' for Active; 'I' for Inactive)
REMARK    1  A    between atoms: C_9  and  C_3 
REMARK    2  A    between atoms: N_10  and  C_9 
REMARK    3  A    between atoms: C_11  and  C_9 
ROOT
ATOM      1  C   UNL d   1      60.357  48.574  51.126  0.00  0.00     0.075 C 
ENDROOT
BRANCH   1   2
ATOM      2  C   UNL d   1      59.595  48.789  50.897  0.00  0.00     0.106 A 
ATOM      3  C   UNL d   1      59.399  49.300  50.269  0.00  0.00     0.289 A 
ATOM      4  N   UNL d   1      58.580  49.361  50.236  0.00  0.00    -0.169 N 
ATOM      5  O   UNL d   1      59.937  49.679  49.770  0.00  0.00    -0.265 OA
ATOM      6  C   UNL d   1      58.266  48.892  50.838  0.00  0.00     0.200 A 
ATOM      7  N   UNL d   1      57.954  49.708  49.837  0.00  0.00    -0.141 NA
ATOM      8  S   UNL d   1      58.888  48.540  51.244  0.00  0.00    -0.042 SA
ATOM      9  N   UNL d   1      57.446  48.952  50.805  0.00  0.00    -0.200 NA
ATOM     10  C   UNL d   1      57.252  49.457  50.186  0.00  0.00     0.184 A 
ATOM     11  C   UNL d   1      56.493  49.678  49.950  0.00  0.00     0.044 C 
ENDBRANCH   1   2
BRANCH   1  12
ATOM     12  N   UNL d   1      60.706  48.951  51.768  0.00  0.00    -0.300 N 
ATOM     13  C   UNL d   1      61.462  49.255  51.703  0.00  0.00     0.107 A 
ATOM     14  C   UNL d   1      61.809  49.635  52.356  0.00  0.00     0.142 A 
ATOM     15  O   UNL d   1      61.395  49.708  53.066  0.00  0.00    -0.300 OA
ATOM     16  C   UNL d   1      60.633  49.396  53.113  0.00  0.00     0.142 A 
ATOM     17  C   UNL d   1      60.285  49.017  52.468  0.00  0.00     0.107 A 
ENDBRANCH   1  12
BRANCH   1  18
ATOM     18  C   UNL d   1      60.758  47.988  50.718  0.00  0.00     0.017 A 
ATOM     19  C   UNL d   1      60.521  47.201  50.790  0.00  0.00     0.002 A 
ATOM     20  C   UNL d   1      60.927  46.606  50.377  0.00  0.00     0.000 A 
ATOM     21  C   UNL d   1      61.555  46.807  49.904  0.00  0.00     0.000 A 
ATOM     22  C   UNL d   1      61.786  47.601  49.837  0.00  0.00     0.000 A 
ATOM     23  C   UNL d   1      61.975  46.216  49.480  0.00  0.00     0.000 C 
ATOM     24  C   UNL d   1      61.390  48.179  50.240  0.00  0.00     0.002 A 
ENDBRANCH   1  18
TORSDOF 3
ENDMDL
MODEL 2
REMARK VINA RESULT:      79.8      1.341      3.385
REMARK  3 active torsions:
REMARK  status: ('A' for Active; 'I' for Inactive)
REMARK    1  A    between atoms: C_9  and  C_3 
REMARK    2  A    between atoms: N_10  and  C_9 
REMARK    3  A    between atoms: C_11  and  C_9 
ROOT
ATOM      1  C   UNL d   1      60.409  48.623  51.068  0.00  0.00     0.075 C 
ENDROOT
BRANCH   1   2
ATOM      2  C   UNL d   1      60.789  47.986  50.710  0.00  0.00     0.106 A 
ATOM      3  C   UNL d   1      61.414  48.033  50.162  0.00  0.00     0.289 A 
ATOM      4  N   UNL d   1      61.625  47.268  49.949  0.00  0.00    -0.169 N 
ATOM      5  O   UNL d   1      61.759  48.730  49.884  0.00  0.00    -0.265 OA
ATOM      6  C   UNL d   1      61.136  46.746  50.360  0.00  0.00     0.200 A 
ATOM      7  N   UNL d   1      62.133  46.823  49.485  0.00  0.00    -0.141 NA
ATOM      8  S   UNL d   1      60.622  47.185  50.828  0.00  0.00    -0.042 SA
ATOM      9  N   UNL d   1      61.346  45.980  50.147  0.00  0.00    -0.200 NA
ATOM     10  C   UNL d   1      61.964  46.027  49.605  0.00  0.00     0.184 A 
ATOM     11  C   UNL d   1      62.350  45.393  49.243  0.00  0.00     0.044 C 
ENDBRANCH   1   2
BRANCH   1  12
ATOM     12  N   UNL d   1      60.755  48.984  51.721  0.00  0.00    -0.300 N 
ATOM     13  C   UNL d   1      61.513  49.282  51.671  0.00  0.00     0.107 A 
ATOM     14  C   UNL d   1      61.856  49.646  52.335  0.00  0.00     0.142 A 
ATOM     15  O   UNL d   1      61.436  49.707  53.042  0.00  0.00    -0.300 OA
ATOM     16  C   UNL d   1      60.671  49.400  53.075  0.00  0.00     0.142 A 
ATOM     17  C   UNL d   1      60.327  49.039  52.418  0.00  0.00     0.107 A 
ENDBRANCH   1  12
BRANCH   1  18
ATOM     18  C   UNL d   1      59.693  48.892  50.774  0.00  0.00     0.017 A 
ATOM     19  C   UNL d   1      59.683  49.433  50.151  0.00  0.00     0.002 A 
ATOM     20  C   UNL d   1      58.958  49.707  49.851  0.00  0.00     0.000 A 
ATOM     21  C   UNL d   1      58.266  49.438  50.177  0.00  0.00     0.000 A 
ATOM     22  C   UNL d   1      58.285  48.894  50.803  0.00  0.00     0.000 A 
ATOM     23  C   UNL d   1      57.525  49.706  49.884  0.00  0.00     0.000 C 
ATOM     24  C   UNL d   1      58.991  48.629  51.094  0.00  0.00     0.002 A 
ENDBRANCH   1  18
TORSDOF 3
ENDMDL
