MODEL 1
REMARK VINA RESULT:     -12.9      0.000      0.000
REMARK  2 active torsions:
REMARK  status: ('A' for Active; 'I' for Inactive)
REMARK    1  A    between atoms: C_8  and  N_1 
REMARK    2  A    between atoms: C_12  and  C_8 
ROOT
ATOM      1  N   UNL d   1      52.839  33.478  53.092  0.00  0.00    -0.238 N 
ATOM      2  C   UNL d   1      53.196  33.692  53.620  0.00  0.00     0.267 A 
ATOM      3  C   UNL d   1      52.741  32.730  52.874  0.00  0.00     0.267 A 
ATOM      4  C   UNL d   1      53.056  32.064  53.250  0.00  0.00     0.057 A 
ATOM      5  C   UNL d   1      53.627  33.333  54.193  0.00  0.00     0.057 A 
ATOM      6  C   UNL d   1      53.536  32.051  53.929  0.00  0.00     0.005 A 
ATOM      7  C   UNL d   1      53.774  32.669  54.332  0.00  0.00     0.005 A 
ATOM      8  O   UNL d   1      53.184  34.568  53.695  0.00  0.00    -0.267 OA
ATOM      9  O   UNL d   1      52.303  32.595  52.239  0.00  0.00    -0.267 OA
ATOM     10  C   UNL d   1      53.870  33.838  54.590  0.00  0.00     0.005 A 
ATOM     11  C   UNL d   1      52.837  31.366  52.866  0.00  0.00     0.005 A 
ATOM     12  C   UNL d   1      53.793  31.325  54.217  0.00  0.00     0.000 A 
ATOM     13  C   UNL d   1      54.175  32.514  54.882  0.00  0.00     0.000 A 
ATOM     14  C   UNL d   1      53.102  30.639  53.165  0.00  0.00     0.000 A 
ATOM     15  C   UNL d   1      53.581  30.622  53.842  0.00  0.00     0.000 A 
ATOM     16  C   UNL d   1      54.418  33.026  55.281  0.00  0.00     0.000 A 
ATOM     17  C   UNL d   1      54.268  33.684  55.138  0.00  0.00     0.000 A 
ENDROOT
BRANCH   1  18
ATOM     18  C   UNL d   1      52.440  34.094  52.592  0.00  0.00     0.111 C 
BRANCH  18  19
ATOM     19  C   UNL d   1      51.573  34.230  52.670  0.00  0.00     0.118 A 
ATOM     20  O   UNL d   1      51.151  34.447  53.414  0.00  0.00    -0.304 OA
ATOM     21  C   UNL d   1      50.293  34.524  53.226  0.00  0.00     0.123 A 
ATOM     22  C   UNL d   1      50.185  34.354  52.365  0.00  0.00     0.029 A 
ATOM     23  C   UNL d   1      50.978  34.173  52.026  0.00  0.00     0.028 A 
ENDBRANCH  18  19
ENDBRANCH   1  18
TORSDOF 2
ENDMDL
MODEL 2
REMARK VINA RESULT:     -12.6      1.169      3.029
REMARK  2 active torsions:
REMARK  status: ('A' for Active; 'I' for Inactive)
REMARK    1  A    between atoms: C_8  and  N_1 
REMARK    2  A    between atoms: C_12  and  C_8 
ROOT
ATOM      1  N   UNL d   1      53.581  32.210  53.342  0.00  0.00    -0.238 N 
ATOM      2  C   UNL d   1      53.956  32.490  53.826  0.00  0.00     0.267 A 
ATOM      3  C   UNL d   1      52.943  32.525  53.012  0.00  0.00     0.267 A 
ATOM      4  C   UNL d   1      52.608  33.259  53.193  0.00  0.00     0.057 A 
ATOM      5  C   UNL d   1      53.928  33.180  54.233  0.00  0.00     0.057 A 
ATOM      6  C   UNL d   1      52.878  33.808  53.758  0.00  0.00     0.005 A 
ATOM      7  C   UNL d   1      53.497  33.724  54.217  0.00  0.00     0.005 A 
ATOM      8  O   UNL d   1      54.630  31.977  54.062  0.00  0.00    -0.267 OA
ATOM      9  O   UNL d   1      52.583  32.108  52.455  0.00  0.00    -0.267 OA
ATOM     10  C   UNL d   1      54.461  33.166  54.664  0.00  0.00     0.005 A 
ATOM     11  C   UNL d   1      51.938  33.410  52.735  0.00  0.00     0.005 A 
ATOM     12  C   UNL d   1      52.463  34.511  53.854  0.00  0.00     0.000 A 
ATOM     13  C   UNL d   1      53.609  34.264  54.646  0.00  0.00     0.000 A 
ATOM     14  C   UNL d   1      51.527  34.123  52.840  0.00  0.00     0.000 A 
ATOM     15  C   UNL d   1      51.792  34.672  53.401  0.00  0.00     0.000 A 
ATOM     16  C   UNL d   1      54.149  34.246  55.080  0.00  0.00     0.000 A 
ATOM     17  C   UNL d   1      54.573  33.702  55.091  0.00  0.00     0.000 A 
ENDROOT
BRANCH   1  18
ATOM     18  C   UNL d   1      53.829  31.409  53.047  0.00  0.00     0.111 C 
BRANCH  18  19
ATOM     19  C   UNL d   1      53.449  30.685  53.373  0.00  0.00     0.118 A 
ATOM     20  O   UNL d   1      53.535  30.384  54.198  0.00  0.00    -0.304 OA
ATOM     21  C   UNL d   1      53.057  29.647  54.269  0.00  0.00     0.123 A 
ATOM     22  C   UNL d   1      52.675  29.491  53.487  0.00  0.00     0.029 A 
ATOM     23  C   UNL d   1      52.920  30.134  52.936  0.00  0.00     0.028 A 
ENDBRANCH  18  19
ENDBRANCH   1  18
TORSDOF 2
ENDMDL
MODEL 3
REMARK VINA RESULT:     -12.5      1.102      3.271
REMARK  2 active torsions:
REMARK  status: ('A' for Active; 'I' for Inactive)
REMARK    1  A    between atoms: C_8  and  N_1 
REMARK    2  A    between atoms: C_12  and  C_8 
ROOT
ATOM      1  N   UNL d   1      53.275  32.254  53.132  0.00  0.00    -0.238 N 
ATOM      2  C   UNL d   1      52.771  32.659  52.942  0.00  0.00     0.267 A 
ATOM      3  C   UNL d   1      53.806  32.409  53.689  0.00  0.00     0.267 A 
ATOM      4  C   UNL d   1      53.850  33.096  54.148  0.00  0.00     0.057 A 
ATOM      5  C   UNL d   1      52.517  33.386  53.165  0.00  0.00     0.057 A 
ATOM      6  C   UNL d   1      53.346  33.756  54.113  0.00  0.00     0.005 A 
ATOM      7  C   UNL d   1      52.739  33.843  53.638  0.00  0.00     0.005 A 
ATOM      8  O   UNL d   1      52.285  32.304  52.302  0.00  0.00    -0.267 OA
ATOM      9  O   UNL d   1      54.350  31.864  53.828  0.00  0.00    -0.267 OA
ATOM     10  C   UNL d   1      51.970  33.522  52.774  0.00  0.00     0.005 A 
ATOM     11  C   UNL d   1      54.482  33.067  54.679  0.00  0.00     0.005 A 
ATOM     12  C   UNL d   1      53.485  34.388  54.620  0.00  0.00     0.000 A 
ATOM     13  C   UNL d   1      52.401  34.449  53.715  0.00  0.00     0.000 A 
ATOM     14  C   UNL d   1      54.615  33.709  55.187  0.00  0.00     0.000 A 
ATOM     15  C   UNL d   1      54.114  34.369  55.155  0.00  0.00     0.000 A 
ATOM     16  C   UNL d   1      51.849  34.584  53.317  0.00  0.00     0.000 A 
ATOM     17  C   UNL d   1      51.633  34.124  52.849  0.00  0.00     0.000 A 
ENDROOT
BRANCH   1  18
ATOM     18  C   UNL d   1      53.348  31.472  52.718  0.00  0.00     0.111 C 
BRANCH  18  19
ATOM     19  C   UNL d   1      53.048  30.740  53.105  0.00  0.00     0.118 A 
ATOM     20  O   UNL d   1      52.199  30.536  53.234  0.00  0.00    -0.304 OA
ATOM     21  C   UNL d   1      52.167  29.754  53.640  0.00  0.00     0.123 A 
ATOM     22  C   UNL d   1      52.997  29.475  53.762  0.00  0.00     0.029 A 
ATOM     23  C   UNL d   1      53.537  30.087  53.430  0.00  0.00     0.028 A 
ENDBRANCH  18  19
ENDBRANCH   1  18
TORSDOF 2
ENDMDL
MODEL 4
REMARK VINA RESULT:     -12.3      0.282      2.039
REMARK  2 active torsions:
REMARK  status: ('A' for Active; 'I' for Inactive)
REMARK    1  A    between atoms: C_8  and  N_1 
REMARK    2  A    between atoms: C_12  and  C_8 
ROOT
ATOM      1  N   UNL d   1      52.689  33.573  52.989  0.00  0.00    -0.238 N 
ATOM      2  C   UNL d   1      52.686  32.907  52.893  0.00  0.00     0.267 A 
ATOM      3  C   UNL d   1      53.082  33.955  53.551  0.00  0.00     0.267 A 
ATOM      4  C   UNL d   1      53.566  33.616  54.130  0.00  0.00     0.057 A 
ATOM      5  C   UNL d   1      53.033  32.282  53.256  0.00  0.00     0.057 A 
ATOM      6  C   UNL d   1      53.733  32.808  54.234  0.00  0.00     0.005 A 
ATOM      7  C   UNL d   1      53.460  32.226  53.801  0.00  0.00     0.005 A 
ATOM      8  O   UNL d   1      52.183  32.673  52.211  0.00  0.00    -0.267 OA
ATOM      9  O   UNL d   1      53.014  34.735  53.570  0.00  0.00    -0.267 OA
ATOM     10  C   UNL d   1      52.827  31.725  52.912  0.00  0.00     0.005 A 
ATOM     11  C   UNL d   1      53.891  34.189  54.629  0.00  0.00     0.005 A 
ATOM     12  C   UNL d   1      54.232  32.583  54.848  0.00  0.00     0.000 A 
ATOM     13  C   UNL d   1      53.682  31.594  54.000  0.00  0.00     0.000 A 
ATOM     14  C   UNL d   1      54.393  33.952  55.245  0.00  0.00     0.000 A 
ATOM     15  C   UNL d   1      54.561  33.147  55.352  0.00  0.00     0.000 A 
ATOM     16  C   UNL d   1      53.471  31.033  53.650  0.00  0.00     0.000 A 
ATOM     17  C   UNL d   1      53.046  31.097  53.109  0.00  0.00     0.000 A 
ENDROOT
BRANCH   1  18
ATOM     18  C   UNL d   1      52.206  34.068  52.433  0.00  0.00     0.111 C 
BRANCH  18  19
ATOM     19  C   UNL d   1      51.363  34.241  52.618  0.00  0.00     0.118 A 
ATOM     20  O   UNL d   1      51.063  34.601  53.366  0.00  0.00    -0.304 OA
ATOM     21  C   UNL d   1      50.187  34.668  53.302  0.00  0.00     0.123 A 
ATOM     22  C   UNL d   1      49.944  34.349  52.514  0.00  0.00     0.029 A 
ATOM     23  C   UNL d   1      50.673  34.086  52.095  0.00  0.00     0.028 A 
ENDBRANCH  18  19
ENDBRANCH   1  18
TORSDOF 2
ENDMDL
MODEL 5
REMARK VINA RESULT:     -10.3      1.120      3.401
REMARK  2 active torsions:
REMARK  status: ('A' for Active; 'I' for Inactive)
REMARK    1  A    between atoms: C_8  and  N_1 
REMARK    2  A    between atoms: C_12  and  C_8 
ROOT
ATOM      1  N   UNL d   1      53.839  32.916  53.507  0.00  0.00    -0.238 N 
ATOM      2  C   UNL d   1      53.724  32.256  53.434  0.00  0.00     0.267 A 
ATOM      3  C   UNL d   1      53.313  33.489  53.405  0.00  0.00     0.267 A 
ATOM      4  C   UNL d   1      52.520  33.396  53.190  0.00  0.00     0.057 A 
ATOM      5  C   UNL d   1      53.085  31.813  53.237  0.00  0.00     0.057 A 
ATOM      6  C   UNL d   1      52.121  32.681  53.039  0.00  0.00     0.005 A 
ATOM      7  C   UNL d   1      52.429  31.971  53.074  0.00  0.00     0.005 A 
ATOM      8  O   UNL d   1      54.442  31.775  53.592  0.00  0.00    -0.267 OA
ATOM      9  O   UNL d   1      53.557  34.225  53.517  0.00  0.00    -0.267 OA
ATOM     10  C   UNL d   1      53.297  31.161  53.251  0.00  0.00     0.005 A 
ATOM     11  C   UNL d   1      52.131  34.123  53.134  0.00  0.00     0.005 A 
ATOM     12  C   UNL d   1      51.326  32.708  52.831  0.00  0.00     0.000 A 
ATOM     13  C   UNL d   1      51.980  31.457  52.923  0.00  0.00     0.000 A 
ATOM     14  C   UNL d   1      51.329  34.139  52.924  0.00  0.00     0.000 A 
ATOM     15  C   UNL d   1      50.929  33.430  52.773  0.00  0.00     0.000 A 
ATOM     16  C   UNL d   1      52.198  30.799  52.938  0.00  0.00     0.000 A 
ATOM     17  C   UNL d   1      52.852  30.650  53.101  0.00  0.00     0.000 A 
ENDROOT
BRANCH   1  18
ATOM     18  C   UNL d   1      54.659  33.163  53.739  0.00  0.00     0.111 C 
BRANCH  18  19
ATOM     19  C   UNL d   1      54.831  33.386  54.573  0.00  0.00     0.118 A 
ATOM     20  O   UNL d   1      54.486  33.005  55.290  0.00  0.00    -0.304 OA
ATOM     21  C   UNL d   1      54.817  33.411  55.999  0.00  0.00     0.123 A 
ATOM     22  C   UNL d   1      55.368  34.044  55.720  0.00  0.00     0.029 A 
ATOM     23  C   UNL d   1      55.373  34.025  54.839  0.00  0.00     0.028 A 
ENDBRANCH  18  19
ENDBRANCH   1  18
TORSDOF 2
ENDMDL
