MODEL 1
REMARK VINA RESULT:      59.2      0.000      0.000
REMARK  4 active torsions:
REMARK  status: ('A' for Active; 'I' for Inactive)
REMARK    1  A    between atoms: C_2  and  C_1 
REMARK    2  A    between atoms: C_3  and  C_1 
REMARK    3  A    between atoms: C_9  and  C_1 
REMARK    4  A    between atoms: N_4  and  C_10 
ROOT
ATOM      1  C   UNL d   1      14.044  13.261  -2.757  0.00  0.00     0.012 C 
ENDROOT
BRANCH   1   2
ATOM      2  C   UNL d   1      13.810  12.979  -3.500  0.00  0.00     0.077 A 
ATOM      3  C   UNL d   1      13.223  13.376  -3.927  0.00  0.00     0.195 A 
ATOM      4  C   UNL d   1      12.988  13.096  -4.669  0.00  0.00     0.019 A 
ATOM      5  O   UNL d   1      12.870  14.057  -3.606  0.00  0.00    -0.287 OA
ATOM      6  C   UNL d   1      13.344  12.414  -4.987  0.00  0.00     0.043 A 
ATOM      7  C   UNL d   1      13.928  12.025  -4.555  0.00  0.00     0.019 A 
ATOM      8  C   UNL d   1      13.537  11.794  -5.484  0.00  0.00     0.009 C 
ATOM      9  C   UNL d   1      12.787  12.686  -5.525  0.00  0.00     0.009 C 
ATOM     10  C   UNL d   1      14.168  12.296  -3.816  0.00  0.00     0.195 A 
ATOM     11  O   UNL d   1      14.761  11.892  -3.390  0.00  0.00    -0.287 OA
ENDBRANCH   1   2
BRANCH   1  12
ATOM     12  C   UNL d   1      14.159  12.889  -2.032  0.00  0.00     0.077 A 
ATOM     13  C   UNL d   1      13.522  12.579  -1.614  0.00  0.00     0.195 A 
ATOM     14  C   UNL d   1      13.621  12.209  -0.896  0.00  0.00     0.019 A 
ATOM     15  O   UNL d   1      12.769  12.645  -1.931  0.00  0.00    -0.287 OA
ATOM     16  C   UNL d   1      14.384  12.146  -0.582  0.00  0.00     0.043 A 
ATOM     17  C   UNL d   1      15.043  12.451  -0.985  0.00  0.00     0.019 A 
ATOM     18  C   UNL d   1      13.922  11.780  -0.016  0.00  0.00     0.009 C 
ATOM     19  C   UNL d   1      15.066  11.993  -0.121  0.00  0.00     0.009 C 
ATOM     20  C   UNL d   1      14.920  12.826  -1.717  0.00  0.00     0.195 A 
ATOM     21  O   UNL d   1      15.581  13.129  -2.115  0.00  0.00    -0.287 OA
ENDBRANCH   1  12
BRANCH   1  22
ATOM     22  C   UNL d   1      14.197  14.064  -2.709  0.00  0.00     0.002 A 
ATOM     23  C   UNL d   1      14.427  14.393  -1.980  0.00  0.00     0.024 A 
ATOM     24  C   UNL d   1      14.579  15.196  -1.932  0.00  0.00     0.127 A 
ATOM     25  C   UNL d   1      14.502  15.672  -2.614  0.00  0.00     0.024 A 
ATOM     26  C   UNL d   1      14.278  15.347  -3.319  0.00  0.00     0.002 A 
ATOM     27  C   UNL d   1      14.123  14.532  -3.367  0.00  0.00     0.000 A 
BRANCH  24  28
ATOM     28  N   UNL d   1      14.809  15.517  -1.197  0.00  0.00    -0.114 N 
ATOM     29  O   UNL d   1      15.249  16.203  -1.162  0.00  0.00    -0.532 OA
ATOM     30  O   UNL d   1      14.595  15.144  -0.484  0.00  0.00    -0.532 OA
ENDBRANCH  24  28
ENDBRANCH   1  22
TORSDOF 4
ENDMDL
MODEL 2
REMARK VINA RESULT:      61.6      1.342      3.985
REMARK  4 active torsions:
REMARK  status: ('A' for Active; 'I' for Inactive)
REMARK    1  A    between atoms: C_2  and  C_1 
REMARK    2  A    between atoms: C_3  and  C_1 
REMARK    3  A    between atoms: C_9  and  C_1 
REMARK    4  A    between atoms: N_4  and  C_10 
ROOT
ATOM      1  C   UNL d   1      13.982  13.216  -2.822  0.00  0.00     0.012 C 
ENDROOT
BRANCH   1   2
ATOM      2  C   UNL d   1      14.170  12.833  -2.112  0.00  0.00     0.077 A 
ATOM      3  C   UNL d   1      14.951  12.613  -1.953  0.00  0.00     0.195 A 
ATOM      4  C   UNL d   1      15.140  12.231  -1.245  0.00  0.00     0.019 A 
ATOM      5  O   UNL d   1      15.546  12.780  -2.510  0.00  0.00    -0.287 OA
ATOM      6  C   UNL d   1      14.541  12.065  -0.690  0.00  0.00     0.043 A 
ATOM      7  C   UNL d   1      13.765  12.287  -0.857  0.00  0.00     0.019 A 
ATOM      8  C   UNL d   1      14.145  11.808  -0.023  0.00  0.00     0.009 C 
ATOM      9  C   UNL d   1      15.253  11.788  -0.389  0.00  0.00     0.009 C 
ATOM     10  C   UNL d   1      13.568  12.668  -1.558  0.00  0.00     0.195 A 
ATOM     11  O   UNL d   1      12.778  12.887  -1.714  0.00  0.00    -0.287 OA
ENDBRANCH   1   2
BRANCH   1  12
ATOM     12  C   UNL d   1      14.017  14.005  -3.055  0.00  0.00     0.077 A 
ATOM     13  C   UNL d   1      14.617  14.497  -2.782  0.00  0.00     0.195 A 
ATOM     14  C   UNL d   1      14.664  15.278  -3.003  0.00  0.00     0.019 A 
ATOM     15  O   UNL d   1      15.182  14.189  -2.273  0.00  0.00    -0.287 OA
ATOM     16  C   UNL d   1      14.090  15.582  -3.516  0.00  0.00     0.043 A 
ATOM     17  C   UNL d   1      13.474  15.106  -3.806  0.00  0.00     0.019 A 
ATOM     18  C   UNL d   1      14.573  16.227  -3.379  0.00  0.00     0.009 C 
ATOM     19  C   UNL d   1      13.610  16.051  -4.017  0.00  0.00     0.009 C 
ATOM     20  C   UNL d   1      13.445  14.309  -3.567  0.00  0.00     0.195 A 
ATOM     21  O   UNL d   1      12.829  13.838  -3.858  0.00  0.00    -0.287 OA
ENDBRANCH   1  12
BRANCH   1  22
ATOM     22  C   UNL d   1      13.707  12.738  -3.427  0.00  0.00     0.002 A 
ATOM     23  C   UNL d   1      14.108  12.731  -4.156  0.00  0.00     0.024 A 
ATOM     24  C   UNL d   1      13.832  12.252  -4.761  0.00  0.00     0.127 A 
ATOM     25  C   UNL d   1      13.155  11.779  -4.637  0.00  0.00     0.024 A 
ATOM     26  C   UNL d   1      12.770  11.790  -3.927  0.00  0.00     0.002 A 
ATOM     27  C   UNL d   1      13.050  12.276  -3.313  0.00  0.00     0.000 A 
BRANCH  24  28
ATOM     28  N   UNL d   1      14.240  12.251  -5.488  0.00  0.00    -0.114 N 
ATOM     29  O   UNL d   1      15.022  12.482  -5.527  0.00  0.00    -0.532 OA
ATOM     30  O   UNL d   1      13.860  12.015  -6.190  0.00  0.00    -0.532 OA
ENDBRANCH  24  28
ENDBRANCH   1  22
TORSDOF 4
ENDMDL
MODEL 3
REMARK VINA RESULT:      61.8      1.325      2.973
REMARK  4 active torsions:
REMARK  status: ('A' for Active; 'I' for Inactive)
REMARK    1  A    between atoms: C_2  and  C_1 
REMARK    2  A    between atoms: C_3  and  C_1 
REMARK    3  A    between atoms: C_9  and  C_1 
REMARK    4  A    between atoms: N_4  and  C_10 
ROOT
ATOM      1  C   UNL d   1      14.004  13.282  -2.747  0.00  0.00     0.012 C 
ENDROOT
BRANCH   1   2
ATOM      2  C   UNL d   1      14.099  14.075  -2.969  0.00  0.00     0.077 A 
ATOM      3  C   UNL d   1      13.578  14.418  -3.512  0.00  0.00     0.195 A 
ATOM      4  C   UNL d   1      13.671  15.209  -3.735  0.00  0.00     0.019 A 
ATOM      5  O   UNL d   1      12.960  13.964  -3.832  0.00  0.00    -0.287 OA
ATOM      6  C   UNL d   1      14.291  15.661  -3.412  0.00  0.00     0.043 A 
ATOM      7  C   UNL d   1      14.806  15.311  -2.871  0.00  0.00     0.019 A 
ATOM      8  C   UNL d   1      14.800  16.277  -3.239  0.00  0.00     0.009 C 
ATOM      9  C   UNL d   1      13.868  16.140  -3.927  0.00  0.00     0.009 C 
ATOM     10  C   UNL d   1      14.721  14.525  -2.644  0.00  0.00     0.195 A 
ATOM     11  O   UNL d   1      15.249  14.184  -2.096  0.00  0.00    -0.287 OA
ENDBRANCH   1   2
BRANCH   1  12
ATOM     12  C   UNL d   1      14.160  12.877  -2.048  0.00  0.00     0.077 A 
ATOM     13  C   UNL d   1      13.550  12.681  -1.532  0.00  0.00     0.195 A 
ATOM     14  C   UNL d   1      13.689  12.281  -0.837  0.00  0.00     0.019 A 
ATOM     15  O   UNL d   1      12.782  12.894  -1.725  0.00  0.00    -0.287 OA
ATOM     16  C   UNL d   1      14.467  12.069  -0.649  0.00  0.00     0.043 A 
ATOM     17  C   UNL d   1      15.100  12.256  -1.153  0.00  0.00     0.019 A 
ATOM     18  C   UNL d   1      14.040  11.781  -0.014  0.00  0.00     0.009 C 
ATOM     19  C   UNL d   1      15.172  11.780  -0.302  0.00  0.00     0.009 C 
ATOM     20  C   UNL d   1      14.935  12.665  -1.859  0.00  0.00     0.195 A 
ATOM     21  O   UNL d   1      15.570  12.850  -2.358  0.00  0.00    -0.287 OA
ENDBRANCH   1  12
BRANCH   1  22
ATOM     22  C   UNL d   1      13.696  12.784  -3.319  0.00  0.00     0.002 A 
ATOM     23  C   UNL d   1      14.018  12.796  -4.086  0.00  0.00     0.024 A 
ATOM     24  C   UNL d   1      13.710  12.298  -4.658  0.00  0.00     0.127 A 
ATOM     25  C   UNL d   1      13.078  11.787  -4.464  0.00  0.00     0.024 A 
ATOM     26  C   UNL d   1      12.770  11.780  -3.717  0.00  0.00     0.002 A 
ATOM     27  C   UNL d   1      13.083  12.285  -3.137  0.00  0.00     0.000 A 
BRANCH  24  28
ATOM     28  N   UNL d   1      14.039  12.316  -5.425  0.00  0.00    -0.114 N 
ATOM     29  O   UNL d   1      14.846  12.363  -5.530  0.00  0.00    -0.532 OA
ATOM     30  O   UNL d   1      13.551  12.287  -6.099  0.00  0.00    -0.532 OA
ENDBRANCH  24  28
ENDBRANCH   1  22
TORSDOF 4
ENDMDL
