MODEL 1
REMARK VINA RESULT:      -1.5      0.000      0.000
REMARK  4 active torsions:
REMARK  status: ('A' for Active; 'I' for Inactive)
REMARK    1  A    between atoms: N_2  and  S_1 
REMARK    2  A    between atoms: C_6  and  S_1 
REMARK    3  A    between atoms: O_17  and  C_12 
REMARK    4  A    between atoms: C_19  and  O_17 
ROOT
ATOM      1  S   UNL d   1     -41.825-122.175 -51.889  0.00  0.00     0.271 S 
ATOM      2  O   UNL d   1     -41.123-122.614 -51.830  0.00  0.00    -0.200 OA
ATOM      3  O   UNL d   1     -42.524-121.738 -51.947  0.00  0.00    -0.200 OA
ENDROOT
BRANCH   1   4
ATOM      4  N   UNL d   1     -41.871-122.136 -51.060  0.00  0.00    -0.232 N 
ATOM      5  C   UNL d   1     -41.547-121.543 -50.583  0.00  0.00     0.075 A 
ATOM      6  C   UNL d   1     -41.720-121.718 -49.797  0.00  0.00     0.020 A 
ATOM      7  C   UNL d   1     -41.123-120.886 -50.853  0.00  0.00     0.020 C 
ATOM      8  C   UNL d   1     -42.154-122.426 -49.787  0.00  0.00     0.018 A 
ATOM      9  C   UNL d   1     -42.244-122.679 -50.567  0.00  0.00     0.075 A 
ATOM     10  C   UNL d   1     -42.476-122.868 -49.171  0.00  0.00     0.002 A 
ATOM     11  C   UNL d   1     -42.658-123.378 -50.731  0.00  0.00     0.018 A 
ATOM     12  C   UNL d   1     -42.978-123.817 -50.117  0.00  0.00     0.002 A 
ATOM     13  C   UNL d   1     -42.890-123.567 -49.337  0.00  0.00     0.000 A 
ENDBRANCH   1   4
BRANCH   1  14
ATOM     14  C   UNL d   1     -41.780-122.214 -52.713  0.00  0.00     0.104 A 
ATOM     15  C   UNL d   1     -41.256-122.745 -53.072  0.00  0.00     0.015 A 
ATOM     16  C   UNL d   1     -41.211-122.783 -53.892  0.00  0.00     0.025 A 
ATOM     17  C   UNL d   1     -41.691-122.291 -54.362  0.00  0.00     0.100 A 
ATOM     18  C   UNL d   1     -42.212-121.763 -53.994  0.00  0.00     0.025 A 
ATOM     19  C   UNL d   1     -42.257-121.725 -53.175  0.00  0.00     0.015 A 
BRANCH  17  20
ATOM     20  O   UNL d   1     -41.646-122.330 -55.182  0.00  0.00    -0.305 OA
BRANCH  20  21
ATOM     21  C   UNL d   1     -42.256-122.031 -55.642  0.00  0.00     0.123 C 
ATOM     22  C   UNL d   1     -42.095-121.706 -56.380  0.00  0.00     0.029 C 
ENDBRANCH  20  21
ENDBRANCH  17  20
ENDBRANCH   1  14
TORSDOF 4
ENDMDL
MODEL 2
REMARK VINA RESULT:      -0.8      1.166      4.435
REMARK  4 active torsions:
REMARK  status: ('A' for Active; 'I' for Inactive)
REMARK    1  A    between atoms: N_2  and  S_1 
REMARK    2  A    between atoms: C_6  and  S_1 
REMARK    3  A    between atoms: O_17  and  C_12 
REMARK    4  A    between atoms: C_19  and  O_17 
ROOT
ATOM      1  S   UNL d   1     -41.745-122.451 -52.716  0.00  0.00     0.271 S 
ATOM      2  O   UNL d   1     -42.368-122.999 -52.671  0.00  0.00    -0.200 OA
ATOM      3  O   UNL d   1     -41.126-121.905 -52.762  0.00  0.00    -0.200 OA
ENDROOT
BRANCH   1   4
ATOM      4  N   UNL d   1     -41.761-122.501 -53.546  0.00  0.00    -0.232 N 
ATOM      5  C   UNL d   1     -41.475-123.130 -54.000  0.00  0.00     0.075 A 
ATOM      6  C   UNL d   1     -41.600-122.955 -54.795  0.00  0.00     0.020 A 
ATOM      7  C   UNL d   1     -41.123-123.817 -53.702  0.00  0.00     0.020 C 
ATOM      8  C   UNL d   1     -41.967-122.210 -54.833  0.00  0.00     0.018 A 
ATOM      9  C   UNL d   1     -42.064-121.936 -54.061  0.00  0.00     0.075 A 
ATOM     10  C   UNL d   1     -42.223-121.753 -55.468  0.00  0.00     0.002 A 
ATOM     11  C   UNL d   1     -42.419-121.200 -53.925  0.00  0.00     0.018 A 
ATOM     12  C   UNL d   1     -42.673-120.745 -54.559  0.00  0.00     0.002 A 
ATOM     13  C   UNL d   1     -42.578-121.017 -55.331  0.00  0.00     0.000 A 
ENDBRANCH   1   4
BRANCH   1  14
ATOM     14  C   UNL d   1     -41.729-122.400 -51.892  0.00  0.00     0.104 A 
ATOM     15  C   UNL d   1     -42.239-122.873 -51.441  0.00  0.00     0.015 A 
ATOM     16  C   UNL d   1     -42.223-122.823 -50.620  0.00  0.00     0.025 A 
ATOM     17  C   UNL d   1     -41.697-122.300 -50.241  0.00  0.00     0.100 A 
ATOM     18  C   UNL d   1     -41.191-121.831 -50.701  0.00  0.00     0.025 A 
ATOM     19  C   UNL d   1     -41.207-121.881 -51.521  0.00  0.00     0.015 A 
BRANCH  17  20
ATOM     20  O   UNL d   1     -41.681-122.250 -49.421  0.00  0.00    -0.305 OA
BRANCH  20  21
ATOM     21  C   UNL d   1     -41.171-122.727 -48.990  0.00  0.00     0.123 C 
ATOM     22  C   UNL d   1     -41.256-122.789 -48.174  0.00  0.00     0.029 C 
ENDBRANCH  20  21
ENDBRANCH  17  20
ENDBRANCH   1  14
TORSDOF 4
ENDMDL
