MODEL 1
REMARK VINA RESULT:      -6.1      0.000      0.000
REMARK  4 active torsions:
REMARK  status: ('A' for Active; 'I' for Inactive)
REMARK    1  A    between atoms: C_6  and  C_1 
REMARK    2  A    between atoms: C_3  and  C_5 
REMARK    3  A    between atoms: C_5  and  C_6 
REMARK    4  A    between atoms: C_17  and  C_13 
ROOT
ATOM      1  C   UNL d   1     -41.983-122.632 -50.402  0.00  0.00     0.202 C 
ATOM      2  O   UNL d   1     -42.497-122.067 -50.744  0.00  0.00    -0.286 OA
ENDROOT
BRANCH   1   3
ATOM      3  C   UNL d   1     -42.170-122.929 -49.636  0.00  0.00     0.078 A 
ATOM      4  C   UNL d   1     -42.976-123.155 -49.476  0.00  0.00     0.202 A 
ATOM      5  C   UNL d   1     -43.157-123.446 -48.726  0.00  0.00     0.084 A 
ATOM      6  O   UNL d   1     -43.551-123.082 -50.063  0.00  0.00    -0.286 OA
ATOM      7  C   UNL d   1     -42.585-123.517 -48.148  0.00  0.00     0.199 A 
ATOM      8  C   UNL d   1     -41.792-123.294 -48.306  0.00  0.00     0.039 A 
ATOM      9  O   UNL d   1     -42.763-123.811 -47.389  0.00  0.00    -0.286 OA
ATOM     10  C   UNL d   1     -41.588-122.997 -49.060  0.00  0.00     0.010 A 
BRANCH   8  11
ATOM     11  C   UNL d   1     -41.210-123.364 -47.725  0.00  0.00     0.003 C 
ATOM     12  C   UNL d   1     -41.220-122.866 -47.044  0.00  0.00     0.000 C 
ENDBRANCH   8  11
ENDBRANCH   1   3
BRANCH   1  13
ATOM     13  C   UNL d   1     -41.310-122.891 -50.803  0.00  0.00     0.081 C 
BRANCH  13  14
ATOM     14  C   UNL d   1     -41.320-122.932 -51.638  0.00  0.00     0.166 A 
ATOM     15  N   UNL d   1     -41.149-122.316 -52.149  0.00  0.00    -0.225 NA
ATOM     16  C   UNL d   1     -41.226-122.601 -52.924  0.00  0.00     0.101 A 
ATOM     17  C   UNL d   1     -41.123-122.232 -53.652  0.00  0.00     0.021 A 
ATOM     18  C   UNL d   1     -41.444-123.390 -52.883  0.00  0.00     0.101 A 
ATOM     19  C   UNL d   1     -41.235-122.643 -54.358  0.00  0.00     0.002 A 
ATOM     20  C   UNL d   1     -41.457-123.445 -54.314  0.00  0.00     0.002 A 
ATOM     21  C   UNL d   1     -41.561-123.816 -53.581  0.00  0.00     0.021 A 
ATOM     22  N   UNL d   1     -41.506-123.608 -52.095  0.00  0.00    -0.225 NA
ENDBRANCH  13  14
ENDBRANCH   1  13
TORSDOF 4
ENDMDL
MODEL 2
REMARK VINA RESULT:      -4.7      1.372      4.810
REMARK  4 active torsions:
REMARK  status: ('A' for Active; 'I' for Inactive)
REMARK    1  A    between atoms: C_6  and  C_1 
REMARK    2  A    between atoms: C_3  and  C_5 
REMARK    3  A    between atoms: C_5  and  C_6 
REMARK    4  A    between atoms: C_17  and  C_13 
ROOT
ATOM      1  C   UNL d   1     -41.781-122.436 -51.620  0.00  0.00     0.202 C 
ATOM      2  O   UNL d   1     -42.383-121.943 -51.312  0.00  0.00    -0.286 OA
ENDROOT
BRANCH   1   3
ATOM      3  C   UNL d   1     -41.617-122.396 -52.446  0.00  0.00     0.078 A 
ATOM      4  C   UNL d   1     -41.349-121.655 -52.769  0.00  0.00     0.202 A 
ATOM      5  C   UNL d   1     -41.189-121.618 -53.577  0.00  0.00     0.084 A 
ATOM      6  O   UNL d   1     -41.256-120.998 -52.279  0.00  0.00    -0.286 OA
ATOM      7  C   UNL d   1     -41.283-122.271 -54.059  0.00  0.00     0.199 A 
ATOM      8  C   UNL d   1     -41.547-123.000 -53.740  0.00  0.00     0.039 A 
ATOM      9  O   UNL d   1     -41.123-122.238 -54.876  0.00  0.00    -0.286 OA
ATOM     10  C   UNL d   1     -41.714-123.057 -52.923  0.00  0.00     0.010 A 
BRANCH   8  11
ATOM     11  C   UNL d   1     -41.643-123.662 -54.223  0.00  0.00     0.003 C 
ATOM     12  C   UNL d   1     -42.384-123.817 -54.598  0.00  0.00     0.000 C 
ENDBRANCH   8  11
ENDBRANCH   1   3
BRANCH   1  13
ATOM     13  C   UNL d   1     -41.358-122.947 -51.129  0.00  0.00     0.081 C 
BRANCH  13  14
ATOM     14  C   UNL d   1     -41.639-123.102 -50.357  0.00  0.00     0.166 A 
ATOM     15  N   UNL d   1     -42.349-123.463 -50.171  0.00  0.00    -0.225 NA
ATOM     16  C   UNL d   1     -42.403-123.505 -49.344  0.00  0.00     0.101 A 
ATOM     17  C   UNL d   1     -42.988-123.809 -48.851  0.00  0.00     0.021 A 
ATOM     18  C   UNL d   1     -41.726-123.169 -49.030  0.00  0.00     0.101 A 
ATOM     19  C   UNL d   1     -42.910-123.783 -48.032  0.00  0.00     0.002 A 
ATOM     20  C   UNL d   1     -42.220-123.441 -47.714  0.00  0.00     0.002 A 
ATOM     21  C   UNL d   1     -41.631-123.136 -48.210  0.00  0.00     0.021 A 
ATOM     22  N   UNL d   1     -41.245-122.916 -49.643  0.00  0.00    -0.225 NA
ENDBRANCH  13  14
ENDBRANCH   1  13
TORSDOF 4
ENDMDL
MODEL 3
REMARK VINA RESULT:      -3.5      1.629      4.934
REMARK  4 active torsions:
REMARK  status: ('A' for Active; 'I' for Inactive)
REMARK    1  A    between atoms: C_6  and  C_1 
REMARK    2  A    between atoms: C_3  and  C_5 
REMARK    3  A    between atoms: C_5  and  C_6 
REMARK    4  A    between atoms: C_17  and  C_13 
ROOT
ATOM      1  C   UNL d   1     -42.091-122.667 -52.103  0.00  0.00     0.202 C 
ATOM      2  O   UNL d   1     -42.641-123.264 -51.899  0.00  0.00    -0.286 OA
ENDROOT
BRANCH   1   3
ATOM      3  C   UNL d   1     -41.880-122.579 -52.914  0.00  0.00     0.078 A 
ATOM      4  C   UNL d   1     -41.385-123.175 -53.269  0.00  0.00     0.202 A 
ATOM      5  C   UNL d   1     -41.179-123.088 -54.063  0.00  0.00     0.084 A 
ATOM      6  O   UNL d   1     -41.124-123.817 -52.822  0.00  0.00    -0.286 OA
ATOM      7  C   UNL d   1     -41.439-122.451 -54.502  0.00  0.00     0.199 A 
ATOM      8  C   UNL d   1     -41.926-121.865 -54.152  0.00  0.00     0.039 A 
ATOM      9  O   UNL d   1     -41.233-122.359 -55.304  0.00  0.00    -0.286 OA
ATOM     10  C   UNL d   1     -42.146-121.935 -53.348  0.00  0.00     0.010 A 
BRANCH   8  11
ATOM     11  C   UNL d   1     -42.192-121.219 -54.592  0.00  0.00     0.003 C 
ATOM     12  C   UNL d   1     -42.808-121.310 -55.161  0.00  0.00     0.000 C 
ENDBRANCH   8  11
ENDBRANCH   1   3
BRANCH   1  13
ATOM     13  C   UNL d   1     -41.764-122.176 -51.526  0.00  0.00     0.081 C 
BRANCH  13  14
ATOM     14  C   UNL d   1     -41.826-122.391 -50.720  0.00  0.00     0.166 A 
ATOM     15  N   UNL d   1     -42.503-122.341 -50.264  0.00  0.00    -0.225 NA
ATOM     16  C   UNL d   1     -42.316-122.610 -49.502  0.00  0.00     0.101 A 
ATOM     17  C   UNL d   1     -42.774-122.683 -48.822  0.00  0.00     0.021 A 
ATOM     18  C   UNL d   1     -41.525-122.823 -49.497  0.00  0.00     0.101 A 
ATOM     19  C   UNL d   1     -42.452-122.970 -48.120  0.00  0.00     0.002 A 
ATOM     20  C   UNL d   1     -41.647-123.186 -48.117  0.00  0.00     0.002 A 
ATOM     21  C   UNL d   1     -41.186-123.112 -48.801  0.00  0.00     0.021 A 
ATOM     22  N   UNL d   1     -41.209-122.693 -50.242  0.00  0.00    -0.225 NA
ENDBRANCH  13  14
ENDBRANCH   1  13
TORSDOF 4
ENDMDL
MODEL 4
REMARK VINA RESULT:      -3.1      1.387      2.086
REMARK  4 active torsions:
REMARK  status: ('A' for Active; 'I' for Inactive)
REMARK    1  A    between atoms: C_6  and  C_1 
REMARK    2  A    between atoms: C_3  and  C_5 
REMARK    3  A    between atoms: C_5  and  C_6 
REMARK    4  A    between atoms: C_17  and  C_13 
ROOT
ATOM      1  C   UNL d   1     -42.106-121.939 -51.869  0.00  0.00     0.202 C 
ATOM      2  O   UNL d   1     -42.902-121.747 -52.043  0.00  0.00    -0.286 OA
ENDROOT
BRANCH   1   3
ATOM      3  C   UNL d   1     -41.916-122.182 -51.085  0.00  0.00     0.078 A 
ATOM      4  C   UNL d   1     -41.413-121.678 -50.617  0.00  0.00     0.202 A 
ATOM      5  C   UNL d   1     -41.229-121.916 -49.849  0.00  0.00     0.084 A 
ATOM      6  O   UNL d   1     -41.123-120.973 -50.932  0.00  0.00    -0.286 OA
ATOM      7  C   UNL d   1     -41.518-122.615 -49.541  0.00  0.00     0.199 A 
ATOM      8  C   UNL d   1     -42.013-123.110 -50.001  0.00  0.00     0.039 A 
ATOM      9  O   UNL d   1     -41.334-122.860 -48.766  0.00  0.00    -0.286 OA
ATOM     10  C   UNL d   1     -42.211-122.886 -50.782  0.00  0.00     0.010 A 
BRANCH   8  11
ATOM     11  C   UNL d   1     -42.308-123.817 -49.694  0.00  0.00     0.003 C 
ATOM     12  C   UNL d   1     -42.929-123.812 -49.123  0.00  0.00     0.000 C 
ENDBRANCH   8  11
ENDBRANCH   1   3
BRANCH   1  13
ATOM     13  C   UNL d   1     -41.521-121.892 -52.449  0.00  0.00     0.081 C 
BRANCH  13  14
ATOM     14  C   UNL d   1     -41.716-122.061 -53.245  0.00  0.00     0.166 A 
ATOM     15  N   UNL d   1     -42.119-121.563 -53.754  0.00  0.00    -0.225 NA
ATOM     16  C   UNL d   1     -42.191-121.952 -54.483  0.00  0.00     0.101 A 
ATOM     17  C   UNL d   1     -42.540-121.719 -55.191  0.00  0.00     0.021 A 
ATOM     18  C   UNL d   1     -41.833-122.685 -54.416  0.00  0.00     0.101 A 
ATOM     19  C   UNL d   1     -42.539-122.215 -55.850  0.00  0.00     0.002 A 
ATOM     20  C   UNL d   1     -42.174-122.960 -55.779  0.00  0.00     0.002 A 
ATOM     21  C   UNL d   1     -41.823-123.194 -55.067  0.00  0.00     0.021 A 
ATOM     22  N   UNL d   1     -41.535-122.767 -53.657  0.00  0.00    -0.225 NA
ENDBRANCH  13  14
ENDBRANCH   1  13
TORSDOF 4
ENDMDL
