MODEL 1
REMARK VINA RESULT:      -4.9      0.000      0.000
REMARK  4 active torsions:
REMARK  status: ('A' for Active; 'I' for Inactive)
REMARK    1  A    between atoms: N_3  and  S_1 
REMARK    2  A    between atoms: N_4  and  S_1 
REMARK    3  A    between atoms: N_2  and  C_7 
REMARK    4  A    between atoms: C_10  and  N_4 
ROOT
ATOM      1  N   UNL d   1      58.108   0.318  30.986  0.00  0.00    -0.144 NA
ENDROOT
BRANCH   1   2
ATOM      2  S   UNL d   1      57.991   0.434  30.177  0.00  0.00     0.351 S 
ATOM      3  O   UNL d   1      57.218   0.682  30.324  0.00  0.00    -0.180 OA
ATOM      4  O   UNL d   1      57.504   0.659  29.550  0.00  0.00    -0.180 OA
BRANCH   2   5
ATOM      5  N   UNL d   1      58.603   0.278  29.645  0.00  0.00    -0.215 N 
ATOM      6  C   UNL d   1      59.335   0.645  29.740  0.00  0.00     0.093 A 
ATOM      7  C   UNL d   1      59.946   0.488  29.208  0.00  0.00     0.020 A 
ATOM      8  C   UNL d   1      59.822  -0.034  28.586  0.00  0.00     0.003 A 
ATOM      9  C   UNL d   1      59.092  -0.403  28.488  0.00  0.00     0.020 A 
ATOM     10  C   UNL d   1      58.481  -0.246  29.019  0.00  0.00     0.093 A 
ENDBRANCH   2   5
ENDBRANCH   1   2
BRANCH   1  11
ATOM     11  C   UNL d   1      57.474   0.097  31.466  0.00  0.00     0.095 A 
ATOM     12  C   UNL d   1      57.068   0.669  31.901  0.00  0.00     0.022 A 
ATOM     13  C   UNL d   1      56.435   0.448  32.381  0.00  0.00     0.025 A 
ATOM     14  C   UNL d   1      56.207  -0.344  32.427  0.00  0.00     0.127 A 
ATOM     15  C   UNL d   1      56.615  -0.920  31.990  0.00  0.00     0.025 A 
ATOM     16  C   UNL d   1      57.248  -0.699  31.510  0.00  0.00     0.022 A 
BRANCH  14  17
ATOM     17  N   UNL d   1      55.574  -0.565  32.907  0.00  0.00    -0.114 N 
ATOM     18  O   UNL d   1      55.452  -1.364  33.086  0.00  0.00    -0.532 OA
ATOM     19  O   UNL d   1      55.064   0.011  33.207  0.00  0.00    -0.532 OA
ENDBRANCH  14  17
ENDBRANCH   1  11
TORSDOF 4
ENDMDL
MODEL 2
REMARK VINA RESULT:      -4.8      1.040      1.396
REMARK  4 active torsions:
REMARK  status: ('A' for Active; 'I' for Inactive)
REMARK    1  A    between atoms: N_3  and  S_1 
REMARK    2  A    between atoms: N_4  and  S_1 
REMARK    3  A    between atoms: N_2  and  C_7 
REMARK    4  A    between atoms: C_10  and  N_4 
ROOT
ATOM      1  N   UNL d   1      57.349  -0.395  31.668  0.00  0.00    -0.144 NA
ENDROOT
BRANCH   1   2
ATOM      2  S   UNL d   1      57.419   0.084  30.998  0.00  0.00     0.351 S 
ATOM      3  O   UNL d   1      56.659   0.377  31.129  0.00  0.00    -0.180 OA
ATOM      4  O   UNL d   1      57.099   0.644  30.484  0.00  0.00    -0.180 OA
BRANCH   2   5
ATOM      5  N   UNL d   1      58.112   0.068  30.551  0.00  0.00    -0.215 N 
ATOM      6  C   UNL d   1      58.658   0.682  30.617  0.00  0.00     0.093 A 
ATOM      7  C   UNL d   1      59.351   0.667  30.170  0.00  0.00     0.020 A 
ATOM      8  C   UNL d   1      59.494   0.038  29.659  0.00  0.00     0.003 A 
ATOM      9  C   UNL d   1      58.950  -0.576  29.590  0.00  0.00     0.020 A 
ATOM     10  C   UNL d   1      58.257  -0.561  30.038  0.00  0.00     0.093 A 
ENDBRANCH   2   5
ENDBRANCH   1   2
BRANCH   1  11
ATOM     11  C   UNL d   1      56.823  -0.189  32.269  0.00  0.00     0.095 A 
ATOM     12  C   UNL d   1      56.121  -0.611  32.365  0.00  0.00     0.022 A 
ATOM     13  C   UNL d   1      55.595  -0.405  32.967  0.00  0.00     0.025 A 
ATOM     14  C   UNL d   1      55.771   0.224  33.472  0.00  0.00     0.127 A 
ATOM     15  C   UNL d   1      56.477   0.649  33.376  0.00  0.00     0.025 A 
ATOM     16  C   UNL d   1      57.002   0.443  32.774  0.00  0.00     0.022 A 
BRANCH  14  17
ATOM     17  N   UNL d   1      55.245   0.430  34.073  0.00  0.00    -0.114 N 
ATOM     18  O   UNL d   1      55.519   0.505  34.852  0.00  0.00    -0.532 OA
ATOM     19  O   UNL d   1      54.450   0.561  33.898  0.00  0.00    -0.532 OA
ENDBRANCH  14  17
ENDBRANCH   1  11
TORSDOF 4
ENDMDL
MODEL 3
REMARK VINA RESULT:      -4.5      1.514      4.243
REMARK  4 active torsions:
REMARK  status: ('A' for Active; 'I' for Inactive)
REMARK    1  A    between atoms: N_3  and  S_1 
REMARK    2  A    between atoms: N_4  and  S_1 
REMARK    3  A    between atoms: N_2  and  C_7 
REMARK    4  A    between atoms: C_10  and  N_4 
ROOT
ATOM      1  N   UNL d   1      57.131   0.267  31.034  0.00  0.00    -0.144 NA
ENDROOT
BRANCH   1   2
ATOM      2  S   UNL d   1      57.243   0.225  31.851  0.00  0.00     0.351 S 
ATOM      3  O   UNL d   1      58.028   0.460  31.755  0.00  0.00    -0.180 OA
ATOM      4  O   UNL d   1      57.732   0.307  32.511  0.00  0.00    -0.180 OA
BRANCH   2   5
ATOM      5  N   UNL d   1      56.619   0.001  32.342  0.00  0.00    -0.215 N 
ATOM      6  C   UNL d   1      56.498  -0.795  32.518  0.00  0.00     0.093 A 
ATOM      7  C   UNL d   1      55.874  -1.019  33.008  0.00  0.00     0.020 A 
ATOM      8  C   UNL d   1      55.374  -0.446  33.321  0.00  0.00     0.003 A 
ATOM      9  C   UNL d   1      55.492   0.351  33.148  0.00  0.00     0.020 A 
ATOM     10  C   UNL d   1      56.116   0.575  32.657  0.00  0.00     0.093 A 
ENDBRANCH   2   5
ENDBRANCH   1   2
BRANCH   1  11
ATOM     11  C   UNL d   1      57.751   0.079  30.523  0.00  0.00     0.095 A 
ATOM     12  C   UNL d   1      57.890  -0.707  30.316  0.00  0.00     0.022 A 
ATOM     13  C   UNL d   1      58.510  -0.895  29.805  0.00  0.00     0.025 A 
ATOM     14  C   UNL d   1      58.991  -0.296  29.501  0.00  0.00     0.127 A 
ATOM     15  C   UNL d   1      58.852   0.494  29.709  0.00  0.00     0.025 A 
ATOM     16  C   UNL d   1      58.232   0.682  30.220  0.00  0.00     0.022 A 
BRANCH  14  17
ATOM     17  N   UNL d   1      59.611  -0.484  28.990  0.00  0.00    -0.114 N 
ATOM     18  O   UNL d   1      59.633  -1.227  28.625  0.00  0.00    -0.532 OA
ATOM     19  O   UNL d   1      60.206   0.069  28.844  0.00  0.00    -0.532 OA
ENDBRANCH  14  17
ENDBRANCH   1  11
TORSDOF 4
ENDMDL
MODEL 4
REMARK VINA RESULT:      -4.5      1.502      4.221
REMARK  4 active torsions:
REMARK  status: ('A' for Active; 'I' for Inactive)
REMARK    1  A    between atoms: N_3  and  S_1 
REMARK    2  A    between atoms: N_4  and  S_1 
REMARK    3  A    between atoms: N_2  and  C_7 
REMARK    4  A    between atoms: C_10  and  N_4 
ROOT
ATOM      1  N   UNL d   1      57.018   0.451  31.312  0.00  0.00    -0.144 NA
ENDROOT
BRANCH   1   2
ATOM      2  S   UNL d   1      56.737  -0.242  31.662  0.00  0.00     0.351 S 
ATOM      3  O   UNL d   1      57.111  -0.688  31.077  0.00  0.00    -0.180 OA
ATOM      4  O   UNL d   1      56.680  -1.065  31.672  0.00  0.00    -0.180 OA
BRANCH   2   5
ATOM      5  N   UNL d   1      56.273  -0.201  32.343  0.00  0.00    -0.215 N 
ATOM      6  C   UNL d   1      55.943   0.518  32.575  0.00  0.00     0.093 A 
ATOM      7  C   UNL d   1      55.479   0.559  33.255  0.00  0.00     0.020 A 
ATOM      8  C   UNL d   1      55.347  -0.120  33.700  0.00  0.00     0.003 A 
ATOM      9  C   UNL d   1      55.674  -0.840  33.472  0.00  0.00     0.020 A 
ATOM     10  C   UNL d   1      56.139  -0.881  32.791  0.00  0.00     0.093 A 
ENDBRANCH   2   5
ENDBRANCH   1   2
BRANCH   1  11
ATOM     11  C   UNL d   1      57.737   0.447  30.908  0.00  0.00     0.095 A 
ATOM     12  C   UNL d   1      58.428   0.680  31.294  0.00  0.00     0.022 A 
ATOM     13  C   UNL d   1      59.147   0.676  30.890  0.00  0.00     0.025 A 
ATOM     14  C   UNL d   1      59.176   0.438  30.099  0.00  0.00     0.127 A 
ATOM     15  C   UNL d   1      58.482   0.204  29.710  0.00  0.00     0.025 A 
ATOM     16  C   UNL d   1      57.763   0.208  30.115  0.00  0.00     0.022 A 
BRANCH  14  17
ATOM     17  N   UNL d   1      59.895   0.434  29.695  0.00  0.00    -0.114 N 
ATOM     18  O   UNL d   1      60.583   0.180  30.081  0.00  0.00    -0.532 OA
ATOM     19  O   UNL d   1      59.927   0.682  28.909  0.00  0.00    -0.532 OA
ENDBRANCH  14  17
ENDBRANCH   1  11
TORSDOF 4
ENDMDL
