MODEL 1
REMARK VINA RESULT:      -9.3      0.000      0.000
REMARK  4 active torsions:
REMARK  status: ('A' for Active; 'I' for Inactive)
REMARK    1  A    between atoms: C_18  and  N_4 
REMARK    2  A    between atoms: C_11  and  C_6 
REMARK       I    between atoms: N_15  and  C_11 
REMARK    3  A    between atoms: C_26  and  N_15 
REMARK    4  A    between atoms: C_17  and  C_26 
ROOT
ATOM      1  C   UNL d   1     -48.370  13.165  23.026  0.00  0.00     0.155 A 
ATOM      2  C   UNL d   1     -48.100  12.415  23.232  0.00  0.00     0.091 A 
ATOM      3  N   UNL d   1     -49.183  13.320  23.042  0.00  0.00    -0.210 NA
ATOM      4  N   UNL d   1     -47.840  13.741  22.811  0.00  0.00    -0.275 N 
ATOM      5  C   UNL d   1     -47.038  13.589  22.796  0.00  0.00     0.175 A 
ATOM      6  C   UNL d   1     -46.768  12.840  23.001  0.00  0.00     0.094 A 
ATOM      7  N   UNL d   1     -49.449  11.980  23.467  0.00  0.00    -0.258 N 
ATOM      8  C   UNL d   1     -49.723  12.741  23.259  0.00  0.00     0.152 A 
ATOM      9  C   UNL d   1     -48.638  11.810  23.456  0.00  0.00     0.269 A 
ATOM     10  C   UNL d   1     -47.292  12.247  23.220  0.00  0.00     0.016 A 
ATOM     11  C   UNL d   1     -50.525  12.900  23.272  0.00  0.00     0.035 A 
ATOM     12  N   UNL d   1     -46.493  14.177  22.576  0.00  0.00    -0.128 N 
ATOM     13  C   UNL d   1     -49.980  11.389  23.687  0.00  0.00     0.084 A 
ATOM     14  O   UNL d   1     -48.362  11.069  23.658  0.00  0.00    -0.266 OA
ATOM     15  C   UNL d   1     -50.789  11.560  23.697  0.00  0.00     0.019 A 
ATOM     16  C   UNL d   1     -51.063  12.321  23.489  0.00  0.00     0.005 A 
ATOM     17  C   UNL d   1     -50.797  13.656  23.065  0.00  0.00     0.003 C 
ENDROOT
BRANCH   6  18
ATOM     18  C   UNL d   1     -45.953  12.678  22.987  0.00  0.00     0.282 C 
ATOM     19  N   UNL d   1     -45.666  11.963  23.282  0.00  0.00    -0.204 NA
ATOM     20  O   UNL d   1     -45.428  13.238  22.676  0.00  0.00    -0.265 OA
BRANCH  19  21
ATOM     21  C   UNL d   1     -44.861  11.803  23.268  0.00  0.00     0.127 C 
BRANCH  21  22
ATOM     22  C   UNL d   1     -44.585  11.030  23.389  0.00  0.00     0.119 A 
ATOM     23  O   UNL d   1     -45.034  10.388  23.652  0.00  0.00    -0.304 OA
ATOM     24  C   UNL d   1     -44.533   9.730  23.691  0.00  0.00     0.123 A 
ATOM     25  C   UNL d   1     -43.781   9.969  23.453  0.00  0.00     0.029 A 
ATOM     26  C   UNL d   1     -43.815  10.776  23.266  0.00  0.00     0.028 A 
ENDBRANCH  21  22
ENDBRANCH  19  21
ENDBRANCH   6  18
BRANCH   4  27
ATOM     27  C   UNL d   1     -48.113  14.497  22.604  0.00  0.00     0.067 A 
ATOM     28  C   UNL d   1     -48.275  14.751  21.837  0.00  0.00     0.018 A 
ATOM     29  C   UNL d   1     -48.531  15.535  21.881  0.00  0.00     0.002 A 
ATOM     30  C   UNL d   1     -48.527  15.768  22.684  0.00  0.00     0.002 A 
ATOM     31  C   UNL d   1     -48.268  15.121  23.120  0.00  0.00     0.018 A 
ENDBRANCH   4  27
TORSDOF 4
ENDMDL
MODEL 2
REMARK VINA RESULT:      -9.2      0.865      2.779
REMARK  4 active torsions:
REMARK  status: ('A' for Active; 'I' for Inactive)
REMARK    1  A    between atoms: C_18  and  N_4 
REMARK    2  A    between atoms: C_11  and  C_6 
REMARK       I    between atoms: N_15  and  C_11 
REMARK    3  A    between atoms: C_26  and  N_15 
REMARK    4  A    between atoms: C_17  and  C_26 
ROOT
ATOM      1  C   UNL d   1     -48.148  13.037  22.971  0.00  0.00     0.155 A 
ATOM      2  C   UNL d   1     -47.326  13.094  23.007  0.00  0.00     0.091 A 
ATOM      3  N   UNL d   1     -48.592  13.711  22.789  0.00  0.00    -0.210 NA
ATOM      4  N   UNL d   1     -48.509  12.325  23.114  0.00  0.00    -0.275 N 
ATOM      5  C   UNL d   1     -48.071  11.659  23.294  0.00  0.00     0.175 A 
ATOM      6  C   UNL d   1     -47.252  11.717  23.330  0.00  0.00     0.094 A 
ATOM      7  N   UNL d   1     -47.398  14.492  22.680  0.00  0.00    -0.258 N 
ATOM      8  C   UNL d   1     -48.231  14.434  22.643  0.00  0.00     0.152 A 
ATOM      9  C   UNL d   1     -46.940  13.826  22.862  0.00  0.00     0.269 A 
ATOM     10  C   UNL d   1     -46.871  12.431  23.188  0.00  0.00     0.016 A 
ATOM     11  C   UNL d   1     -48.675  15.095  22.463  0.00  0.00     0.035 A 
ATOM     12  N   UNL d   1     -48.440  10.929  23.441  0.00  0.00    -0.128 N 
ATOM     13  C   UNL d   1     -47.022  15.211  22.536  0.00  0.00     0.084 A 
ATOM     14  O   UNL d   1     -46.126  13.874  22.900  0.00  0.00    -0.266 OA
ATOM     15  C   UNL d   1     -47.480  15.875  22.355  0.00  0.00     0.019 A 
ATOM     16  C   UNL d   1     -48.313  15.817  22.318  0.00  0.00     0.005 A 
ATOM     17  C   UNL d   1     -49.502  15.038  22.427  0.00  0.00     0.003 C 
ENDROOT
BRANCH   6  18
ATOM     18  C   UNL d   1     -46.800  11.044  23.513  0.00  0.00     0.282 C 
ATOM     19  N   UNL d   1     -45.976  11.084  23.513  0.00  0.00    -0.204 NA
ATOM     20  O   UNL d   1     -47.179  10.331  23.696  0.00  0.00    -0.265 OA
BRANCH  19  21
ATOM     21  C   UNL d   1     -45.530  10.420  23.694  0.00  0.00     0.127 C 
BRANCH  21  22
ATOM     22  C   UNL d   1     -44.709  10.419  23.570  0.00  0.00     0.119 A 
ATOM     23  O   UNL d   1     -44.245  11.075  23.373  0.00  0.00    -0.304 OA
ATOM     24  C   UNL d   1     -43.462  10.817  23.305  0.00  0.00     0.123 A 
ATOM     25  C   UNL d   1     -43.447  10.008  23.459  0.00  0.00     0.029 A 
ATOM     26  C   UNL d   1     -44.221   9.762  23.624  0.00  0.00     0.028 A 
ENDBRANCH  21  22
ENDBRANCH  19  21
ENDBRANCH   6  18
BRANCH   4  27
ATOM     27  C   UNL d   1     -49.337  12.267  23.077  0.00  0.00     0.067 A 
ATOM     28  C   UNL d   1     -49.771  12.074  22.404  0.00  0.00     0.018 A 
ATOM     29  C   UNL d   1     -50.570  12.078  22.612  0.00  0.00     0.002 A 
ATOM     30  C   UNL d   1     -50.631  12.276  23.422  0.00  0.00     0.002 A 
ATOM     31  C   UNL d   1     -49.864  12.389  23.698  0.00  0.00     0.018 A 
ENDBRANCH   4  27
TORSDOF 4
ENDMDL
