MODEL 1
REMARK VINA RESULT:      53.4      0.000      0.000
REMARK  6 active torsions:
REMARK  status: ('A' for Active; 'I' for Inactive)
REMARK    1  A    between atoms: C_3  and  C_2 
REMARK    2  A    between atoms: O_5  and  C_3 
REMARK    3  A    between atoms: C_9  and  O_5 
REMARK    4  A    between atoms: C_6  and  C_9 
REMARK    5  A    between atoms: C_7  and  C_6 
REMARK    6  A    between atoms: O_19  and  C_16 
ROOT
ATOM      1  C   UNL d   1     -49.310  27.220  34.052  0.00  0.00     0.318 C 
ATOM      2  O   UNL d   1     -48.592  26.901  33.800  0.00  0.00    -0.257 OA
ENDROOT
BRANCH   1   3
ATOM      3  C   UNL d   1     -50.020  26.834  33.883  0.00  0.00     0.145 A 
ATOM      4  N   UNL d   1     -50.032  26.001  33.810  0.00  0.00    -0.240 NA
ATOM      5  C   UNL d   1     -50.738  25.612  33.642  0.00  0.00     0.082 A 
ATOM      6  C   UNL d   1     -51.446  26.050  33.545  0.00  0.00     0.018 A 
ATOM      7  C   UNL d   1     -50.751  24.795  33.569  0.00  0.00     0.019 A 
ATOM      8  C   UNL d   1     -51.436  26.880  33.618  0.00  0.00     0.003 A 
ATOM      9  C   UNL d   1     -52.151  25.662  33.377  0.00  0.00     0.002 A 
ATOM     10  C   UNL d   1     -50.724  27.270  33.787  0.00  0.00     0.025 A 
ATOM     11  C   UNL d   1     -52.154  24.837  33.306  0.00  0.00     0.000 A 
ATOM     12  C   UNL d   1     -51.458  24.406  33.401  0.00  0.00     0.002 A 
ENDBRANCH   1   3
BRANCH   1  13
ATOM     13  O   UNL d   1     -49.318  27.934  34.476  0.00  0.00    -0.266 OA
BRANCH  13  14
ATOM     14  C   UNL d   1     -48.673  28.444  34.440  0.00  0.00     0.168 C 
BRANCH  14  15
ATOM     15  C   UNL d   1     -48.295  28.690  35.128  0.00  0.00     0.220 C 
ATOM     16  O   UNL d   1     -48.182  28.152  35.743  0.00  0.00    -0.284 OA
BRANCH  15  17
ATOM     17  C   UNL d   1     -48.032  29.470  35.202  0.00  0.00     0.041 A 
ATOM     18  C   UNL d   1     -47.472  29.655  35.779  0.00  0.00     0.005 A 
ATOM     19  C   UNL d   1     -47.212  30.433  35.850  0.00  0.00     0.024 A 
ATOM     20  C   UNL d   1     -47.511  31.020  35.346  0.00  0.00     0.094 A 
ATOM     21  C   UNL d   1     -48.070  30.823  34.772  0.00  0.00     0.024 A 
ATOM     22  C   UNL d   1     -48.331  30.045  34.701  0.00  0.00     0.005 A 
BRANCH  20  23
ATOM     23  O   UNL d   1     -47.250  31.791  35.419  0.00  0.00    -0.328 OA
ATOM     24  C   UNL d   1     -46.715  32.101  34.866  0.00  0.00     0.181 C 
ENDBRANCH  20  23
ENDBRANCH  15  17
ENDBRANCH  14  15
ENDBRANCH  13  14
ENDBRANCH   1  13
TORSDOF 6
ENDMDL
MODEL 2
REMARK VINA RESULT:      54.7      1.391      5.713
REMARK  6 active torsions:
REMARK  status: ('A' for Active; 'I' for Inactive)
REMARK    1  A    between atoms: C_3  and  C_2 
REMARK    2  A    between atoms: O_5  and  C_3 
REMARK    3  A    between atoms: C_9  and  O_5 
REMARK    4  A    between atoms: C_6  and  C_9 
REMARK    5  A    between atoms: C_7  and  C_6 
REMARK    6  A    between atoms: O_19  and  C_16 
ROOT
ATOM      1  C   UNL d   1     -49.100  27.868  35.243  0.00  0.00     0.318 C 
ATOM      2  O   UNL d   1     -49.626  27.558  35.797  0.00  0.00    -0.257 OA
ENDROOT
BRANCH   1   3
ATOM      3  C   UNL d   1     -48.611  28.502  35.442  0.00  0.00     0.145 A 
ATOM      4  N   UNL d   1     -48.442  29.091  34.872  0.00  0.00    -0.240 NA
ATOM      5  C   UNL d   1     -47.955  29.726  35.066  0.00  0.00     0.082 A 
ATOM      6  C   UNL d   1     -47.628  29.783  35.835  0.00  0.00     0.018 A 
ATOM      7  C   UNL d   1     -47.789  30.304  34.508  0.00  0.00     0.019 A 
ATOM      8  C   UNL d   1     -47.795  29.198  36.404  0.00  0.00     0.003 A 
ATOM      9  C   UNL d   1     -47.141  30.417  36.030  0.00  0.00     0.002 A 
ATOM     10  C   UNL d   1     -48.286  28.560  36.207  0.00  0.00     0.025 A 
ATOM     11  C   UNL d   1     -46.980  30.995  35.459  0.00  0.00     0.000 A 
ATOM     12  C   UNL d   1     -47.302  30.939  34.703  0.00  0.00     0.002 A 
ENDBRANCH   1   3
BRANCH   1  13
ATOM     13  O   UNL d   1     -49.061  27.539  34.481  0.00  0.00    -0.266 OA
BRANCH  13  14
ATOM     14  C   UNL d   1     -49.728  27.188  34.147  0.00  0.00     0.168 C 
BRANCH  14  15
ATOM     15  C   UNL d   1     -49.657  26.507  33.693  0.00  0.00     0.220 C 
ATOM     16  O   UNL d   1     -48.935  26.331  33.335  0.00  0.00    -0.284 OA
BRANCH  15  17
ATOM     17  C   UNL d   1     -50.305  26.003  33.597  0.00  0.00     0.041 A 
ATOM     18  C   UNL d   1     -50.176  25.203  33.440  0.00  0.00     0.005 A 
ATOM     19  C   UNL d   1     -50.823  24.704  33.344  0.00  0.00     0.024 A 
ATOM     20  C   UNL d   1     -51.594  25.004  33.406  0.00  0.00     0.094 A 
ATOM     21  C   UNL d   1     -51.710  25.805  33.563  0.00  0.00     0.024 A 
ATOM     22  C   UNL d   1     -51.064  26.305  33.659  0.00  0.00     0.005 A 
BRANCH  20  23
ATOM     23  O   UNL d   1     -52.234  24.506  33.311  0.00  0.00    -0.328 OA
ATOM     24  C   UNL d   1     -52.141  23.688  33.415  0.00  0.00     0.181 C 
ENDBRANCH  20  23
ENDBRANCH  15  17
ENDBRANCH  14  15
ENDBRANCH  13  14
ENDBRANCH   1  13
TORSDOF 6
ENDMDL
MODEL 3
REMARK VINA RESULT:      55.6      1.331      5.679
REMARK  6 active torsions:
REMARK  status: ('A' for Active; 'I' for Inactive)
REMARK    1  A    between atoms: C_3  and  C_2 
REMARK    2  A    between atoms: O_5  and  C_3 
REMARK    3  A    between atoms: C_9  and  O_5 
REMARK    4  A    between atoms: C_6  and  C_9 
REMARK    5  A    between atoms: C_7  and  C_6 
REMARK    6  A    between atoms: O_19  and  C_16 
ROOT
ATOM      1  C   UNL d   1     -48.284  28.875  35.123  0.00  0.00     0.318 C 
ATOM      2  O   UNL d   1     -48.200  28.406  35.797  0.00  0.00    -0.257 OA
ENDROOT
BRANCH   1   3
ATOM      3  C   UNL d   1     -47.972  29.639  35.105  0.00  0.00     0.145 A 
ATOM      4  N   UNL d   1     -48.339  30.225  34.635  0.00  0.00    -0.240 NA
ATOM      5  C   UNL d   1     -48.031  30.989  34.614  0.00  0.00     0.082 A 
ATOM      6  C   UNL d   1     -47.350  31.179  35.063  0.00  0.00     0.018 A 
ATOM      7  C   UNL d   1     -48.390  31.565  34.153  0.00  0.00     0.019 A 
ATOM      8  C   UNL d   1     -46.984  30.596  35.532  0.00  0.00     0.003 A 
ATOM      9  C   UNL d   1     -47.043  31.942  35.043  0.00  0.00     0.002 A 
ATOM     10  C   UNL d   1     -47.296  29.828  35.552  0.00  0.00     0.025 A 
ATOM     11  C   UNL d   1     -47.412  32.516  34.574  0.00  0.00     0.000 A 
ATOM     12  C   UNL d   1     -48.081  32.329  34.132  0.00  0.00     0.002 A 
ENDBRANCH   1   3
BRANCH   1  13
ATOM     13  O   UNL d   1     -48.685  28.576  34.461  0.00  0.00    -0.266 OA
BRANCH  13  14
ATOM     14  C   UNL d   1     -49.133  27.888  34.523  0.00  0.00     0.168 C 
BRANCH  14  15
ATOM     15  C   UNL d   1     -49.192  27.368  33.888  0.00  0.00     0.220 C 
ATOM     16  O   UNL d   1     -48.538  27.251  33.399  0.00  0.00    -0.284 OA
BRANCH  15  17
ATOM     17  C   UNL d   1     -49.899  26.967  33.743  0.00  0.00     0.041 A 
ATOM     18  C   UNL d   1     -49.881  26.159  33.579  0.00  0.00     0.005 A 
ATOM     19  C   UNL d   1     -50.588  25.763  33.434  0.00  0.00     0.024 A 
ATOM     20  C   UNL d   1     -51.308  26.175  33.454  0.00  0.00     0.094 A 
ATOM     21  C   UNL d   1     -51.314  26.983  33.619  0.00  0.00     0.024 A 
ATOM     22  C   UNL d   1     -50.607  27.380  33.764  0.00  0.00     0.005 A 
BRANCH  20  23
ATOM     23  O   UNL d   1     -52.008  25.779  33.310  0.00  0.00    -0.328 OA
ATOM     24  C   UNL d   1     -52.380  25.361  33.922  0.00  0.00     0.181 C 
ENDBRANCH  20  23
ENDBRANCH  15  17
ENDBRANCH  14  15
ENDBRANCH  13  14
ENDBRANCH   1  13
TORSDOF 6
ENDMDL
