MODEL 1
REMARK VINA RESULT:      -1.6      0.000      0.000
REMARK  6 active torsions:
REMARK  status: ('A' for Active; 'I' for Inactive)
REMARK    1  A    between atoms: S_15  and  C_4 
REMARK    2  A    between atoms: C_7  and  N_13 
REMARK    3  A    between atoms: S_20  and  C_11 
REMARK       I    between atoms: N_13  and  C_16 
REMARK    4  A    between atoms: C_21  and  S_15 
REMARK    5  A    between atoms: C_16  and  C_21 
REMARK    6  A    between atoms: C_23  and  S_20 
ROOT
ATOM      1  S   UNL d   1      33.156  17.213 -22.995  0.00  0.00    -0.044 SA
ENDROOT
BRANCH   1   2
ATOM      2  C   UNL d   1      33.177  18.035 -23.134  0.00  0.00     0.182 A 
ATOM      3  N   UNL d   1      33.179  18.324 -23.916  0.00  0.00    -0.222 NA
ATOM      4  C   UNL d   1      33.199  19.127 -24.051  0.00  0.00     0.095 A 
ATOM      5  C   UNL d   1      33.217  19.657 -23.419  0.00  0.00     0.104 A 
ATOM      6  C   UNL d   1      33.206  19.561 -24.751  0.00  0.00     0.026 A 
ATOM      7  C   UNL d   1      33.215  19.385 -22.652  0.00  0.00     0.274 A 
ATOM      8  S   UNL d   1      33.235  20.419 -23.730  0.00  0.00    -0.081 SA
ATOM      9  N   UNL d   1      33.195  18.565 -22.502  0.00  0.00    -0.251 N 
ATOM     10  O   UNL d   1      33.233  19.915 -22.020  0.00  0.00    -0.266 OA
ATOM     11  C   UNL d   1      33.193  18.283 -21.721  0.00  0.00     0.104 C 
ATOM     12  C   UNL d   1      33.228  20.355 -24.556  0.00  0.00     0.031 A 
ATOM     13  C   UNL d   1      33.241  20.977 -25.097  0.00  0.00     0.007 C 
ENDBRANCH   1   2
BRANCH   1  14
ATOM     14  C   UNL d   1      32.702  16.728 -23.485  0.00  0.00     0.101 C 
BRANCH  14  15
ATOM     15  C   UNL d   1      32.629  15.923 -23.316  0.00  0.00     0.288 C 
ATOM     16  N   UNL d   1      31.954  15.512 -23.551  0.00  0.00    -0.181 NA
ATOM     17  O   UNL d   1      33.233  15.531 -22.911  0.00  0.00    -0.265 OA
BRANCH  16  18
ATOM     18  C   UNL d   1      31.352  15.905 -23.956  0.00  0.00     0.219 A 
ATOM     19  S   UNL d   1      30.649  16.247 -23.708  0.00  0.00    -0.019 SA
ATOM     20  C   UNL d   1      30.267  16.561 -24.363  0.00  0.00     0.165 A 
ATOM     21  N   UNL d   1      30.731  16.413 -25.010  0.00  0.00    -0.133 NA
ATOM     22  N   UNL d   1      31.404  16.008 -24.769  0.00  0.00    -0.120 NA
BRANCH  20  23
ATOM     23  S   UNL d   1      29.543  16.956 -24.373  0.00  0.00    -0.059 SA
BRANCH  23  24
ATOM     24  C   UNL d   1      29.000  16.822 -23.773  0.00  0.00     0.037 C 
ATOM     25  C   UNL d   1      28.246  17.176 -23.813  0.00  0.00     0.008 C 
ENDBRANCH  23  24
ENDBRANCH  20  23
ENDBRANCH  16  18
ENDBRANCH  14  15
ENDBRANCH   1  14
TORSDOF 6
ENDMDL
MODEL 2
REMARK VINA RESULT:       0.2      3.221      5.919
REMARK  6 active torsions:
REMARK  status: ('A' for Active; 'I' for Inactive)
REMARK    1  A    between atoms: S_15  and  C_4 
REMARK    2  A    between atoms: C_7  and  N_13 
REMARK    3  A    between atoms: S_20  and  C_11 
REMARK       I    between atoms: N_13  and  C_16 
REMARK    4  A    between atoms: C_21  and  S_15 
REMARK    5  A    between atoms: C_16  and  C_21 
REMARK    6  A    between atoms: C_23  and  S_20 
ROOT
ATOM      1  S   UNL d   1      33.140  22.056 -23.633  0.00  0.00    -0.044 SA
ENDROOT
BRANCH   1   2
ATOM      2  C   UNL d   1      33.165  21.223 -23.622  0.00  0.00     0.182 A 
ATOM      3  N   UNL d   1      33.165  20.817 -22.894  0.00  0.00    -0.222 NA
ATOM      4  C   UNL d   1      33.189  20.003 -22.884  0.00  0.00     0.095 A 
ATOM      5  C   UNL d   1      33.214  19.576 -23.590  0.00  0.00     0.104 A 
ATOM      6  C   UNL d   1      33.195  19.466 -22.259  0.00  0.00     0.026 A 
ATOM      7  C   UNL d   1      33.214  19.964 -24.306  0.00  0.00     0.274 A 
ATOM      8  S   UNL d   1      33.235  18.776 -23.400  0.00  0.00    -0.081 SA
ATOM      9  N   UNL d   1      33.190  20.796 -24.328  0.00  0.00    -0.251 N 
ATOM     10  O   UNL d   1      33.238  19.537 -25.011  0.00  0.00    -0.266 OA
ATOM     11  C   UNL d   1      33.190  21.196 -25.057  0.00  0.00     0.104 C 
ATOM     12  C   UNL d   1      33.223  18.712 -22.574  0.00  0.00     0.031 A 
ATOM     13  C   UNL d   1      33.237  18.014 -22.135  0.00  0.00     0.007 C 
ENDBRANCH   1   2
BRANCH   1  14
ATOM     14  C   UNL d   1      33.088  22.472 -22.922  0.00  0.00     0.101 C 
BRANCH  14  15
ATOM     15  C   UNL d   1      32.908  23.278 -22.927  0.00  0.00     0.288 C 
ATOM     16  N   UNL d   1      32.731  23.666 -22.221  0.00  0.00    -0.181 NA
ATOM     17  O   UNL d   1      32.906  23.695 -23.640  0.00  0.00    -0.265 OA
BRANCH  16  18
ATOM     18  C   UNL d   1      32.733  23.248 -21.509  0.00  0.00     0.219 A 
ATOM     19  S   UNL d   1      33.155  23.342 -20.812  0.00  0.00    -0.019 SA
ATOM     20  C   UNL d   1      32.925  22.755 -20.287  0.00  0.00     0.165 A 
ATOM     21  N   UNL d   1      32.365  22.302 -20.658  0.00  0.00    -0.133 NA
ATOM     22  N   UNL d   1      32.240  22.599 -21.414  0.00  0.00    -0.120 NA
BRANCH  20  23
ATOM     23  S   UNL d   1      33.205  22.637 -19.520  0.00  0.00    -0.059 SA
BRANCH  23  24
ATOM     24  C   UNL d   1      32.826  23.001 -18.890  0.00  0.00     0.037 C 
ATOM     25  C   UNL d   1      33.108  22.881 -18.114  0.00  0.00     0.008 C 
ENDBRANCH  23  24
ENDBRANCH  20  23
ENDBRANCH  16  18
ENDBRANCH  14  15
ENDBRANCH   1  14
TORSDOF 6
ENDMDL
MODEL 3
REMARK VINA RESULT:       0.3      1.651      4.170
REMARK  6 active torsions:
REMARK  status: ('A' for Active; 'I' for Inactive)
REMARK    1  A    between atoms: S_15  and  C_4 
REMARK    2  A    between atoms: C_7  and  N_13 
REMARK    3  A    between atoms: S_20  and  C_11 
REMARK       I    between atoms: N_13  and  C_16 
REMARK    4  A    between atoms: C_21  and  S_15 
REMARK    5  A    between atoms: C_16  and  C_21 
REMARK    6  A    between atoms: C_23  and  S_20 
ROOT
ATOM      1  S   UNL d   1      31.409  16.274 -24.089  0.00  0.00    -0.044 SA
ENDROOT
BRANCH   1   2
ATOM      2  C   UNL d   1      30.601  16.481 -24.070  0.00  0.00     0.182 A 
ATOM      3  N   UNL d   1      30.317  17.089 -24.565  0.00  0.00    -0.222 NA
ATOM      4  C   UNL d   1      29.528  17.291 -24.546  0.00  0.00     0.095 A 
ATOM      5  C   UNL d   1      29.008  16.899 -24.040  0.00  0.00     0.104 A 
ATOM      6  C   UNL d   1      29.101  17.858 -24.965  0.00  0.00     0.026 A 
ATOM      7  C   UNL d   1      29.276  16.305 -23.553  0.00  0.00     0.274 A 
ATOM      8  S   UNL d   1      28.260  17.224 -24.147  0.00  0.00    -0.081 SA
ATOM      9  N   UNL d   1      30.081  16.089 -23.564  0.00  0.00    -0.251 N 
ATOM     10  O   UNL d   1      28.756  15.912 -23.047  0.00  0.00    -0.266 OA
ATOM     11  C   UNL d   1      30.359  15.483 -23.068  0.00  0.00     0.104 C 
ATOM     12  C   UNL d   1      28.322  17.818 -24.721  0.00  0.00     0.031 A 
ATOM     13  C   UNL d   1      27.711  18.293 -25.005  0.00  0.00     0.007 C 
ENDBRANCH   1   2
BRANCH   1  14
ATOM     14  C   UNL d   1      31.969  16.835 -24.319  0.00  0.00     0.101 C 
BRANCH  14  15
ATOM     15  C   UNL d   1      32.626  16.605 -24.763  0.00  0.00     0.288 C 
ATOM     16  N   UNL d   1      33.241  17.138 -24.897  0.00  0.00    -0.181 NA
ATOM     17  O   UNL d   1      32.667  15.840 -25.072  0.00  0.00    -0.265 OA
BRANCH  16  18
ATOM     18  C   UNL d   1      33.199  17.902 -24.587  0.00  0.00     0.219 A 
ATOM     19  S   UNL d   1      33.241  18.193 -23.821  0.00  0.00    -0.019 SA
ATOM     20  C   UNL d   1      33.164  19.009 -23.849  0.00  0.00     0.165 A 
ATOM     21  N   UNL d   1      33.075  19.220 -24.626  0.00  0.00    -0.133 NA
ATOM     22  N   UNL d   1      33.095  18.543 -25.090  0.00  0.00    -0.120 NA
BRANCH  20  23
ATOM     23  S   UNL d   1      33.174  19.531 -23.209  0.00  0.00    -0.059 SA
BRANCH  23  24
ATOM     24  C   UNL d   1      32.858  19.295 -22.490  0.00  0.00     0.037 C 
ATOM     25  C   UNL d   1      32.749  19.857 -21.884  0.00  0.00     0.008 C 
ENDBRANCH  23  24
ENDBRANCH  20  23
ENDBRANCH  16  18
ENDBRANCH  14  15
ENDBRANCH   1  14
TORSDOF 6
ENDMDL
