MODEL 1
REMARK VINA RESULT:      -1.9      0.000      0.000
REMARK  1 active torsions:
REMARK  status: ('A' for Active; 'I' for Inactive)
REMARK    1  A    between atoms: C_14  and  C_5 
ROOT
ATOM      1  C   UNL d   1      59.568   0.340  31.092  0.00  0.00     0.111 A 
ATOM      2  C   UNL d   1      58.148   0.326  31.339  0.00  0.00     0.062 A 
ATOM      3  C   UNL d   1      59.669   0.555  31.943  0.00  0.00     0.213 A 
ATOM      4  C   UNL d   1      58.258   0.521  32.107  0.00  0.00     0.101 A 
ATOM      5  C   UNL d   1      58.805   0.235  30.830  0.00  0.00     0.018 A 
ATOM      6  O   UNL d   1      59.017   0.635  32.406  0.00  0.00    -0.288 OA
ATOM      7  C   UNL d   1      57.382   0.210  31.032  0.00  0.00     0.194 A 
ATOM      8  C   UNL d   1      60.216   0.250  30.590  0.00  0.00     0.105 C 
ATOM      9  N   UNL d   1      60.855   0.154  30.067  0.00  0.00    -0.191 NA
ATOM     10  C   UNL d   1      57.610   0.611  32.608  0.00  0.00     0.002 A 
ATOM     11  C   UNL d   1      56.846   0.507  32.347  0.00  0.00     0.042 A 
ATOM     12  C   UNL d   1      56.738   0.293  31.503  0.00  0.00     0.019 A 
ATOM     13  O   UNL d   1      57.267   0.001  30.206  0.00  0.00    -0.287 OA
ATOM     14  N   UNL d   1      60.441   0.682  32.294  0.00  0.00    -0.120 N 
ATOM     15  C   UNL d   1      56.543   0.678  33.106  0.00  0.00     0.009 C 
ATOM     16  C   UNL d   1      56.041   0.437  32.235  0.00  0.00     0.009 C 
ENDROOT
BRANCH   5  17
ATOM     17  C   UNL d   1      58.691   0.039  30.060  0.00  0.00     0.001 A 
ATOM     18  C   UNL d   1      58.684  -0.738  29.856  0.00  0.00     0.000 A 
ATOM     19  C   UNL d   1      58.567  -0.961  29.056  0.00  0.00     0.000 A 
ATOM     20  C   UNL d   1      58.461  -0.397  28.496  0.00  0.00     0.000 A 
ATOM     21  C   UNL d   1      58.469   0.407  28.712  0.00  0.00     0.000 A 
ATOM     22  C   UNL d   1      58.585   0.623  29.503  0.00  0.00     0.000 A 
ENDBRANCH   5  17
TORSDOF 1
ENDMDL
MODEL 2
REMARK VINA RESULT:      -1.6      1.531      2.256
REMARK  1 active torsions:
REMARK  status: ('A' for Active; 'I' for Inactive)
REMARK    1  A    between atoms: C_14  and  C_5 
ROOT
ATOM      1  C   UNL d   1      59.859  -0.805  29.468  0.00  0.00     0.111 A 
ATOM      2  C   UNL d   1      58.623  -0.945  30.196  0.00  0.00     0.062 A 
ATOM      3  C   UNL d   1      59.910   0.012  29.800  0.00  0.00     0.213 A 
ATOM      4  C   UNL d   1      58.685  -0.203  30.486  0.00  0.00     0.101 A 
ATOM      5  C   UNL d   1      59.212  -1.247  29.685  0.00  0.00     0.018 A 
ATOM      6  O   UNL d   1      59.328   0.274  30.288  0.00  0.00    -0.288 OA
ATOM      7  C   UNL d   1      57.975  -1.430  30.394  0.00  0.00     0.194 A 
ATOM      8  C   UNL d   1      60.440  -1.103  28.964  0.00  0.00     0.105 C 
ATOM      9  N   UNL d   1      61.015  -1.423  28.455  0.00  0.00    -0.191 NA
ATOM     10  C   UNL d   1      58.104   0.095  30.990  0.00  0.00     0.002 A 
ATOM     11  C   UNL d   1      57.456  -0.347  31.207  0.00  0.00     0.042 A 
ATOM     12  C   UNL d   1      57.399  -1.159  30.882  0.00  0.00     0.019 A 
ATOM     13  O   UNL d   1      57.911  -2.227  30.080  0.00  0.00    -0.287 OA
ATOM     14  N   UNL d   1      60.561   0.539  29.618  0.00  0.00    -0.120 N 
ATOM     15  C   UNL d   1      57.162   0.279  31.674  0.00  0.00     0.009 C 
ATOM     16  C   UNL d   1      56.766  -0.660  31.509  0.00  0.00     0.009 C 
ENDROOT
BRANCH   5  17
ATOM     17  C   UNL d   1      59.146  -1.993  29.395  0.00  0.00     0.001 A 
ATOM     18  C   UNL d   1      58.654  -2.123  28.773  0.00  0.00     0.000 A 
ATOM     19  C   UNL d   1      58.574  -2.896  28.457  0.00  0.00     0.000 A 
ATOM     20  C   UNL d   1      58.989  -3.504  28.776  0.00  0.00     0.000 A 
ATOM     21  C   UNL d   1      59.498  -3.363  29.421  0.00  0.00     0.000 A 
ATOM     22  C   UNL d   1      59.575  -2.599  29.730  0.00  0.00     0.000 A 
ENDBRANCH   5  17
TORSDOF 1
ENDMDL
MODEL 3
REMARK VINA RESULT:      -1.4      2.506      4.306
REMARK  1 active torsions:
REMARK  status: ('A' for Active; 'I' for Inactive)
REMARK    1  A    between atoms: C_14  and  C_5 
ROOT
ATOM      1  C   UNL d   1      58.812  -1.205  29.611  0.00  0.00     0.111 A 
ATOM      2  C   UNL d   1      59.852  -2.080  29.131  0.00  0.00     0.062 A 
ATOM      3  C   UNL d   1      58.310  -1.926  29.705  0.00  0.00     0.213 A 
ATOM      4  C   UNL d   1      59.384  -2.722  29.222  0.00  0.00     0.101 A 
ATOM      5  C   UNL d   1      59.565  -1.319  29.326  0.00  0.00     0.018 A 
ATOM      6  O   UNL d   1      58.614  -2.643  29.508  0.00  0.00    -0.288 OA
ATOM      7  C   UNL d   1      60.630  -2.154  28.842  0.00  0.00     0.194 A 
ATOM      8  C   UNL d   1      58.529  -0.454  29.804  0.00  0.00     0.105 C 
ATOM      9  N   UNL d   1      58.263   0.311  29.992  0.00  0.00    -0.191 NA
ATOM     10  C   UNL d   1      59.666  -3.471  29.030  0.00  0.00     0.002 A 
ATOM     11  C   UNL d   1      60.420  -3.587  28.744  0.00  0.00     0.042 A 
ATOM     12  C   UNL d   1      60.924  -2.875  28.649  0.00  0.00     0.019 A 
ATOM     13  O   UNL d   1      61.131  -1.463  28.746  0.00  0.00    -0.287 OA
ATOM     14  N   UNL d   1      57.505  -1.888  29.999  0.00  0.00    -0.120 N 
ATOM     15  C   UNL d   1      60.294  -4.410  28.690  0.00  0.00     0.009 C 
ATOM     16  C   UNL d   1      61.133  -3.856  28.455  0.00  0.00     0.009 C 
ENDROOT
BRANCH   5  17
ATOM     17  C   UNL d   1      60.038  -0.677  29.234  0.00  0.00     0.001 A 
ATOM     18  C   UNL d   1      60.537  -0.476  29.831  0.00  0.00     0.000 A 
ATOM     19  C   UNL d   1      61.038   0.192  29.751  0.00  0.00     0.000 A 
ATOM     20  C   UNL d   1      61.018   0.629  29.079  0.00  0.00     0.000 A 
ATOM     21  C   UNL d   1      60.498   0.417  28.463  0.00  0.00     0.000 A 
ATOM     22  C   UNL d   1      60.005  -0.244  28.545  0.00  0.00     0.000 A 
ENDBRANCH   5  17
TORSDOF 1
ENDMDL
MODEL 4
REMARK VINA RESULT:      -0.6      1.551      3.643
REMARK  1 active torsions:
REMARK  status: ('A' for Active; 'I' for Inactive)
REMARK    1  A    between atoms: C_14  and  C_5 
ROOT
ATOM      1  C   UNL d   1      57.485   0.363  33.653  0.00  0.00     0.111 A 
ATOM      2  C   UNL d   1      57.307   0.346  32.222  0.00  0.00     0.062 A 
ATOM      3  C   UNL d   1      58.332   0.562  33.500  0.00  0.00     0.213 A 
ATOM      4  C   UNL d   1      58.076   0.526  32.103  0.00  0.00     0.101 A 
ATOM      5  C   UNL d   1      57.010   0.264  33.000  0.00  0.00     0.018 A 
ATOM      6  O   UNL d   1      58.587   0.634  32.741  0.00  0.00    -0.288 OA
ATOM      7  C   UNL d   1      56.787   0.236  31.580  0.00  0.00     0.194 A 
ATOM      8  C   UNL d   1      57.192   0.282  34.420  0.00  0.00     0.105 C 
ATOM      9  N   UNL d   1      56.878   0.196  35.184  0.00  0.00    -0.191 NA
ATOM     10  C   UNL d   1      58.369   0.607  31.336  0.00  0.00     0.002 A 
ATOM     11  C   UNL d   1      57.894   0.508  30.683  0.00  0.00     0.042 A 
ATOM     12  C   UNL d   1      57.052   0.310  30.826  0.00  0.00     0.019 A 
ATOM     13  O   UNL d   1      55.961   0.042  31.712  0.00  0.00    -0.287 OA
ATOM     14  N   UNL d   1      58.895   0.681  34.135  0.00  0.00    -0.120 N 
ATOM     15  C   UNL d   1      58.534   0.665  30.170  0.00  0.00     0.009 C 
ATOM     16  C   UNL d   1      57.551   0.441  29.946  0.00  0.00     0.009 C 
ENDROOT
BRANCH   5  17
ATOM     17  C   UNL d   1      56.237   0.082  33.117  0.00  0.00     0.001 A 
ATOM     18  C   UNL d   1      55.708   0.681  33.202  0.00  0.00     0.000 A 
ATOM     19  C   UNL d   1      54.897   0.511  33.324  0.00  0.00     0.000 A 
ATOM     20  C   UNL d   1      54.649  -0.252  33.357  0.00  0.00     0.000 A 
ATOM     21  C   UNL d   1      55.201  -0.870  33.268  0.00  0.00     0.000 A 
ATOM     22  C   UNL d   1      56.002  -0.697  33.147  0.00  0.00     0.000 A 
ENDBRANCH   5  17
TORSDOF 1
ENDMDL
MODEL 5
REMARK VINA RESULT:       0.4      0.873      1.319
REMARK  1 active torsions:
REMARK  status: ('A' for Active; 'I' for Inactive)
REMARK    1  A    between atoms: C_14  and  C_5 
ROOT
ATOM      1  C   UNL d   1      58.805   0.357  32.036  0.00  0.00     0.111 A 
ATOM      2  C   UNL d   1      57.382   0.212  32.216  0.00  0.00     0.062 A 
ATOM      3  C   UNL d   1      58.853   0.518  32.903  0.00  0.00     0.213 A 
ATOM      4  C   UNL d   1      57.444   0.360  32.999  0.00  0.00     0.101 A 
ATOM      5  C   UNL d   1      58.064   0.211  31.733  0.00  0.00     0.018 A 
ATOM      6  O   UNL d   1      58.179   0.513  33.341  0.00  0.00    -0.288 OA
ATOM      7  C   UNL d   1      56.641   0.058  31.866  0.00  0.00     0.194 A 
ATOM      8  C   UNL d   1      59.478   0.356  31.559  0.00  0.00     0.105 C 
ATOM      9  N   UNL d   1      60.144   0.350  31.061  0.00  0.00    -0.191 NA
ATOM     10  C   UNL d   1      56.772   0.362  33.475  0.00  0.00     0.002 A 
ATOM     11  C   UNL d   1      56.031   0.215  33.173  0.00  0.00     0.042 A 
ATOM     12  C   UNL d   1      55.975   0.054  32.313  0.00  0.00     0.019 A 
ATOM     13  O   UNL d   1      56.578  -0.101  31.024  0.00  0.00    -0.287 OA
ATOM     14  N   UNL d   1      59.597   0.681  33.297  0.00  0.00    -0.120 N 
ATOM     15  C   UNL d   1      55.684   0.307  33.927  0.00  0.00     0.009 C 
ATOM     16  C   UNL d   1      55.239   0.089  33.020  0.00  0.00     0.009 C 
ENDROOT
BRANCH   5  17
ATOM     17  C   UNL d   1      57.998   0.062  30.946  0.00  0.00     0.001 A 
ATOM     18  C   UNL d   1      57.897   0.681  30.444  0.00  0.00     0.000 A 
ATOM     19  C   UNL d   1      57.826   0.544  29.619  0.00  0.00     0.000 A 
ATOM     20  C   UNL d   1      57.860  -0.205  29.334  0.00  0.00     0.000 A 
ATOM     21  C   UNL d   1      57.965  -0.843  29.859  0.00  0.00     0.000 A 
ATOM     22  C   UNL d   1      58.034  -0.704  30.673  0.00  0.00     0.000 A 
ENDBRANCH   5  17
TORSDOF 1
ENDMDL
MODEL 6
REMARK VINA RESULT:       0.8      1.089      3.111
REMARK  1 active torsions:
REMARK  status: ('A' for Active; 'I' for Inactive)
REMARK    1  A    between atoms: C_14  and  C_5 
ROOT
ATOM      1  C   UNL d   1      58.302   0.375  32.820  0.00  0.00     0.111 A 
ATOM      2  C   UNL d   1      57.921   0.338  31.430  0.00  0.00     0.062 A 
ATOM      3  C   UNL d   1      59.121   0.558  32.545  0.00  0.00     0.213 A 
ATOM      4  C   UNL d   1      58.669   0.504  31.199  0.00  0.00     0.101 A 
ATOM      5  C   UNL d   1      57.738   0.274  32.243  0.00  0.00     0.018 A 
ATOM      6  O   UNL d   1      59.266   0.614  31.757  0.00  0.00    -0.288 OA
ATOM      7  C   UNL d   1      57.314   0.227  30.871  0.00  0.00     0.194 A 
ATOM      8  C   UNL d   1      58.120   0.311  33.623  0.00  0.00     0.105 C 
ATOM      9  N   UNL d   1      57.917   0.243  34.426  0.00  0.00    -0.191 NA
ATOM     10  C   UNL d   1      58.850   0.568  30.398  0.00  0.00     0.002 A 
ATOM     11  C   UNL d   1      58.286   0.467  29.820  0.00  0.00     0.042 A 
ATOM     12  C   UNL d   1      57.469   0.285  30.086  0.00  0.00     0.019 A 
ATOM     13  O   UNL d   1      56.512   0.049  31.123  0.00  0.00    -0.287 OA
ATOM     14  N   UNL d   1      59.771   0.678  33.091  0.00  0.00    -0.120 N 
ATOM     15  C   UNL d   1      58.848   0.605  29.219  0.00  0.00     0.009 C 
ATOM     16  C   UNL d   1      57.840   0.394  29.141  0.00  0.00     0.009 C 
ENDROOT
BRANCH   5  17
ATOM     17  C   UNL d   1      56.986   0.107  32.473  0.00  0.00     0.001 A 
ATOM     18  C   UNL d   1      56.697  -0.631  32.341  0.00  0.00     0.000 A 
ATOM     19  C   UNL d   1      55.915  -0.823  32.574  0.00  0.00     0.000 A 
ATOM     20  C   UNL d   1      55.456  -0.268  32.927  0.00  0.00     0.000 A 
ATOM     21  C   UNL d   1      55.759   0.496  33.061  0.00  0.00     0.000 A 
ATOM     22  C   UNL d   1      56.533   0.681  32.830  0.00  0.00     0.000 A 
ENDBRANCH   5  17
TORSDOF 1
ENDMDL
MODEL 7
REMARK VINA RESULT:       1.0      2.282      3.450
REMARK  1 active torsions:
REMARK  status: ('A' for Active; 'I' for Inactive)
REMARK    1  A    between atoms: C_14  and  C_5 
ROOT
ATOM      1  C   UNL d   1      57.292   0.370  34.032  0.00  0.00     0.111 A 
ATOM      2  C   UNL d   1      55.861   0.360  33.860  0.00  0.00     0.062 A 
ATOM      3  C   UNL d   1      57.143   0.566  34.881  0.00  0.00     0.213 A 
ATOM      4  C   UNL d   1      55.745   0.537  34.631  0.00  0.00     0.101 A 
ATOM      5  C   UNL d   1      56.636   0.276  33.560  0.00  0.00     0.018 A 
ATOM      6  O   UNL d   1      56.386   0.640  35.139  0.00  0.00    -0.288 OA
ATOM      7  C   UNL d   1      55.216   0.256  33.342  0.00  0.00     0.194 A 
ATOM      8  C   UNL d   1      58.057   0.288  33.736  0.00  0.00     0.105 C 
ATOM      9  N   UNL d   1      58.820   0.200  33.417  0.00  0.00    -0.191 NA
ATOM     10  C   UNL d   1      54.980   0.620  34.927  0.00  0.00     0.002 A 
ATOM     11  C   UNL d   1      54.324   0.526  34.455  0.00  0.00     0.042 A 
ATOM     12  C   UNL d   1      54.463   0.332  33.611  0.00  0.00     0.019 A 
ATOM     13  O   UNL d   1      55.343   0.065  32.514  0.00  0.00    -0.287 OA
ATOM     14  N   UNL d   1      57.781   0.680  35.442  0.00  0.00    -0.120 N 
ATOM     15  C   UNL d   1      53.815   0.682  35.098  0.00  0.00     0.009 C 
ATOM     16  C   UNL d   1      53.585   0.464  34.115  0.00  0.00     0.009 C 
ENDROOT
BRANCH   5  17
ATOM     17  C   UNL d   1      56.749   0.098  32.784  0.00  0.00     0.001 A 
ATOM     18  C   UNL d   1      56.592  -0.648  32.533  0.00  0.00     0.000 A 
ATOM     19  C   UNL d   1      56.704  -0.852  31.728  0.00  0.00     0.000 A 
ATOM     20  C   UNL d   1      56.968  -0.300  31.209  0.00  0.00     0.000 A 
ATOM     21  C   UNL d   1      57.130   0.473  31.474  0.00  0.00     0.000 A 
ATOM     22  C   UNL d   1      57.018   0.670  32.271  0.00  0.00     0.000 A 
ENDBRANCH   5  17
TORSDOF 1
ENDMDL
