MODEL 1
REMARK VINA RESULT:      51.5      0.000      0.000
REMARK  4 active torsions:
REMARK  status: ('A' for Active; 'I' for Inactive)
REMARK    1  A    between atoms: N_2  and  C_1 
REMARK       I    between atoms: C_3  and  N_2 
REMARK    2  A    between atoms: C_6  and  C_3 
REMARK    3  A    between atoms: C_14  and  C_7 
REMARK    4  A    between atoms: C_15  and  C_14 
ROOT
ATOM      1  C   UNL d   1      59.484  49.438  50.797  0.00  0.00     0.197 A 
ATOM      2  N   UNL d   1      59.760  49.708  51.465  0.00  0.00    -0.219 NA
ATOM      3  S   UNL d   1      60.053  48.947  50.465  0.00  0.00    -0.047 SA
ATOM      4  C   UNL d   1      60.693  48.930  50.965  0.00  0.00     0.051 A 
ATOM      5  C   UNL d   1      60.508  49.413  51.600  0.00  0.00     0.108 A 
ENDROOT
BRANCH   1   6
ATOM      6  N   UNL d   1      58.707  49.653  50.509  0.00  0.00    -0.182 NA
ATOM      7  C   UNL d   1      58.072  49.154  50.665  0.00  0.00     0.287 C 
ATOM      8  O   UNL d   1      58.187  48.456  51.095  0.00  0.00    -0.265 OA
BRANCH   7   9
ATOM      9  C   UNL d   1      57.343  49.358  50.393  0.00  0.00     0.087 A 
ATOM     10  S   UNL d   1      57.116  49.538  49.616  0.00  0.00    -0.082 SA
ATOM     11  C   UNL d   1      56.349  49.705  49.613  0.00  0.00     0.036 A 
ATOM     12  C   UNL d   1      56.068  49.630  50.419  0.00  0.00     0.008 A 
ATOM     13  C   UNL d   1      56.711  49.416  50.857  0.00  0.00     0.012 A 
ENDBRANCH   7   9
ENDBRANCH   1   6
BRANCH   4  14
ATOM     14  C   UNL d   1      61.409  48.554  50.940  0.00  0.00     0.008 C 
BRANCH  14  15
ATOM     15  C   UNL d   1      61.469  47.784  50.618  0.00  0.00     0.001 A 
ATOM     16  C   UNL d   1      61.001  47.165  50.930  0.00  0.00     0.002 A 
ATOM     17  C   UNL d   1      61.055  46.395  50.615  0.00  0.00     0.030 A 
ATOM     18  C   UNL d   1      61.570  46.242  49.997  0.00  0.00     0.140 A 
ATOM     19  C   UNL d   1      62.052  46.866  49.670  0.00  0.00     0.030 A 
ATOM     20  F   UNL d   1      61.680  45.567  49.651  0.00  0.00    -0.204 F 
ATOM     21  C   UNL d   1      61.988  47.628  49.993  0.00  0.00     0.002 A 
ENDBRANCH  14  15
ENDBRANCH   4  14
TORSDOF 4
ENDMDL
MODEL 2
REMARK VINA RESULT:      53.9      2.039      4.440
REMARK  4 active torsions:
REMARK  status: ('A' for Active; 'I' for Inactive)
REMARK    1  A    between atoms: N_2  and  C_1 
REMARK       I    between atoms: C_3  and  N_2 
REMARK    2  A    between atoms: C_6  and  C_3 
REMARK    3  A    between atoms: C_14  and  C_7 
REMARK    4  A    between atoms: C_15  and  C_14 
ROOT
ATOM      1  C   UNL d   1      61.050  48.154  50.594  0.00  0.00     0.197 A 
ATOM      2  N   UNL d   1      61.349  48.412  51.257  0.00  0.00    -0.219 NA
ATOM      3  S   UNL d   1      60.376  48.593  50.430  0.00  0.00    -0.047 SA
ATOM      4  C   UNL d   1      60.276  49.134  51.027  0.00  0.00     0.051 A 
ATOM      5  C   UNL d   1      60.893  49.020  51.553  0.00  0.00     0.108 A 
ENDROOT
BRANCH   1   6
ATOM      6  N   UNL d   1      61.411  47.515  50.154  0.00  0.00    -0.182 NA
ATOM      7  C   UNL d   1      61.150  46.745  50.283  0.00  0.00     0.287 C 
ATOM      8  O   UNL d   1      60.547  46.597  50.831  0.00  0.00    -0.265 OA
BRANCH   7   9
ATOM      9  C   UNL d   1      61.490  46.146  49.869  0.00  0.00     0.087 A 
ATOM     10  S   UNL d   1      61.340  45.331  49.926  0.00  0.00    -0.082 SA
ATOM     11  C   UNL d   1      61.803  44.958  49.414  0.00  0.00     0.036 A 
ATOM     12  C   UNL d   1      62.271  45.551  49.010  0.00  0.00     0.008 A 
ATOM     13  C   UNL d   1      62.043  46.260  49.323  0.00  0.00     0.012 A 
ENDBRANCH   7   9
ENDBRANCH   1   6
BRANCH   4  14
ATOM     14  C   UNL d   1      59.724  49.708  51.172  0.00  0.00     0.008 C 
BRANCH  14  15
ATOM     15  C   UNL d   1      58.974  49.673  50.803  0.00  0.00     0.001 A 
ATOM     16  C   UNL d   1      58.284  49.605  51.269  0.00  0.00     0.002 A 
ATOM     17  C   UNL d   1      57.532  49.570  50.910  0.00  0.00     0.030 A 
ATOM     18  C   UNL d   1      57.469  49.603  50.094  0.00  0.00     0.140 A 
ATOM     19  C   UNL d   1      58.166  49.673  49.607  0.00  0.00     0.030 A 
ATOM     20  F   UNL d   1      56.821  49.577  49.686  0.00  0.00    -0.204 F 
ATOM     21  C   UNL d   1      58.907  49.707  49.979  0.00  0.00     0.002 A 
ENDBRANCH  14  15
ENDBRANCH   4  14
TORSDOF 4
ENDMDL
