MODEL 1
REMARK VINA RESULT:       1.2      0.000      0.000
REMARK  10 active torsions:
REMARK  status: ('A' for Active; 'I' for Inactive)
REMARK    1  A    between atoms: C_14  and  N_1 
REMARK    2  A    between atoms: N_9  and  C_2 
REMARK    3  A    between atoms: C_6  and  C_5 
REMARK    4  A    between atoms: C_7  and  C_6 
REMARK       I    between atoms: N_8  and  C_7 
REMARK    5  A    between atoms: C_10  and  N_8 
REMARK    6  A    between atoms: C_16  and  N_9 
REMARK    7  A    between atoms: O_15  and  C_13 
REMARK    8  A    between atoms: C_19  and  O_15 
REMARK    9  A    between atoms: C_21  and  C_19 
REMARK   10  A    between atoms: C_22  and  C_21 
ROOT
ATOM      1  C   UNL d   1     -41.657-122.592 -50.683  0.00  0.00     0.280 C 
ATOM      2  N   UNL d   1     -41.444-122.488 -51.470  0.00  0.00    -0.206 NA
ATOM      3  O   UNL d   1     -41.781-121.940 -50.199  0.00  0.00    -0.265 OA
ENDROOT
BRANCH   1   4
ATOM      4  C   UNL d   1     -41.746-123.357 -50.386  0.00  0.00     0.074 C 
BRANCH   4   5
ATOM      5  C   UNL d   1     -42.037-123.481 -49.627  0.00  0.00     0.093 A 
ATOM      6  C   UNL d   1     -42.828-123.580 -49.421  0.00  0.00     0.272 A 
ATOM      7  N   UNL d   1     -42.867-123.688 -48.607  0.00  0.00    -0.252 N 
ATOM      8  O   UNL d   1     -43.467-123.574 -49.937  0.00  0.00    -0.266 OA
ATOM      9  C   UNL d   1     -42.102-123.655 -48.309  0.00  0.00     0.182 A 
ATOM     10  S   UNL d   1     -41.581-123.526 -48.939  0.00  0.00    -0.045 SA
BRANCH   7  11
ATOM     11  C   UNL d   1     -43.550-123.808 -48.163  0.00  0.00     0.085 C 
ATOM     12  C   UNL d   1     -44.291-123.739 -48.528  0.00  0.00     0.021 C 
ENDBRANCH   7  11
BRANCH   9  13
ATOM     13  N   UNL d   1     -41.884-123.736 -47.515  0.00  0.00    -0.221 NA
BRANCH  13  14
ATOM     14  C   UNL d   1     -41.233-123.329 -47.228  0.00  0.00     0.101 C 
ATOM     15  C   UNL d   1     -41.334-122.670 -46.748  0.00  0.00     0.022 C 
ENDBRANCH  13  14
ENDBRANCH   9  13
ENDBRANCH   4   5
ENDBRANCH   1   4
BRANCH   2  16
ATOM     16  C   UNL d   1     -41.353-121.730 -51.776  0.00  0.00     0.107 A 
ATOM     17  C   UNL d   1     -41.294-121.616 -52.598  0.00  0.00     0.118 A 
ATOM     18  C   UNL d   1     -41.203-120.853 -52.902  0.00  0.00     0.026 A 
ATOM     19  C   UNL d   1     -41.171-120.210 -52.385  0.00  0.00     0.002 A 
ATOM     20  C   UNL d   1     -41.230-120.323 -51.571  0.00  0.00     0.002 A 
ATOM     21  C   UNL d   1     -41.320-121.081 -51.266  0.00  0.00     0.021 A 
BRANCH  17  22
ATOM     22  O   UNL d   1     -41.326-122.260 -53.106  0.00  0.00    -0.304 OA
BRANCH  22  23
ATOM     23  C   UNL d   1     -41.459-122.141 -53.910  0.00  0.00     0.123 C 
BRANCH  23  24
ATOM     24  C   UNL d   1     -42.012-122.591 -54.308  0.00  0.00     0.027 C 
BRANCH  24  25
ATOM     25  C   UNL d   1     -41.861-122.862 -55.081  0.00  0.00     0.002 C 
ATOM     26  C   UNL d   1     -42.458-122.818 -55.647  0.00  0.00     0.000 C 
ENDBRANCH  24  25
ENDBRANCH  23  24
ENDBRANCH  22  23
ENDBRANCH  17  22
ENDBRANCH   2  16
TORSDOF 10
ENDMDL
MODEL 2
REMARK VINA RESULT:       2.6      1.766      5.440
REMARK  10 active torsions:
REMARK  status: ('A' for Active; 'I' for Inactive)
REMARK    1  A    between atoms: C_14  and  N_1 
REMARK    2  A    between atoms: N_9  and  C_2 
REMARK    3  A    between atoms: C_6  and  C_5 
REMARK    4  A    between atoms: C_7  and  C_6 
REMARK       I    between atoms: N_8  and  C_7 
REMARK    5  A    between atoms: C_10  and  N_8 
REMARK    6  A    between atoms: C_16  and  N_9 
REMARK    7  A    between atoms: O_15  and  C_13 
REMARK    8  A    between atoms: C_19  and  O_15 
REMARK    9  A    between atoms: C_21  and  C_19 
REMARK   10  A    between atoms: C_22  and  C_21 
ROOT
ATOM      1  C   UNL d   1     -41.940-122.231 -51.710  0.00  0.00     0.280 C 
ATOM      2  N   UNL d   1     -41.864-122.346 -50.899  0.00  0.00    -0.206 NA
ATOM      3  O   UNL d   1     -42.680-122.093 -52.039  0.00  0.00    -0.265 OA
ENDROOT
BRANCH   1   4
ATOM      4  C   UNL d   1     -41.267-122.257 -52.186  0.00  0.00     0.074 C 
BRANCH   4   5
ATOM      5  C   UNL d   1     -41.333-122.367 -52.999  0.00  0.00     0.093 A 
ATOM      6  C   UNL d   1     -41.266-123.084 -53.398  0.00  0.00     0.272 A 
ATOM      7  N   UNL d   1     -41.369-122.939 -54.201  0.00  0.00    -0.252 N 
ATOM      8  O   UNL d   1     -41.123-123.817 -53.056  0.00  0.00    -0.266 OA
ATOM      9  C   UNL d   1     -41.499-122.134 -54.299  0.00  0.00     0.182 A 
ATOM     10  S   UNL d   1     -41.478-121.772 -53.554  0.00  0.00    -0.045 SA
BRANCH   7  11
ATOM     11  C   UNL d   1     -41.347-123.498 -54.804  0.00  0.00     0.085 C 
ATOM     12  C   UNL d   1     -41.642-123.301 -55.554  0.00  0.00     0.021 C 
ENDBRANCH   7  11
BRANCH   9  13
ATOM     13  N   UNL d   1     -41.630-121.745 -55.017  0.00  0.00    -0.221 NA
BRANCH  13  14
ATOM     14  C   UNL d   1     -41.982-121.005 -55.021  0.00  0.00     0.101 C 
ATOM     15  C   UNL d   1     -42.447-120.770 -55.656  0.00  0.00     0.022 C 
ENDBRANCH  13  14
ENDBRANCH   9  13
ENDBRANCH   4   5
ENDBRANCH   1   4
BRANCH   2  16
ATOM     16  C   UNL d   1     -42.529-122.322 -50.415  0.00  0.00     0.107 A 
ATOM     17  C   UNL d   1     -42.505-122.664 -49.657  0.00  0.00     0.118 A 
ATOM     18  C   UNL d   1     -43.174-122.638 -49.173  0.00  0.00     0.026 A 
ATOM     19  C   UNL d   1     -43.862-122.272 -49.448  0.00  0.00     0.002 A 
ATOM     20  C   UNL d   1     -43.885-121.934 -50.199  0.00  0.00     0.002 A 
ATOM     21  C   UNL d   1     -43.220-121.958 -50.682  0.00  0.00     0.021 A 
BRANCH  17  22
ATOM     22  O   UNL d   1     -41.818-123.027 -49.390  0.00  0.00    -0.304 OA
BRANCH  22  23
ATOM     23  C   UNL d   1     -41.851-123.543 -48.750  0.00  0.00     0.123 C 
BRANCH  23  24
ATOM     24  C   UNL d   1     -41.378-123.419 -48.095  0.00  0.00     0.027 C 
BRANCH  24  25
ATOM     25  C   UNL d   1     -41.662-123.584 -47.331  0.00  0.00     0.002 C 
ATOM     26  C   UNL d   1     -41.126-123.773 -46.733  0.00  0.00     0.000 C 
ENDBRANCH  24  25
ENDBRANCH  23  24
ENDBRANCH  22  23
ENDBRANCH  17  22
ENDBRANCH   2  16
TORSDOF 10
ENDMDL
