MODEL 1
REMARK VINA RESULT:      50.6      0.000      0.000
REMARK  6 active torsions:
REMARK  status: ('A' for Active; 'I' for Inactive)
REMARK    1  A    between atoms: N_2  and  S_1 
REMARK    2  A    between atoms: C_7  and  S_1 
REMARK    3  A    between atoms: C_8  and  N_2 
REMARK    4  A    between atoms: N_3  and  C_9 
REMARK    5  A    between atoms: N_4  and  N_3 
REMARK    6  A    between atoms: C_10  and  N_4 
ROOT
ATOM      1  C   UNL d   1      59.671  49.220  50.938  0.00  0.00     0.094 A 
ATOM      2  C   UNL d   1      60.909  48.261  50.435  0.00  0.00     0.103 A 
ATOM      3  C   UNL d   1      59.563  48.401  50.871  0.00  0.00     0.021 A 
ATOM      4  C   UNL d   1      60.401  49.554  50.751  0.00  0.00     0.021 A 
ATOM      5  C   UNL d   1      61.030  49.078  50.496  0.00  0.00     0.022 A 
ATOM      6  C   UNL d   1      60.178  47.927  50.622  0.00  0.00     0.022 A 
ENDROOT
BRANCH   1   7
ATOM      7  N   UNL d   1      59.052  49.703  51.190  0.00  0.00    -0.158 NA
BRANCH   7   8
ATOM      8  S   UNL d   1      58.341  49.702  50.771  0.00  0.00     0.285 S 
ATOM      9  O   UNL d   1      58.767  49.697  50.065  0.00  0.00    -0.198 OA
ATOM     10  O   UNL d   1      57.915  49.708  51.478  0.00  0.00    -0.198 OA
BRANCH   8  11
ATOM     11  C   UNL d   1      57.639  49.701  50.338  0.00  0.00     0.105 A 
ATOM     12  C   UNL d   1      57.676  49.707  49.508  0.00  0.00     0.013 A 
ATOM     13  C   UNL d   1      56.979  49.706  49.067  0.00  0.00     0.001 A 
ATOM     14  C   UNL d   1      56.249  49.700  49.448  0.00  0.00     0.000 A 
ATOM     15  C   UNL d   1      56.213  49.694  50.278  0.00  0.00     0.001 A 
ATOM     16  C   UNL d   1      56.910  49.695  50.719  0.00  0.00     0.013 A 
ENDBRANCH   8  11
ENDBRANCH   7   8
ENDBRANCH   1   7
BRANCH   2  17
ATOM     17  N   UNL d   1      61.528  47.775  50.182  0.00  0.00    -0.148 NA
BRANCH  17  18
ATOM     18  N   UNL d   1      61.568  46.994  50.448  0.00  0.00    -0.148 NA
BRANCH  18  19
ATOM     19  C   UNL d   1      61.860  46.406  49.945  0.00  0.00     0.103 A 
ATOM     20  C   UNL d   1      62.633  46.436  49.673  0.00  0.00     0.021 A 
ATOM     21  C   UNL d   1      62.923  45.858  49.178  0.00  0.00     0.002 A 
ATOM     22  C   UNL d   1      62.434  45.234  48.947  0.00  0.00     0.000 A 
ATOM     23  C   UNL d   1      61.656  45.190  49.211  0.00  0.00     0.002 A 
ATOM     24  C   UNL d   1      61.372  45.783  49.714  0.00  0.00     0.021 A 
ENDBRANCH  18  19
ENDBRANCH  17  18
ENDBRANCH   2  17
TORSDOF 6
ENDMDL
