MODEL 1
REMARK VINA RESULT:       7.1      0.000      0.000
REMARK  7 active torsions:
REMARK  status: ('A' for Active; 'I' for Inactive)
REMARK    1  A    between atoms: C_4  and  C_1 
REMARK    2  A    between atoms: N_5  and  C_3 
REMARK    3  A    between atoms: C_9  and  C_4 
REMARK       I    between atoms: C_7  and  N_5 
REMARK    4  A    between atoms: C_10  and  C_7 
REMARK       I    between atoms: N_19  and  C_9 
REMARK    5  A    between atoms: C_21  and  N_19 
REMARK    6  A    between atoms: C_24  and  C_21 
REMARK    7  A    between atoms: C_23  and  C_24 
ROOT
ATOM      1  C   UNL d   1      57.743   0.455  31.264  0.00  0.00     0.144 C 
ATOM      2  C   UNL d   1      58.564   0.502  31.224  0.00  0.00     0.107 C 
ATOM      3  N   UNL d   1      59.380   0.551  31.191  0.00  0.00    -0.191 NA
ENDROOT
BRANCH   1   4
ATOM      4  C   UNL d   1      57.350   0.523  31.994  0.00  0.00     0.097 A 
ATOM      5  N   UNL d   1      56.543   0.562  32.162  0.00  0.00    -0.226 NA
ATOM      6  C   UNL d   1      56.452   0.626  32.980  0.00  0.00     0.166 A 
ATOM      7  C   UNL d   1      57.202   0.628  33.320  0.00  0.00     0.037 A 
ATOM      8  C   UNL d   1      57.765   0.564  32.716  0.00  0.00     0.021 A 
ATOM      9  C   UNL d   1      57.453   0.679  34.104  0.00  0.00     0.003 A 
ATOM     10  C   UNL d   1      58.565   0.551  32.895  0.00  0.00     0.002 A 
ATOM     11  C   UNL d   1      58.816   0.602  33.678  0.00  0.00     0.000 A 
ATOM     12  C   UNL d   1      58.253   0.666  34.282  0.00  0.00     0.000 A 
BRANCH   6  13
ATOM     13  N   UNL d   1      55.766   0.682  33.415  0.00  0.00    -0.189 NA
ATOM     14  C   UNL d   1      55.184   0.100  33.551  0.00  0.00     0.286 C 
ATOM     15  O   UNL d   1      55.288  -0.643  33.213  0.00  0.00    -0.265 OA
BRANCH  14  16
ATOM     16  C   UNL d   1      54.517   0.252  34.011  0.00  0.00     0.087 A 
ATOM     17  S   UNL d   1      54.543   0.136  34.827  0.00  0.00    -0.082 SA
ATOM     18  C   UNL d   1      53.799   0.332  35.131  0.00  0.00     0.036 A 
ATOM     19  C   UNL d   1      53.318   0.569  34.501  0.00  0.00     0.008 A 
ATOM     20  C   UNL d   1      53.762   0.519  33.810  0.00  0.00     0.012 A 
ENDBRANCH  14  16
ENDBRANCH   6  13
ENDBRANCH   1   4
BRANCH   1  21
ATOM     21  C   UNL d   1      57.303   0.338  30.572  0.00  0.00     0.290 C 
ATOM     22  O   UNL d   1      56.517   0.579  30.538  0.00  0.00    -0.264 OA
ATOM     23  N   UNL d   1      57.648  -0.019  29.920  0.00  0.00    -0.206 NA
BRANCH  23  24
ATOM     24  C   UNL d   1      58.433  -0.260  29.955  0.00  0.00     0.102 C 
BRANCH  24  25
ATOM     25  C   UNL d   1      58.991  -0.509  29.401  0.00  0.00     0.021 C 
BRANCH  25  26
ATOM     26  C   UNL d   1      59.039  -1.304  29.189  0.00  0.00     0.002 A 
ATOM     27  C   UNL d   1      58.497  -1.847  29.495  0.00  0.00     0.000 A 
ATOM     28  C   UNL d   1      58.550  -2.642  29.280  0.00  0.00     0.000 A 
ATOM     29  C   UNL d   1      59.139  -2.902  28.760  0.00  0.00     0.000 A 
ATOM     30  C   UNL d   1      59.683  -2.345  28.456  0.00  0.00     0.000 A 
ATOM     31  C   UNL d   1      59.633  -1.556  28.668  0.00  0.00     0.000 A 
ENDBRANCH  25  26
ENDBRANCH  24  25
ENDBRANCH  23  24
ENDBRANCH   1  21
TORSDOF 7
ENDMDL
MODEL 2
REMARK VINA RESULT:       9.1      1.690      5.486
REMARK  7 active torsions:
REMARK  status: ('A' for Active; 'I' for Inactive)
REMARK    1  A    between atoms: C_4  and  C_1 
REMARK    2  A    between atoms: N_5  and  C_3 
REMARK    3  A    between atoms: C_9  and  C_4 
REMARK       I    between atoms: C_7  and  N_5 
REMARK    4  A    between atoms: C_10  and  C_7 
REMARK       I    between atoms: N_19  and  C_9 
REMARK    5  A    between atoms: C_21  and  N_19 
REMARK    6  A    between atoms: C_24  and  C_21 
REMARK    7  A    between atoms: C_23  and  C_24 
ROOT
ATOM      1  C   UNL d   1      56.505  -0.197  33.524  0.00  0.00     0.144 C 
ATOM      2  C   UNL d   1      56.572   0.141  34.272  0.00  0.00     0.107 C 
ATOM      3  N   UNL d   1      56.644   0.480  35.013  0.00  0.00    -0.191 NA
ENDROOT
BRANCH   1   4
ATOM      4  C   UNL d   1      57.074  -0.043  32.938  0.00  0.00     0.097 A 
ATOM      5  N   UNL d   1      57.016  -0.086  32.116  0.00  0.00    -0.226 NA
ATOM      6  C   UNL d   1      57.746   0.125  31.793  0.00  0.00     0.166 A 
ATOM      7  C   UNL d   1      58.258   0.299  32.414  0.00  0.00     0.037 A 
ATOM      8  C   UNL d   1      57.850   0.198  33.128  0.00  0.00     0.021 A 
ATOM      9  C   UNL d   1      59.047   0.538  32.430  0.00  0.00     0.003 A 
ATOM     10  C   UNL d   1      58.226   0.333  33.843  0.00  0.00     0.002 A 
ATOM     11  C   UNL d   1      59.015   0.572  33.859  0.00  0.00     0.000 A 
ATOM     12  C   UNL d   1      59.423   0.674  33.146  0.00  0.00     0.000 A 
BRANCH   6  13
ATOM     13  N   UNL d   1      57.966   0.167  31.010  0.00  0.00    -0.189 NA
ATOM     14  C   UNL d   1      57.987  -0.440  30.439  0.00  0.00     0.286 C 
ATOM     15  O   UNL d   1      57.760  -1.198  30.666  0.00  0.00    -0.265 OA
BRANCH  14  16
ATOM     16  C   UNL d   1      58.226  -0.299  29.663  0.00  0.00     0.087 A 
ATOM     17  S   UNL d   1      58.581  -0.900  29.224  0.00  0.00    -0.082 SA
ATOM     18  C   UNL d   1      58.757  -0.594  28.477  0.00  0.00     0.036 A 
ATOM     19  C   UNL d   1      58.510   0.195  28.458  0.00  0.00     0.008 A 
ATOM     20  C   UNL d   1      58.182   0.376  29.190  0.00  0.00     0.012 A 
ENDBRANCH  14  16
ENDBRANCH   6  13
ENDBRANCH   1   4
BRANCH   1  21
ATOM     21  C   UNL d   1      55.866  -0.695  33.353  0.00  0.00     0.290 C 
ATOM     22  O   UNL d   1      55.997  -1.432  33.012  0.00  0.00    -0.264 OA
ATOM     23  N   UNL d   1      55.101  -0.456  33.523  0.00  0.00    -0.206 NA
BRANCH  23  24
ATOM     24  C   UNL d   1      54.970   0.281  33.864  0.00  0.00     0.102 C 
BRANCH  24  25
ATOM     25  C   UNL d   1      54.541   0.554  34.513  0.00  0.00     0.021 C 
BRANCH  25  26
ATOM     26  C   UNL d   1      53.717   0.556  34.494  0.00  0.00     0.002 A 
ATOM     27  C   UNL d   1      53.288   0.681  35.189  0.00  0.00     0.000 A 
ATOM     28  C   UNL d   1      52.462   0.682  35.164  0.00  0.00     0.000 A 
ATOM     29  C   UNL d   1      52.059   0.559  34.452  0.00  0.00     0.000 A 
ATOM     30  C   UNL d   1      52.503   0.434  33.755  0.00  0.00     0.000 A 
ATOM     31  C   UNL d   1      53.321   0.432  33.776  0.00  0.00     0.000 A 
ENDBRANCH  25  26
ENDBRANCH  24  25
ENDBRANCH  23  24
ENDBRANCH   1  21
TORSDOF 7
ENDMDL
