MODEL 1
REMARK VINA RESULT:      -8.5      0.000      0.000
REMARK  1 active torsions:
REMARK  status: ('A' for Active; 'I' for Inactive)
REMARK    1  A    between atoms: C_5  and  C_1 
ROOT
ATOM      1  C   UNL d   1      53.940  33.394  54.537  0.00  0.00     0.164 A 
ATOM      2  O   UNL d   1      53.366  33.452  53.858  0.00  0.00    -0.301 OA
ATOM      3  C   UNL d   1      54.103  32.607  54.636  0.00  0.00     0.033 A 
ATOM      4  C   UNL d   1      53.695  32.160  54.096  0.00  0.00     0.025 A 
ATOM      5  C   UNL d   1      53.242  32.680  53.618  0.00  0.00     0.100 A 
ATOM      6  C   UNL d   1      53.670  31.341  53.967  0.00  0.00     0.009 A 
ATOM      7  C   UNL d   1      52.772  32.371  53.019  0.00  0.00     0.025 A 
ATOM      8  C   UNL d   1      53.192  31.044  53.360  0.00  0.00     0.035 A 
ATOM      9  C   UNL d   1      52.739  31.564  52.882  0.00  0.00     0.009 A 
ATOM     10 BR   UNL d   1      53.166  30.224  53.230  0.00  0.00    -0.049 Br
ENDROOT
BRANCH   1  11
ATOM     11  C   UNL d   1      54.272  33.987  55.004  0.00  0.00     0.235 C 
ATOM     12  O   UNL d   1      53.811  34.613  55.291  0.00  0.00    -0.642 OA
ATOM     13  O   UNL d   1      55.078  33.987  55.210  0.00  0.00    -0.642 OA
ENDBRANCH   1  11
TORSDOF 1
ENDMDL
MODEL 2
REMARK VINA RESULT:      -8.2      1.910      3.057
REMARK  1 active torsions:
REMARK  status: ('A' for Active; 'I' for Inactive)
REMARK    1  A    between atoms: C_5  and  C_1 
ROOT
ATOM      1  C   UNL d   1      53.023  31.422  53.266  0.00  0.00     0.164 A 
ATOM      2  O   UNL d   1      52.653  32.232  53.231  0.00  0.00    -0.301 OA
ATOM      3  C   UNL d   1      53.677  31.485  53.740  0.00  0.00     0.033 A 
ATOM      4  C   UNL d   1      53.763  32.245  54.009  0.00  0.00     0.025 A 
ATOM      5  C   UNL d   1      53.134  32.704  53.696  0.00  0.00     0.100 A 
ATOM      6  C   UNL d   1      54.332  32.593  54.501  0.00  0.00     0.009 A 
ATOM      7  C   UNL d   1      53.085  33.503  53.881  0.00  0.00     0.025 A 
ATOM      8  C   UNL d   1      54.271  33.399  54.680  0.00  0.00     0.035 A 
ATOM      9  C   UNL d   1      53.642  33.858  54.367  0.00  0.00     0.009 A 
ATOM     10 BR   UNL d   1      54.840  33.748  55.173  0.00  0.00    -0.049 Br
ENDROOT
BRANCH   1  11
ATOM     11  C   UNL d   1      52.789  30.716  52.910  0.00  0.00     0.235 C 
ATOM     12  O   UNL d   1      52.993  30.545  52.125  0.00  0.00    -0.642 OA
ATOM     13  O   UNL d   1      52.341  30.144  53.315  0.00  0.00    -0.642 OA
ENDBRANCH   1  11
TORSDOF 1
ENDMDL
MODEL 3
REMARK VINA RESULT:      -8.1      1.975      2.954
REMARK  1 active torsions:
REMARK  status: ('A' for Active; 'I' for Inactive)
REMARK    1  A    between atoms: C_5  and  C_1 
ROOT
ATOM      1  C   UNL d   1      51.958  33.716  52.984  0.00  0.00     0.164 A 
ATOM      2  O   UNL d   1      52.371  32.932  52.900  0.00  0.00    -0.301 OA
ATOM      3  C   UNL d   1      52.371  34.138  53.539  0.00  0.00     0.033 A 
ATOM      4  C   UNL d   1      53.001  33.708  53.815  0.00  0.00     0.025 A 
ATOM      5  C   UNL d   1      53.000  32.966  53.422  0.00  0.00     0.100 A 
ATOM      6  C   UNL d   1      53.584  33.885  54.376  0.00  0.00     0.009 A 
ATOM      7  C   UNL d   1      53.584  32.416  53.598  0.00  0.00     0.025 A 
ATOM      8  C   UNL d   1      54.166  33.321  54.544  0.00  0.00     0.035 A 
ATOM      9  C   UNL d   1      54.166  32.580  54.151  0.00  0.00     0.009 A 
ATOM     10 BR   UNL d   1      54.751  33.498  55.106  0.00  0.00    -0.049 Br
ENDROOT
BRANCH   1  11
ATOM     11  C   UNL d   1      51.288  34.008  52.602  0.00  0.00     0.235 C 
ATOM     12  O   UNL d   1      51.328  34.289  51.823  0.00  0.00    -0.642 OA
ATOM     13  O   UNL d   1      50.544  34.034  52.974  0.00  0.00    -0.642 OA
ENDBRANCH   1  11
TORSDOF 1
ENDMDL
MODEL 4
REMARK VINA RESULT:      -7.9      2.311      3.125
REMARK  1 active torsions:
REMARK  status: ('A' for Active; 'I' for Inactive)
REMARK    1  A    between atoms: C_5  and  C_1 
ROOT
ATOM      1  C   UNL d   1      52.871  31.774  53.061  0.00  0.00     0.164 A 
ATOM      2  O   UNL d   1      52.269  32.265  52.625  0.00  0.00    -0.301 OA
ATOM      3  C   UNL d   1      53.258  32.275  53.566  0.00  0.00     0.033 A 
ATOM      4  C   UNL d   1      52.968  33.029  53.498  0.00  0.00     0.025 A 
ATOM      5  C   UNL d   1      52.360  33.023  52.920  0.00  0.00     0.100 A 
ATOM      6  C   UNL d   1      53.172  33.733  53.886  0.00  0.00     0.009 A 
ATOM      7  C   UNL d   1      51.967  33.721  52.740  0.00  0.00     0.025 A 
ATOM      8  C   UNL d   1      52.768  34.429  53.694  0.00  0.00     0.035 A 
ATOM      9  C   UNL d   1      52.160  34.423  53.116  0.00  0.00     0.009 A 
ATOM     10 BR   UNL d   1      52.971  35.135  54.082  0.00  0.00    -0.049 Br
ENDROOT
BRANCH   1  11
ATOM     11  C   UNL d   1      53.043  30.969  53.002  0.00  0.00     0.235 C 
ATOM     12  O   UNL d   1      52.901  30.552  52.301  0.00  0.00    -0.642 OA
ATOM     13  O   UNL d   1      53.365  30.539  53.638  0.00  0.00    -0.642 OA
ENDBRANCH   1  11
TORSDOF 1
ENDMDL
MODEL 5
REMARK VINA RESULT:      -7.7      1.577      1.977
REMARK  1 active torsions:
REMARK  status: ('A' for Active; 'I' for Inactive)
REMARK    1  A    between atoms: C_5  and  C_1 
ROOT
ATOM      1  C   UNL d   1      54.130  33.443  54.635  0.00  0.00     0.164 A 
ATOM      2  O   UNL d   1      53.929  32.762  54.097  0.00  0.00    -0.301 OA
ATOM      3  C   UNL d   1      53.577  34.019  54.497  0.00  0.00     0.033 A 
ATOM      4  C   UNL d   1      53.048  33.778  53.932  0.00  0.00     0.025 A 
ATOM      5  C   UNL d   1      53.264  33.006  53.686  0.00  0.00     0.100 A 
ATOM      6  C   UNL d   1      52.389  34.156  53.599  0.00  0.00     0.009 A 
ATOM      7  C   UNL d   1      52.818  32.625  53.112  0.00  0.00     0.025 A 
ATOM      8  C   UNL d   1      51.948  33.760  53.021  0.00  0.00     0.035 A 
ATOM      9  C   UNL d   1      52.165  32.988  52.775  0.00  0.00     0.009 A 
ATOM     10 BR   UNL d   1      51.288  34.138  52.687  0.00  0.00    -0.049 Br
ENDROOT
BRANCH   1  11
ATOM     11  C   UNL d   1      54.742  33.526  55.181  0.00  0.00     0.235 C 
ATOM     12  O   UNL d   1      54.741  33.099  55.892  0.00  0.00    -0.642 OA
ATOM     13  O   UNL d   1      55.385  34.037  55.049  0.00  0.00    -0.642 OA
ENDBRANCH   1  11
TORSDOF 1
ENDMDL
MODEL 6
REMARK VINA RESULT:      -7.1      2.173      3.250
REMARK  1 active torsions:
REMARK  status: ('A' for Active; 'I' for Inactive)
REMARK    1  A    between atoms: C_5  and  C_1 
ROOT
ATOM      1  C   UNL d   1      51.795  34.310  52.847  0.00  0.00     0.164 A 
ATOM      2  O   UNL d   1      52.356  34.949  53.109  0.00  0.00    -0.301 OA
ATOM      3  C   UNL d   1      52.011  33.635  53.239  0.00  0.00     0.033 A 
ATOM      4  C   UNL d   1      52.647  33.776  53.721  0.00  0.00     0.025 A 
ATOM      5  C   UNL d   1      52.859  34.584  53.642  0.00  0.00     0.100 A 
ATOM      6  C   UNL d   1      53.072  33.278  54.230  0.00  0.00     0.009 A 
ATOM      7  C   UNL d   1      53.492  34.880  54.073  0.00  0.00     0.025 A 
ATOM      8  C   UNL d   1      53.708  33.590  54.659  0.00  0.00     0.035 A 
ATOM      9  C   UNL d   1      53.920  34.397  54.579  0.00  0.00     0.009 A 
ATOM     10 BR   UNL d   1      54.134  33.092  55.169  0.00  0.00    -0.049 Br
ENDROOT
BRANCH   1  11
ATOM     11  C   UNL d   1      51.165  34.342  52.315  0.00  0.00     0.235 C 
ATOM     12  O   UNL d   1      50.385  34.434  52.580  0.00  0.00    -0.642 OA
ATOM     13  O   UNL d   1      51.279  34.284  51.492  0.00  0.00    -0.642 OA
ENDBRANCH   1  11
TORSDOF 1
ENDMDL
