MODEL 1
REMARK VINA RESULT:      -5.9      0.000      0.000
REMARK  8 active torsions:
REMARK  status: ('A' for Active; 'I' for Inactive)
REMARK    1  A    between atoms: C_3  and  C_1 
REMARK    2  A    between atoms: N_4  and  C_2 
REMARK    3  A    between atoms: O_21  and  C_3 
REMARK       I    between atoms: C_11  and  N_4 
REMARK    4  A    between atoms: C_6  and  C_7 
REMARK    5  A    between atoms: O_22  and  C_6 
REMARK    6  A    between atoms: C_10  and  C_20 
REMARK    7  A    between atoms: C_19  and  C_11 
REMARK    8  A    between atoms: C_20  and  C_19 
ROOT
ATOM      1  C   UNL d   1     -49.010  12.386  23.003  0.00  0.00     0.081 A 
ATOM      2  C   UNL d   1     -48.622  13.039  22.684  0.00  0.00     0.090 A 
ATOM      3  C   UNL d   1     -49.730  13.872  23.006  0.00  0.00     0.065 A 
ATOM      4  C   UNL d   1     -48.977  13.780  22.684  0.00  0.00     0.025 A 
ATOM      5  C   UNL d   1     -49.764  12.477  23.325  0.00  0.00     0.007 A 
ATOM      6  C   UNL d   1     -50.124  13.221  23.326  0.00  0.00     0.006 A 
ENDROOT
BRANCH   2   7
ATOM      7  N   UNL d   1     -47.871  12.943  22.365  0.00  0.00    -0.208 NA
ATOM      8  C   UNL d   1     -47.328  13.570  22.388  0.00  0.00     0.279 C 
ATOM      9  O   UNL d   1     -47.550  14.287  22.735  0.00  0.00    -0.265 OA
BRANCH   8  10
ATOM     10  C   UNL d   1     -46.578  13.476  22.070  0.00  0.00     0.065 C 
BRANCH  10  11
ATOM     11  C   UNL d   1     -45.914  13.488  22.566  0.00  0.00     0.030 C 
BRANCH  11  12
ATOM     12  C   UNL d   1     -45.215  13.132  22.324  0.00  0.00     0.100 A 
ATOM     13  O   UNL d   1     -44.667  13.444  21.790  0.00  0.00    -0.307 OA
ATOM     14  C   UNL d   1     -44.060  12.905  21.713  0.00  0.00     0.100 A 
ATOM     15  C   UNL d   1     -43.394  12.993  21.234  0.00  0.00     0.027 C 
ATOM     16  C   UNL d   1     -44.219  12.258  22.191  0.00  0.00     0.027 A 
ATOM     17  C   UNL d   1     -44.926  12.390  22.569  0.00  0.00     0.027 A 
ENDBRANCH  11  12
ENDBRANCH  10  11
ENDBRANCH   8  10
ENDBRANCH   2   7
BRANCH   1  18
ATOM     18  C   UNL d   1     -48.644  11.648  22.998  0.00  0.00     0.297 C 
ATOM     19  O   UNL d   1     -48.591  11.216  22.304  0.00  0.00    -0.259 OA
BRANCH  18  20
ATOM     20  O   UNL d   1     -48.328  11.342  23.696  0.00  0.00    -0.296 OA
ATOM     21  C   UNL d   1     -47.996  10.583  23.697  0.00  0.00     0.185 C 
ENDBRANCH  18  20
ENDBRANCH   1  18
BRANCH   3  22
ATOM     22  C   UNL d   1     -50.092  14.615  23.007  0.00  0.00     0.296 C 
ATOM     23  O   UNL d   1     -50.443  14.910  22.321  0.00  0.00    -0.259 OA
BRANCH  22  24
ATOM     24  O   UNL d   1     -50.103  15.068  23.698  0.00  0.00    -0.296 OA
ATOM     25  C   UNL d   1     -50.336  15.859  23.671  0.00  0.00     0.185 C 
ENDBRANCH  22  24
ENDBRANCH   3  22
TORSDOF 8
ENDMDL
MODEL 2
REMARK VINA RESULT:      -4.9      1.420      5.151
REMARK  8 active torsions:
REMARK  status: ('A' for Active; 'I' for Inactive)
REMARK    1  A    between atoms: C_3  and  C_1 
REMARK    2  A    between atoms: N_4  and  C_2 
REMARK    3  A    between atoms: O_21  and  C_3 
REMARK       I    between atoms: C_11  and  N_4 
REMARK    4  A    between atoms: C_6  and  C_7 
REMARK    5  A    between atoms: O_22  and  C_6 
REMARK    6  A    between atoms: C_10  and  C_20 
REMARK    7  A    between atoms: C_19  and  C_11 
REMARK    8  A    between atoms: C_20  and  C_19 
ROOT
ATOM      1  C   UNL d   1     -46.101  13.033  22.659  0.00  0.00     0.081 A 
ATOM      2  C   UNL d   1     -46.391  12.449  23.163  0.00  0.00     0.090 A 
ATOM      3  C   UNL d   1     -45.152  11.752  23.091  0.00  0.00     0.065 A 
ATOM      4  C   UNL d   1     -45.922  11.810  23.380  0.00  0.00     0.025 A 
ATOM      5  C   UNL d   1     -45.331  12.975  22.370  0.00  0.00     0.007 A 
ATOM      6  C   UNL d   1     -44.857  12.335  22.586  0.00  0.00     0.006 A 
ENDROOT
BRANCH   2   7
ATOM      7  N   UNL d   1     -47.159  12.511  23.449  0.00  0.00    -0.208 NA
ATOM      8  C   UNL d   1     -47.667  11.857  23.413  0.00  0.00     0.279 C 
ATOM      9  O   UNL d   1     -47.394  11.146  23.089  0.00  0.00    -0.265 OA
BRANCH   8  10
ATOM     10  C   UNL d   1     -48.434  11.916  23.698  0.00  0.00     0.065 C 
BRANCH  10  11
ATOM     11  C   UNL d   1     -49.076  11.799  23.186  0.00  0.00     0.030 C 
BRANCH  11  12
ATOM     12  C   UNL d   1     -49.786  12.188  23.323  0.00  0.00     0.100 A 
ATOM     13  O   UNL d   1     -49.914  13.002  23.279  0.00  0.00    -0.307 OA
ATOM     14  C   UNL d   1     -50.697  13.142  23.457  0.00  0.00     0.100 A 
ATOM     15  C   UNL d   1     -51.064  13.881  23.479  0.00  0.00     0.027 C 
ATOM     16  C   UNL d   1     -51.064  12.426  23.613  0.00  0.00     0.027 A 
ATOM     17  C   UNL d   1     -50.511  11.835  23.532  0.00  0.00     0.027 A 
ENDBRANCH  11  12
ENDBRANCH  10  11
ENDBRANCH   8  10
ENDBRANCH   2   7
BRANCH   1  18
ATOM     18  C   UNL d   1     -46.581  13.669  22.449  0.00  0.00     0.297 C 
ATOM     19  O   UNL d   1     -47.032  13.639  21.766  0.00  0.00    -0.259 OA
BRANCH  18  20
ATOM     20  O   UNL d   1     -46.607  14.340  22.928  0.00  0.00    -0.296 OA
ATOM     21  C   UNL d   1     -46.960  15.033  22.644  0.00  0.00     0.185 C 
ENDBRANCH  18  20
ENDBRANCH   1  18
BRANCH   3  22
ATOM     22  C   UNL d   1     -44.677  11.112  23.306  0.00  0.00     0.296 C 
ATOM     23  O   UNL d   1     -45.019  10.407  23.566  0.00  0.00    -0.259 OA
BRANCH  22  24
ATOM     24  O   UNL d   1     -43.854  11.174  23.261  0.00  0.00    -0.296 OA
ATOM     25  C   UNL d   1     -43.397  10.507  23.097  0.00  0.00     0.185 C 
ENDBRANCH  22  24
ENDBRANCH   3  22
TORSDOF 8
ENDMDL
MODEL 3
REMARK VINA RESULT:      -4.7      3.759      7.967
REMARK  8 active torsions:
REMARK  status: ('A' for Active; 'I' for Inactive)
REMARK    1  A    between atoms: C_3  and  C_1 
REMARK    2  A    between atoms: N_4  and  C_2 
REMARK    3  A    between atoms: O_21  and  C_3 
REMARK       I    between atoms: C_11  and  N_4 
REMARK    4  A    between atoms: C_6  and  C_7 
REMARK    5  A    between atoms: O_22  and  C_6 
REMARK    6  A    between atoms: C_10  and  C_20 
REMARK    7  A    between atoms: C_19  and  C_11 
REMARK    8  A    between atoms: C_20  and  C_19 
ROOT
ATOM      1  C   UNL d   1     -39.982  14.386  20.657  0.00  0.00     0.081 A 
ATOM      2  C   UNL d   1     -40.756  14.267  20.400  0.00  0.00     0.090 A 
ATOM      3  C   UNL d   1     -40.359  14.494  19.053  0.00  0.00     0.065 A 
ATOM      4  C   UNL d   1     -40.948  14.320  19.603  0.00  0.00     0.025 A 
ATOM      5  C   UNL d   1     -39.394  14.561  20.106  0.00  0.00     0.007 A 
ATOM      6  C   UNL d   1     -39.582  14.615  19.304  0.00  0.00     0.006 A 
ENDROOT
BRANCH   2   7
ATOM      7  N   UNL d   1     -41.340  14.093  20.952  0.00  0.00    -0.208 NA
ATOM      8  C   UNL d   1     -41.973  13.601  20.743  0.00  0.00     0.279 C 
ATOM      9  O   UNL d   1     -42.011  13.290  19.977  0.00  0.00    -0.265 OA
BRANCH   8  10
ATOM     10  C   UNL d   1     -42.557  13.426  21.292  0.00  0.00     0.065 C 
BRANCH  10  11
ATOM     11  C   UNL d   1     -43.178  12.917  21.088  0.00  0.00     0.030 C 
BRANCH  11  12
ATOM     12  C   UNL d   1     -43.832  12.849  21.581  0.00  0.00     0.100 A 
ATOM     13  O   UNL d   1     -44.470  13.371  21.621  0.00  0.00    -0.307 OA
ATOM     14  C   UNL d   1     -44.988  13.089  22.183  0.00  0.00     0.100 A 
ATOM     15  C   UNL d   1     -45.702  13.441  22.402  0.00  0.00     0.027 C 
ATOM     16  C   UNL d   1     -44.685  12.396  22.498  0.00  0.00     0.027 A 
ATOM     17  C   UNL d   1     -43.975  12.242  22.133  0.00  0.00     0.027 A 
ENDBRANCH  11  12
ENDBRANCH  10  11
ENDBRANCH   8  10
ENDBRANCH   2   7
BRANCH   1  18
ATOM     18  C   UNL d   1     -39.802  14.330  21.458  0.00  0.00     0.297 C 
ATOM     19  O   UNL d   1     -39.985  14.946  21.968  0.00  0.00    -0.259 OA
BRANCH  18  20
ATOM     20  O   UNL d   1     -39.437  13.651  21.751  0.00  0.00    -0.296 OA
ATOM     21  C   UNL d   1     -39.011  13.688  22.461  0.00  0.00     0.185 C 
ENDBRANCH  18  20
ENDBRANCH   1  18
BRANCH   3  22
ATOM     22  C   UNL d   1     -40.547  14.549  18.250  0.00  0.00     0.296 C 
ATOM     23  O   UNL d   1     -40.501  13.883  17.764  0.00  0.00    -0.259 OA
BRANCH  22  24
ATOM     24  O   UNL d   1     -40.782  15.272  17.928  0.00  0.00    -0.296 OA
ATOM     25  C   UNL d   1     -40.929  15.338  17.119  0.00  0.00     0.185 C 
ENDBRANCH  22  24
ENDBRANCH   3  22
TORSDOF 8
ENDMDL
MODEL 4
REMARK VINA RESULT:      -4.2      5.776      8.943
REMARK  8 active torsions:
REMARK  status: ('A' for Active; 'I' for Inactive)
REMARK    1  A    between atoms: C_3  and  C_1 
REMARK    2  A    between atoms: N_4  and  C_2 
REMARK    3  A    between atoms: O_21  and  C_3 
REMARK       I    between atoms: C_11  and  N_4 
REMARK    4  A    between atoms: C_6  and  C_7 
REMARK    5  A    between atoms: O_22  and  C_6 
REMARK    6  A    between atoms: C_10  and  C_20 
REMARK    7  A    between atoms: C_19  and  C_11 
REMARK    8  A    between atoms: C_20  and  C_19 
ROOT
ATOM      1  C   UNL d   1     -39.730  14.476  20.847  0.00  0.00     0.081 A 
ATOM      2  C   UNL d   1     -40.244  14.515  20.204  0.00  0.00     0.090 A 
ATOM      3  C   UNL d   1     -41.307  14.011  21.006  0.00  0.00     0.065 A 
ATOM      4  C   UNL d   1     -41.029  14.284  20.279  0.00  0.00     0.025 A 
ATOM      5  C   UNL d   1     -40.008  14.203  21.574  0.00  0.00     0.007 A 
ATOM      6  C   UNL d   1     -40.796  13.970  21.653  0.00  0.00     0.006 A 
ENDROOT
BRANCH   2   7
ATOM      7  N   UNL d   1     -39.963  14.788  19.482  0.00  0.00    -0.208 NA
ATOM      8  C   UNL d   1     -40.256  14.466  18.776  0.00  0.00     0.279 C 
ATOM      9  O   UNL d   1     -40.829  13.871  18.807  0.00  0.00    -0.265 OA
BRANCH   8  10
ATOM     10  C   UNL d   1     -39.977  14.737  18.054  0.00  0.00     0.065 C 
BRANCH  10  11
ATOM     11  C   UNL d   1     -39.834  14.201  17.438  0.00  0.00     0.030 C 
BRANCH  11  12
ATOM     12  C   UNL d   1     -39.331  14.407  16.823  0.00  0.00     0.100 A 
ATOM     13  O   UNL d   1     -38.877  13.889  16.367  0.00  0.00    -0.307 OA
ATOM     14  C   UNL d   1     -38.463  14.332  15.823  0.00  0.00     0.100 A 
ATOM     15  C   UNL d   1     -37.940  14.037  15.256  0.00  0.00     0.027 C 
ATOM     16  C   UNL d   1     -38.649  15.123  15.930  0.00  0.00     0.027 A 
ATOM     17  C   UNL d   1     -39.182  15.177  16.542  0.00  0.00     0.027 A 
ENDBRANCH  11  12
ENDBRANCH  10  11
ENDBRANCH   8  10
ENDBRANCH   2   7
BRANCH   1  18
ATOM     18  C   UNL d   1     -38.946  14.710  20.760  0.00  0.00     0.297 C 
ATOM     19  O   UNL d   1     -38.377  14.172  20.517  0.00  0.00    -0.259 OA
BRANCH  18  20
ATOM     20  O   UNL d   1     -38.730  15.491  20.918  0.00  0.00    -0.296 OA
ATOM     21  C   UNL d   1     -37.940  15.672  21.088  0.00  0.00     0.185 C 
ENDBRANCH  18  20
ENDBRANCH   1  18
BRANCH   3  22
ATOM     22  C   UNL d   1     -42.095  13.777  21.086  0.00  0.00     0.296 C 
ATOM     23  O   UNL d   1     -42.695  14.343  21.136  0.00  0.00    -0.259 OA
BRANCH  22  24
ATOM     24  O   UNL d   1     -42.288  12.975  21.116  0.00  0.00    -0.296 OA
ATOM     25  C   UNL d   1     -43.057  12.740  21.302  0.00  0.00     0.185 C 
ENDBRANCH  22  24
ENDBRANCH   3  22
TORSDOF 8
ENDMDL
MODEL 5
REMARK VINA RESULT:      -3.8      4.402      8.664
REMARK  8 active torsions:
REMARK  status: ('A' for Active; 'I' for Inactive)
REMARK    1  A    between atoms: C_3  and  C_1 
REMARK    2  A    between atoms: N_4  and  C_2 
REMARK    3  A    between atoms: O_21  and  C_3 
REMARK       I    between atoms: C_11  and  N_4 
REMARK    4  A    between atoms: C_6  and  C_7 
REMARK    5  A    between atoms: O_22  and  C_6 
REMARK    6  A    between atoms: C_10  and  C_20 
REMARK    7  A    between atoms: C_19  and  C_11 
REMARK    8  A    between atoms: C_20  and  C_19 
ROOT
ATOM      1  C   UNL d   1     -39.951  14.728  18.994  0.00  0.00     0.081 A 
ATOM      2  C   UNL d   1     -40.200  14.530  19.754  0.00  0.00     0.090 A 
ATOM      3  C   UNL d   1     -38.961  14.976  20.292  0.00  0.00     0.065 A 
ATOM      4  C   UNL d   1     -39.711  14.651  20.402  0.00  0.00     0.025 A 
ATOM      5  C   UNL d   1     -39.201  15.053  18.883  0.00  0.00     0.007 A 
ATOM      6  C   UNL d   1     -38.706  15.177  19.533  0.00  0.00     0.006 A 
ENDROOT
BRANCH   2   7
ATOM      7  N   UNL d   1     -40.949  14.206  19.859  0.00  0.00    -0.208 NA
ATOM      8  C   UNL d   1     -41.310  14.235  20.605  0.00  0.00     0.279 C 
ATOM      9  O   UNL d   1     -40.912  14.590  21.237  0.00  0.00    -0.265 OA
BRANCH   8  10
ATOM     10  C   UNL d   1     -42.057  13.913  20.712  0.00  0.00     0.065 C 
BRANCH  10  11
ATOM     11  C   UNL d   1     -42.242  13.524  21.421  0.00  0.00     0.030 C 
BRANCH  11  12
ATOM     12  C   UNL d   1     -42.988  13.199  21.527  0.00  0.00     0.100 A 
ATOM     13  O   UNL d   1     -43.677  13.610  21.725  0.00  0.00    -0.307 OA
ATOM     14  C   UNL d   1     -44.285  13.069  21.773  0.00  0.00     0.100 A 
ATOM     15  C   UNL d   1     -45.071  13.241  21.958  0.00  0.00     0.027 C 
ATOM     16  C   UNL d   1     -43.989  12.323  21.608  0.00  0.00     0.027 A 
ATOM     17  C   UNL d   1     -43.193  12.395  21.456  0.00  0.00     0.027 A 
ENDBRANCH  11  12
ENDBRANCH  10  11
ENDBRANCH   8  10
ENDBRANCH   2   7
BRANCH   1  18
ATOM     18  C   UNL d   1     -40.451  14.601  18.352  0.00  0.00     0.297 C 
ATOM     19  O   UNL d   1     -40.598  13.841  18.085  0.00  0.00    -0.259 OA
BRANCH  18  20
ATOM     20  O   UNL d   1     -40.806  15.243  17.975  0.00  0.00    -0.296 OA
ATOM     21  C   UNL d   1     -41.061  15.169  17.190  0.00  0.00     0.185 C 
ENDBRANCH  18  20
ENDBRANCH   1  18
BRANCH   3  22
ATOM     22  C   UNL d   1     -38.465  15.100  20.941  0.00  0.00     0.296 C 
ATOM     23  O   UNL d   1     -37.940  14.512  21.183  0.00  0.00    -0.259 OA
BRANCH  22  24
ATOM     24  O   UNL d   1     -38.492  15.817  21.351  0.00  0.00    -0.296 OA
ATOM     25  C   UNL d   1     -38.039  15.922  22.032  0.00  0.00     0.185 C 
ENDBRANCH  22  24
ENDBRANCH   3  22
TORSDOF 8
ENDMDL
MODEL 6
REMARK VINA RESULT:      -3.7      1.584      2.074
REMARK  8 active torsions:
REMARK  status: ('A' for Active; 'I' for Inactive)
REMARK    1  A    between atoms: C_3  and  C_1 
REMARK    2  A    between atoms: N_4  and  C_2 
REMARK    3  A    between atoms: O_21  and  C_3 
REMARK       I    between atoms: C_11  and  N_4 
REMARK    4  A    between atoms: C_6  and  C_7 
REMARK    5  A    between atoms: O_22  and  C_6 
REMARK    6  A    between atoms: C_10  and  C_20 
REMARK    7  A    between atoms: C_19  and  C_11 
REMARK    8  A    between atoms: C_20  and  C_19 
ROOT
ATOM      1  C   UNL d   1     -48.846  12.605  22.650  0.00  0.00     0.081 A 
ATOM      2  C   UNL d   1     -48.099  12.846  22.899  0.00  0.00     0.090 A 
ATOM      3  C   UNL d   1     -48.385  14.184  22.509  0.00  0.00     0.065 A 
ATOM      4  C   UNL d   1     -47.865  13.631  22.831  0.00  0.00     0.025 A 
ATOM      5  C   UNL d   1     -49.365  13.159  22.327  0.00  0.00     0.007 A 
ATOM      6  C   UNL d   1     -49.135  13.949  22.257  0.00  0.00     0.006 A 
ENDROOT
BRANCH   2   7
ATOM      7  N   UNL d   1     -47.584  12.291  23.220  0.00  0.00    -0.208 NA
ATOM      8  C   UNL d   1     -46.767  12.365  23.097  0.00  0.00     0.279 C 
ATOM      9  O   UNL d   1     -46.479  12.999  22.651  0.00  0.00    -0.265 OA
BRANCH   8  10
ATOM     10  C   UNL d   1     -46.252  11.812  23.415  0.00  0.00     0.065 C 
BRANCH  10  11
ATOM     11  C   UNL d   1     -45.448  11.834  23.218  0.00  0.00     0.030 C 
BRANCH  11  12
ATOM     12  C   UNL d   1     -44.970  11.183  23.370  0.00  0.00     0.100 A 
ATOM     13  O   UNL d   1     -44.146  11.158  23.314  0.00  0.00    -0.307 OA
ATOM     14  C   UNL d   1     -43.906  10.405  23.514  0.00  0.00     0.100 A 
ATOM     15  C   UNL d   1     -43.126  10.136  23.532  0.00  0.00     0.027 C 
ATOM     16  C   UNL d   1     -44.567   9.956  23.695  0.00  0.00     0.027 A 
ATOM     17  C   UNL d   1     -45.224  10.427  23.608  0.00  0.00     0.027 A 
ENDBRANCH  11  12
ENDBRANCH  10  11
ENDBRANCH   8  10
ENDBRANCH   2   7
BRANCH   1  18
ATOM     18  C   UNL d   1     -49.068  11.816  22.723  0.00  0.00     0.297 C 
ATOM     19  O   UNL d   1     -49.062  11.321  22.070  0.00  0.00    -0.259 OA
BRANCH  18  20
ATOM     20  O   UNL d   1     -49.299  11.521  23.458  0.00  0.00    -0.296 OA
ATOM     21  C   UNL d   1     -49.950  11.011  23.509  0.00  0.00     0.185 C 
ENDBRANCH  18  20
ENDBRANCH   1  18
BRANCH   3  22
ATOM     22  C   UNL d   1     -48.155  14.975  22.439  0.00  0.00     0.296 C 
ATOM     23  O   UNL d   1     -48.648  15.579  22.710  0.00  0.00    -0.259 OA
BRANCH  22  24
ATOM     24  O   UNL d   1     -47.428  15.165  22.095  0.00  0.00    -0.296 OA
ATOM     25  C   UNL d   1     -46.969  15.776  22.407  0.00  0.00     0.185 C 
ENDBRANCH  22  24
ENDBRANCH   3  22
TORSDOF 8
ENDMDL
MODEL 7
REMARK VINA RESULT:      -3.4      1.390      2.041
REMARK  8 active torsions:
REMARK  status: ('A' for Active; 'I' for Inactive)
REMARK    1  A    between atoms: C_3  and  C_1 
REMARK    2  A    between atoms: N_4  and  C_2 
REMARK    3  A    between atoms: O_21  and  C_3 
REMARK       I    between atoms: C_11  and  N_4 
REMARK    4  A    between atoms: C_6  and  C_7 
REMARK    5  A    between atoms: O_22  and  C_6 
REMARK    6  A    between atoms: C_10  and  C_20 
REMARK    7  A    between atoms: C_19  and  C_11 
REMARK    8  A    between atoms: C_20  and  C_19 
ROOT
ATOM      1  C   UNL d   1     -46.957  12.111  23.303  0.00  0.00     0.081 A 
ATOM      2  C   UNL d   1     -46.724  12.834  22.983  0.00  0.00     0.090 A 
ATOM      3  C   UNL d   1     -48.081  13.254  22.907  0.00  0.00     0.065 A 
ATOM      4  C   UNL d   1     -47.280  13.406  22.785  0.00  0.00     0.025 A 
ATOM      5  C   UNL d   1     -47.758  11.960  23.425  0.00  0.00     0.007 A 
ATOM      6  C   UNL d   1     -48.321  12.532  23.227  0.00  0.00     0.006 A 
ENDROOT
BRANCH   2   7
ATOM      7  N   UNL d   1     -45.923  12.980  22.863  0.00  0.00    -0.208 NA
ATOM      8  C   UNL d   1     -45.671  13.346  22.163  0.00  0.00     0.279 C 
ATOM      9  O   UNL d   1     -46.229  13.561  21.591  0.00  0.00    -0.265 OA
BRANCH   8  10
ATOM     10  C   UNL d   1     -44.873  13.493  22.041  0.00  0.00     0.065 C 
BRANCH  10  11
ATOM     11  C   UNL d   1     -44.448  13.039  21.493  0.00  0.00     0.030 C 
BRANCH  11  12
ATOM     12  C   UNL d   1     -43.634  13.124  21.434  0.00  0.00     0.100 A 
ATOM     13  O   UNL d   1     -43.222  13.832  21.323  0.00  0.00    -0.307 OA
ATOM     14  C   UNL d   1     -42.426  13.656  21.298  0.00  0.00     0.100 A 
ATOM     15  C   UNL d   1     -41.815  14.201  21.195  0.00  0.00     0.027 C 
ATOM     16  C   UNL d   1     -42.331  12.847  21.391  0.00  0.00     0.027 A 
ATOM     17  C   UNL d   1     -43.068  12.514  21.476  0.00  0.00     0.027 A 
ENDBRANCH  11  12
ENDBRANCH  10  11
ENDBRANCH   8  10
ENDBRANCH   2   7
BRANCH   1  18
ATOM     18  C   UNL d   1     -46.390  11.547  23.497  0.00  0.00     0.297 C 
ATOM     19  O   UNL d   1     -45.628  11.775  23.693  0.00  0.00    -0.259 OA
BRANCH  18  20
ATOM     20  O   UNL d   1     -46.590  10.747  23.496  0.00  0.00    -0.296 OA
ATOM     21  C   UNL d   1     -46.014  10.179  23.676  0.00  0.00     0.185 C 
ENDBRANCH  18  20
ENDBRANCH   1  18
BRANCH   3  22
ATOM     22  C   UNL d   1     -48.644  13.826  22.709  0.00  0.00     0.296 C 
ATOM     23  O   UNL d   1     -48.762  14.482  23.196  0.00  0.00    -0.259 OA
BRANCH  22  24
ATOM     24  O   UNL d   1     -49.094  13.743  22.021  0.00  0.00    -0.296 OA
ATOM     25  C   UNL d   1     -49.530  14.380  21.731  0.00  0.00     0.185 C 
ENDBRANCH  22  24
ENDBRANCH   3  22
TORSDOF 8
ENDMDL
