MODEL 1
REMARK VINA RESULT:      64.3      0.000      0.000
REMARK  8 active torsions:
REMARK  status: ('A' for Active; 'I' for Inactive)
REMARK    1  A    between atoms: C_2  and  C_1 
REMARK    2  A    between atoms: C_12  and  C_5 
REMARK    3  A    between atoms: C_14  and  C_6 
REMARK    4  A    between atoms: O_20  and  C_13 
REMARK    5  A    between atoms: O_21  and  C_14 
REMARK    6  A    between atoms: O_23  and  C_15 
REMARK    7  A    between atoms: O_22  and  C_16 
REMARK    8  A    between atoms: C_26  and  O_21 
ROOT
ATOM      1  C   UNL d   1      13.527  14.102  -3.596  0.00  0.00     0.206 A 
ATOM      2  O   UNL d   1      14.014  14.783  -3.802  0.00  0.00    -0.268 OA
ATOM      3  N   UNL d   1      12.791  14.159  -4.045  0.00  0.00    -0.121 NA
ATOM      4  C   UNL d   1      13.582  15.263  -4.378  0.00  0.00     0.205 A 
ATOM      5  N   UNL d   1      12.816  14.873  -4.531  0.00  0.00    -0.121 NA
ENDROOT
BRANCH   1   6
ATOM      6  C   UNL d   1      13.735  13.513  -3.067  0.00  0.00     0.061 A 
ATOM      7  C   UNL d   1      13.914  13.710  -2.298  0.00  0.00     0.012 A 
ATOM      8  C   UNL d   1      14.121  13.138  -1.764  0.00  0.00     0.081 A 
ATOM      9  C   UNL d   1      14.151  12.354  -1.999  0.00  0.00     0.086 A 
ATOM     10  N   UNL d   1      13.974  12.153  -2.763  0.00  0.00    -0.245 NA
ATOM     11  C   UNL d   1      14.358  11.780  -1.465  0.00  0.00     0.021 C 
ATOM     12  C   UNL d   1      13.765  12.728  -3.302  0.00  0.00     0.085 A 
ATOM     13  C   UNL d   1      13.588  12.522  -4.068  0.00  0.00     0.021 C 
BRANCH   8  14
ATOM     14  C   UNL d   1      14.296  13.339  -1.005  0.00  0.00     0.302 C 
ATOM     15  O   UNL d   1      13.946  12.942  -0.387  0.00  0.00    -0.259 OA
BRANCH  14  16
ATOM     16  O   UNL d   1      14.823  13.936  -0.847  0.00  0.00    -0.271 OA
BRANCH  16  17
ATOM     17  C   UNL d   1      15.358  13.853  -0.244  0.00  0.00     0.126 C 
ATOM     18  C   UNL d   1      15.823  14.496  -0.016  0.00  0.00     0.029 C 
ENDBRANCH  16  17
ENDBRANCH  14  16
ENDBRANCH   8  14
ENDBRANCH   1   6
BRANCH   4  19
ATOM     19  C   UNL d   1      13.861  16.008  -4.744  0.00  0.00     0.047 A 
ATOM     20  C   UNL d   1      14.587  16.374  -4.464  0.00  0.00     0.030 A 
ATOM     21  C   UNL d   1      14.865  17.109  -4.823  0.00  0.00     0.118 A 
ATOM     22  C   UNL d   1      14.407  17.479  -5.470  0.00  0.00     0.138 A 
ATOM     23  C   UNL d   1      13.676  17.103  -5.747  0.00  0.00     0.118 A 
ATOM     24  C   UNL d   1      13.403  16.367  -5.384  0.00  0.00     0.030 A 
BRANCH  21  25
ATOM     25  O   UNL d   1      15.493  17.714  -4.806  0.00  0.00    -0.326 OA
ATOM     26  C   UNL d   1      16.298  17.518  -5.066  0.00  0.00     0.181 C 
ENDBRANCH  21  25
BRANCH  22  27
ATOM     27  O   UNL d   1      14.685  18.214  -5.830  0.00  0.00    -0.324 OA
ATOM     28  C   UNL d   1      14.155  18.897  -5.877  0.00  0.00     0.182 C 
ENDBRANCH  22  27
BRANCH  23  29
ATOM     29  O   UNL d   1      13.221  17.467  -6.388  0.00  0.00    -0.326 OA
ATOM     30  C   UNL d   1      13.048  18.314  -6.370  0.00  0.00     0.181 C 
ENDBRANCH  23  29
ENDBRANCH   4  19
TORSDOF 8
ENDMDL
MODEL 2
REMARK VINA RESULT:      65.9      1.168      2.160
REMARK  8 active torsions:
REMARK  status: ('A' for Active; 'I' for Inactive)
REMARK    1  A    between atoms: C_2  and  C_1 
REMARK    2  A    between atoms: C_12  and  C_5 
REMARK    3  A    between atoms: C_14  and  C_6 
REMARK    4  A    between atoms: O_20  and  C_13 
REMARK    5  A    between atoms: O_21  and  C_14 
REMARK    6  A    between atoms: O_23  and  C_15 
REMARK    7  A    between atoms: O_22  and  C_16 
REMARK    8  A    between atoms: C_26  and  O_21 
ROOT
ATOM      1  C   UNL d   1      14.020  15.114  -3.906  0.00  0.00     0.206 A 
ATOM      2  O   UNL d   1      13.925  15.690  -4.540  0.00  0.00    -0.268 OA
ATOM      3  N   UNL d   1      14.475  15.490  -3.274  0.00  0.00    -0.121 NA
ATOM      4  C   UNL d   1      14.319  16.423  -4.304  0.00  0.00     0.205 A 
ATOM      5  N   UNL d   1      14.664  16.299  -3.512  0.00  0.00    -0.121 NA
ENDROOT
BRANCH   1   6
ATOM      6  C   UNL d   1      13.728  14.349  -3.911  0.00  0.00     0.061 A 
ATOM      7  C   UNL d   1      13.959  13.829  -3.327  0.00  0.00     0.012 A 
ATOM      8  C   UNL d   1      13.678  13.070  -3.320  0.00  0.00     0.081 A 
ATOM      9  C   UNL d   1      13.159  12.821  -3.902  0.00  0.00     0.086 A 
ATOM     10  N   UNL d   1      12.928  13.336  -4.483  0.00  0.00    -0.245 NA
ATOM     11  C   UNL d   1      12.878  12.062  -3.895  0.00  0.00     0.021 C 
ATOM     12  C   UNL d   1      13.209  14.100  -4.493  0.00  0.00     0.085 A 
ATOM     13  C   UNL d   1      12.974  14.613  -5.079  0.00  0.00     0.021 C 
BRANCH   8  14
ATOM     14  C   UNL d   1      13.909  12.561  -2.741  0.00  0.00     0.302 C 
ATOM     15  O   UNL d   1      14.059  11.781  -2.921  0.00  0.00    -0.259 OA
BRANCH  14  16
ATOM     16  O   UNL d   1      13.996  12.816  -1.976  0.00  0.00    -0.271 OA
BRANCH  16  17
ATOM     17  C   UNL d   1      14.633  12.573  -1.538  0.00  0.00     0.126 C 
ATOM     18  C   UNL d   1      15.036  13.114  -1.062  0.00  0.00     0.029 C 
ENDBRANCH  16  17
ENDBRANCH  14  16
ENDBRANCH   8  14
ENDBRANCH   1   6
BRANCH   4  19
ATOM     19  C   UNL d   1      14.365  17.160  -4.774  0.00  0.00     0.047 A 
ATOM     20  C   UNL d   1      13.732  17.355  -5.323  0.00  0.00     0.030 A 
ATOM     21  C   UNL d   1      13.774  18.082  -5.788  0.00  0.00     0.118 A 
ATOM     22  C   UNL d   1      14.461  18.617  -5.701  0.00  0.00     0.138 A 
ATOM     23  C   UNL d   1      15.094  18.413  -5.145  0.00  0.00     0.118 A 
ATOM     24  C   UNL d   1      15.047  17.684  -4.682  0.00  0.00     0.030 A 
BRANCH  21  25
ATOM     25  O   UNL d   1      13.364  18.567  -6.387  0.00  0.00    -0.326 OA
ATOM     26  C   UNL d   1      12.769  19.150  -6.146  0.00  0.00     0.181 C 
ENDBRANCH  21  25
BRANCH  22  27
ATOM     27  O   UNL d   1      14.503  19.344  -6.166  0.00  0.00    -0.324 OA
ATOM     28  C   UNL d   1      14.264  20.097  -5.811  0.00  0.00     0.182 C 
ENDBRANCH  22  27
BRANCH  23  29
ATOM     29  O   UNL d   1      15.776  18.941  -5.057  0.00  0.00    -0.326 OA
ATOM     30  C   UNL d   1      16.566  18.672  -5.282  0.00  0.00     0.181 C 
ENDBRANCH  23  29
ENDBRANCH   4  19
TORSDOF 8
ENDMDL
