MODEL 1
REMARK VINA RESULT:      -9.8      0.000      0.000
REMARK  2 active torsions:
REMARK  status: ('A' for Active; 'I' for Inactive)
REMARK       I    between atoms: N_3  and  C_1 
REMARK    1  A    between atoms: O_4  and  C_1 
REMARK    2  A    between atoms: C_6  and  O_4 
ROOT
ATOM      1  C   UNL d   1      53.825  33.314  54.269  0.00  0.00     0.105 A 
ATOM      2  C   UNL d   1      53.618  34.105  54.368  0.00  0.00     0.030 A 
ATOM      3  C   UNL d   1      53.389  32.829  53.743  0.00  0.00     0.122 A 
ATOM      4  N   UNL d   1      54.465  32.994  54.690  0.00  0.00    -0.242 NA
ATOM      5  C   UNL d   1      52.980  34.421  53.948  0.00  0.00     0.059 A 
ATOM      6  C   UNL d   1      52.756  33.145  53.327  0.00  0.00     0.027 A 
ATOM      7  C   UNL d   1      52.544  33.936  53.422  0.00  0.00     0.013 A 
ATOM      8 CL   UNL d   1      52.768  35.219  54.045  0.00  0.00    -0.082 Cl
ATOM      9  C   UNL d   1      54.047  34.582  54.886  0.00  0.00     0.004 A 
ATOM     10  C   UNL d   1      54.894  33.472  55.208  0.00  0.00     0.099 A 
ATOM     11  C   UNL d   1      54.683  34.270  55.306  0.00  0.00     0.021 A 
ENDROOT
BRANCH   3  12
ATOM     12  O   UNL d   1      53.597  32.027  53.642  0.00  0.00    -0.257 OA
BRANCH  12  13
ATOM     13  C   UNL d   1      53.139  31.529  53.151  0.00  0.00     0.378 C 
ATOM     14  N   UNL d   1      53.075  30.730  53.310  0.00  0.00    -0.252 N 
ATOM     15  C   UNL d   1      52.622  30.243  52.822  0.00  0.00     0.085 A 
ATOM     16  C   UNL d   1      53.466  30.406  53.962  0.00  0.00     0.085 A 
ATOM     17  C   UNL d   1      52.557  29.439  52.979  0.00  0.00     0.019 A 
ATOM     18  C   UNL d   1      52.947  29.115  53.631  0.00  0.00     0.003 A 
ATOM     19  C   UNL d   1      53.397  29.601  54.115  0.00  0.00     0.019 A 
ATOM     20  O   UNL d   1      52.744  31.857  52.491  0.00  0.00    -0.237 OA
ENDBRANCH  12  13
ENDBRANCH   3  12
TORSDOF 2
ENDMDL
MODEL 2
REMARK VINA RESULT:      -9.4      2.182      3.527
REMARK  2 active torsions:
REMARK  status: ('A' for Active; 'I' for Inactive)
REMARK       I    between atoms: N_3  and  C_1 
REMARK    1  A    between atoms: O_4  and  C_1 
REMARK    2  A    between atoms: C_6  and  O_4 
ROOT
ATOM      1  C   UNL d   1      53.142  33.240  53.985  0.00  0.00     0.105 A 
ATOM      2  C   UNL d   1      53.672  32.624  54.112  0.00  0.00     0.030 A 
ATOM      3  C   UNL d   1      52.523  33.153  53.427  0.00  0.00     0.122 A 
ATOM      4  N   UNL d   1      53.218  33.950  54.408  0.00  0.00    -0.242 NA
ATOM      5  C   UNL d   1      53.595  31.917  53.689  0.00  0.00     0.059 A 
ATOM      6  C   UNL d   1      52.447  32.451  53.008  0.00  0.00     0.027 A 
ATOM      7  C   UNL d   1      52.975  31.830  53.132  0.00  0.00     0.013 A 
ATOM      8 CL   UNL d   1      54.128  31.293  53.814  0.00  0.00    -0.082 Cl
ATOM      9  C   UNL d   1      54.282  32.710  54.661  0.00  0.00     0.004 A 
ATOM     10  C   UNL d   1      53.828  34.037  54.957  0.00  0.00     0.099 A 
ATOM     11  C   UNL d   1      54.362  33.412  55.083  0.00  0.00     0.021 A 
ENDROOT
BRANCH   3  12
ATOM     12  O   UNL d   1      51.984  33.776  53.297  0.00  0.00    -0.257 OA
BRANCH  12  13
ATOM     13  C   UNL d   1      51.583  33.845  52.567  0.00  0.00     0.378 C 
ATOM     14  N   UNL d   1      50.835  34.171  52.530  0.00  0.00    -0.252 N 
ATOM     15  C   UNL d   1      50.444  34.237  51.806  0.00  0.00     0.085 A 
ATOM     16  C   UNL d   1      50.466  34.437  53.219  0.00  0.00     0.085 A 
ATOM     17  C   UNL d   1      49.691  34.564  51.766  0.00  0.00     0.019 A 
ATOM     18  C   UNL d   1      49.322  34.830  52.456  0.00  0.00     0.003 A 
ATOM     19  C   UNL d   1      49.712  34.764  53.174  0.00  0.00     0.019 A 
ATOM     20  O   UNL d   1      51.957  33.576  51.868  0.00  0.00    -0.237 OA
ENDBRANCH  12  13
ENDBRANCH   3  12
TORSDOF 2
ENDMDL
MODEL 3
REMARK VINA RESULT:      -9.0      2.183      3.817
REMARK  2 active torsions:
REMARK  status: ('A' for Active; 'I' for Inactive)
REMARK       I    between atoms: N_3  and  C_1 
REMARK    1  A    between atoms: O_4  and  C_1 
REMARK    2  A    between atoms: C_6  and  O_4 
ROOT
ATOM      1  C   UNL d   1      52.882  32.496  53.273  0.00  0.00     0.105 A 
ATOM      2  C   UNL d   1      53.575  32.370  53.697  0.00  0.00     0.030 A 
ATOM      3  C   UNL d   1      52.543  33.262  53.240  0.00  0.00     0.122 A 
ATOM      4  N   UNL d   1      52.515  31.867  52.875  0.00  0.00    -0.242 NA
ATOM      5  C   UNL d   1      53.939  32.998  54.093  0.00  0.00     0.059 A 
ATOM      6  C   UNL d   1      52.906  33.885  53.633  0.00  0.00     0.027 A 
ATOM      7  C   UNL d   1      53.601  33.764  54.060  0.00  0.00     0.013 A 
ATOM      8 CL   UNL d   1      54.639  32.875  54.522  0.00  0.00    -0.082 Cl
ATOM      9  C   UNL d   1      53.908  31.616  53.729  0.00  0.00     0.004 A 
ATOM     10  C   UNL d   1      52.848  31.113  52.907  0.00  0.00     0.099 A 
ATOM     11  C   UNL d   1      53.548  30.988  53.337  0.00  0.00     0.021 A 
ENDROOT
BRANCH   3  12
ATOM     12  O   UNL d   1      51.841  33.393  52.810  0.00  0.00    -0.257 OA
BRANCH  12  13
ATOM     13  C   UNL d   1      51.220  33.847  53.138  0.00  0.00     0.378 C 
ATOM     14  N   UNL d   1      50.613  34.127  52.668  0.00  0.00    -0.252 N 
ATOM     15  C   UNL d   1      50.004  34.575  52.997  0.00  0.00     0.085 A 
ATOM     16  C   UNL d   1      50.608  33.963  51.859  0.00  0.00     0.085 A 
ATOM     17  C   UNL d   1      49.392  34.858  52.527  0.00  0.00     0.019 A 
ATOM     18  C   UNL d   1      49.387  34.693  51.718  0.00  0.00     0.003 A 
ATOM     19  C   UNL d   1      49.994  34.248  51.392  0.00  0.00     0.019 A 
ATOM     20  O   UNL d   1      51.225  34.014  53.958  0.00  0.00    -0.237 OA
ENDBRANCH  12  13
ENDBRANCH   3  12
TORSDOF 2
ENDMDL
MODEL 4
REMARK VINA RESULT:      -7.4      1.592      4.017
REMARK  2 active torsions:
REMARK  status: ('A' for Active; 'I' for Inactive)
REMARK       I    between atoms: N_3  and  C_1 
REMARK    1  A    between atoms: O_4  and  C_1 
REMARK    2  A    between atoms: C_6  and  O_4 
ROOT
ATOM      1  C   UNL d   1      53.332  30.390  54.130  0.00  0.00     0.105 A 
ATOM      2  C   UNL d   1      53.072  29.802  53.618  0.00  0.00     0.030 A 
ATOM      3  C   UNL d   1      53.400  31.181  53.862  0.00  0.00     0.122 A 
ATOM      4  N   UNL d   1      53.528  30.204  54.916  0.00  0.00    -0.242 NA
ATOM      5  C   UNL d   1      52.878  29.990  52.836  0.00  0.00     0.059 A 
ATOM      6  C   UNL d   1      53.207  31.367  53.086  0.00  0.00     0.027 A 
ATOM      7  C   UNL d   1      52.946  30.781  52.567  0.00  0.00     0.013 A 
ATOM      8 CL   UNL d   1      52.616  29.399  52.315  0.00  0.00    -0.082 Cl
ATOM      9  C   UNL d   1      53.005  29.023  53.882  0.00  0.00     0.004 A 
ATOM     10  C   UNL d   1      53.461  29.425  55.180  0.00  0.00     0.099 A 
ATOM     11  C   UNL d   1      53.198  28.833  54.659  0.00  0.00     0.021 A 
ENDROOT
BRANCH   3  12
ATOM     12  O   UNL d   1      53.664  31.780  54.380  0.00  0.00    -0.257 OA
BRANCH  12  13
ATOM     13  C   UNL d   1      53.387  32.564  54.299  0.00  0.00     0.378 C 
ATOM     14  N   UNL d   1      53.814  33.192  54.601  0.00  0.00    -0.252 N 
ATOM     15  C   UNL d   1      53.536  33.964  54.518  0.00  0.00     0.085 A 
ATOM     16  C   UNL d   1      54.528  33.054  54.993  0.00  0.00     0.085 A 
ATOM     17  C   UNL d   1      53.963  34.597  54.821  0.00  0.00     0.019 A 
ATOM     18  C   UNL d   1      54.678  34.459  55.212  0.00  0.00     0.003 A 
ATOM     19  C   UNL d   1      54.952  33.692  55.295  0.00  0.00     0.019 A 
ATOM     20  O   UNL d   1      52.663  32.703  53.902  0.00  0.00    -0.237 OA
ENDBRANCH  12  13
ENDBRANCH   3  12
TORSDOF 2
ENDMDL
MODEL 5
REMARK VINA RESULT:      -7.0     10.040     10.892
REMARK  2 active torsions:
REMARK  status: ('A' for Active; 'I' for Inactive)
REMARK       I    between atoms: N_3  and  C_1 
REMARK    1  A    between atoms: O_4  and  C_1 
REMARK    2  A    between atoms: C_6  and  O_4 
ROOT
ATOM      1  C   UNL d   1      45.060  28.753  58.017  0.00  0.00     0.105 A 
ATOM      2  C   UNL d   1      45.020  28.760  57.195  0.00  0.00     0.030 A 
ATOM      3  C   UNL d   1      44.875  29.445  58.452  0.00  0.00     0.122 A 
ATOM      4  N   UNL d   1      45.284  28.061  58.418  0.00  0.00    -0.242 NA
ATOM      5  C   UNL d   1      44.796  29.450  56.797  0.00  0.00     0.059 A 
ATOM      6  C   UNL d   1      44.654  30.129  58.056  0.00  0.00     0.027 A 
ATOM      7  C   UNL d   1      44.612  30.142  57.233  0.00  0.00     0.013 A 
ATOM      8 CL   UNL d   1      44.754  29.461  55.968  0.00  0.00    -0.082 Cl
ATOM      9  C   UNL d   1      45.201  28.079  56.767  0.00  0.00     0.004 A 
ATOM     10  C   UNL d   1      45.466  27.380  57.990  0.00  0.00     0.099 A 
ATOM     11  C   UNL d   1      45.424  27.391  57.160  0.00  0.00     0.021 A 
ENDROOT
BRANCH   3  12
ATOM     12  O   UNL d   1      44.916  29.440  59.285  0.00  0.00    -0.257 OA
BRANCH  12  13
ATOM     13  C   UNL d   1      44.946  30.157  59.713  0.00  0.00     0.378 C 
ATOM     14  N   UNL d   1      44.750  30.180  60.506  0.00  0.00    -0.252 N 
ATOM     15  C   UNL d   1      44.782  30.891  60.924  0.00  0.00     0.085 A 
ATOM     16  C   UNL d   1      44.518  29.489  60.894  0.00  0.00     0.085 A 
ATOM     17  C   UNL d   1      44.585  30.916  61.721  0.00  0.00     0.019 A 
ATOM     18  C   UNL d   1      44.353  30.225  62.108  0.00  0.00     0.003 A 
ATOM     19  C   UNL d   1      44.322  29.520  61.692  0.00  0.00     0.019 A 
ATOM     20  O   UNL d   1      45.181  30.858  59.320  0.00  0.00    -0.237 OA
ENDBRANCH  12  13
ENDBRANCH   3  12
TORSDOF 2
ENDMDL
