MODEL 1
REMARK VINA RESULT:      37.4      0.000      0.000
REMARK  2 active torsions:
REMARK  status: ('A' for Active; 'I' for Inactive)
REMARK       I    between atoms: C_2  and  N_1 
REMARK    1  A    between atoms: C_4  and  C_2 
REMARK    2  A    between atoms: C_6  and  C_7 
ROOT
ATOM      1  C   UNL d   1     -52.173  26.354  33.468  0.00  0.00     0.057 A 
ATOM      2  C   UNL d   1     -50.777  27.250  33.550  0.00  0.00    -0.023 A 
ATOM      3  C   UNL d   1     -51.457  25.982  33.671  0.00  0.00     0.004 A 
ATOM      4  C   UNL d   1     -52.209  27.152  33.308  0.00  0.00     0.004 A 
ATOM      5  C   UNL d   1     -50.742  26.452  33.711  0.00  0.00    -0.004 A 
ATOM      6  C   UNL d   1     -51.494  27.621  33.347  0.00  0.00    -0.004 A 
ENDROOT
BRANCH   1   7
ATOM      7  C   UNL d   1     -52.864  25.912  33.428  0.00  0.00     0.267 C 
ATOM      8  N   UNL d   1     -52.813  25.076  33.399  0.00  0.00    -0.240 N 
ATOM      9  C   UNL d   1     -52.072  24.689  33.411  0.00  0.00     0.267 A 
ATOM     10  C   UNL d   1     -53.554  24.707  33.359  0.00  0.00     0.086 A 
ATOM     11  O   UNL d   1     -51.367  25.224  33.455  0.00  0.00    -0.267 OA
ATOM     12  C   UNL d   1     -51.879  23.890  33.388  0.00  0.00     0.061 A 
ATOM     13  C   UNL d   1     -52.433  23.237  33.345  0.00  0.00     0.005 A 
ATOM     14  C   UNL d   1     -53.200  23.260  33.319  0.00  0.00     0.002 A 
ATOM     15  C   UNL d   1     -53.726  23.901  33.324  0.00  0.00     0.019 A 
ATOM     16  O   UNL d   1     -53.587  26.271  33.416  0.00  0.00    -0.267 OA
ENDBRANCH   1   7
BRANCH   2  17
ATOM     17  C   UNL d   1     -50.083  27.692  33.591  0.00  0.00     0.019 C 
ATOM     18  C   UNL d   1     -50.476  28.354  33.306  0.00  0.00     0.004 C 
ATOM     19  C   UNL d   1     -49.386  28.129  33.635  0.00  0.00     0.004 C 
ATOM     20  C   UNL d   1     -49.688  27.025  33.879  0.00  0.00     0.004 C 
ENDBRANCH   2  17
TORSDOF 2
ENDMDL
MODEL 2
REMARK VINA RESULT:      38.9      0.876      1.702
REMARK  2 active torsions:
REMARK  status: ('A' for Active; 'I' for Inactive)
REMARK       I    between atoms: C_2  and  N_1 
REMARK    1  A    between atoms: C_4  and  C_2 
REMARK    2  A    between atoms: C_6  and  C_7 
ROOT
ATOM      1  C   UNL d   1     -50.878  24.985  33.614  0.00  0.00     0.057 A 
ATOM      2  C   UNL d   1     -50.140  26.464  33.780  0.00  0.00    -0.023 A 
ATOM      3  C   UNL d   1     -51.246  25.666  33.307  0.00  0.00     0.004 A 
ATOM      4  C   UNL d   1     -50.160  25.025  33.997  0.00  0.00     0.004 A 
ATOM      5  C   UNL d   1     -50.859  26.424  33.397  0.00  0.00    -0.004 A 
ATOM      6  C   UNL d   1     -49.772  25.783  34.086  0.00  0.00    -0.004 A 
ENDROOT
BRANCH   1   7
ATOM      7  C   UNL d   1     -51.242  24.254  33.533  0.00  0.00     0.267 C 
ATOM      8  N   UNL d   1     -52.077  24.217  33.472  0.00  0.00    -0.240 N 
ATOM      9  C   UNL d   1     -52.541  24.913  33.493  0.00  0.00     0.267 A 
ATOM     10  C   UNL d   1     -52.363  23.444  33.393  0.00  0.00     0.086 A 
ATOM     11  O   UNL d   1     -52.087  25.668  33.583  0.00  0.00    -0.267 OA
ATOM     12  C   UNL d   1     -53.355  25.021  33.445  0.00  0.00     0.061 A 
ATOM     13  C   UNL d   1     -53.942  24.403  33.357  0.00  0.00     0.005 A 
ATOM     14  C   UNL d   1     -53.837  23.644  33.306  0.00  0.00     0.002 A 
ATOM     15  C   UNL d   1     -53.144  23.189  33.319  0.00  0.00     0.019 A 
ATOM     16  O   UNL d   1     -50.807  23.573  33.511  0.00  0.00    -0.267 OA
ENDBRANCH   1   7
BRANCH   2  17
ATOM     17  C   UNL d   1     -49.776  27.199  33.860  0.00  0.00     0.019 C 
ATOM     18  C   UNL d   1     -50.452  27.506  34.210  0.00  0.00     0.004 C 
ATOM     19  C   UNL d   1     -49.408  27.931  33.938  0.00  0.00     0.004 C 
ATOM     20  C   UNL d   1     -49.095  26.889  33.508  0.00  0.00     0.004 C 
ENDBRANCH   2  17
TORSDOF 2
ENDMDL
MODEL 3
REMARK VINA RESULT:      39.4      1.147      3.754
REMARK  2 active torsions:
REMARK  status: ('A' for Active; 'I' for Inactive)
REMARK       I    between atoms: C_2  and  N_1 
REMARK    1  A    between atoms: C_4  and  C_2 
REMARK    2  A    between atoms: C_6  and  C_7 
ROOT
ATOM      1  C   UNL d   1     -52.208  25.544  33.606  0.00  0.00     0.057 A 
ATOM      2  C   UNL d   1     -53.364  24.362  33.769  0.00  0.00    -0.023 A 
ATOM      3  C   UNL d   1     -51.993  24.797  33.904  0.00  0.00     0.004 A 
ATOM      4  C   UNL d   1     -52.975  25.713  33.390  0.00  0.00     0.004 A 
ATOM      5  C   UNL d   1     -52.596  24.194  33.985  0.00  0.00    -0.004 A 
ATOM      6  C   UNL d   1     -53.577  25.110  33.470  0.00  0.00    -0.004 A 
ENDROOT
BRANCH   1   7
ATOM      7  C   UNL d   1     -51.637  26.128  33.525  0.00  0.00     0.267 C 
ATOM      8  N   UNL d   1     -50.831  25.908  33.468  0.00  0.00    -0.240 N 
ATOM      9  C   UNL d   1     -50.602  25.104  33.493  0.00  0.00     0.267 A 
ATOM     10  C   UNL d   1     -50.321  26.557  33.389  0.00  0.00     0.086 A 
ATOM     11  O   UNL d   1     -51.266  24.524  33.582  0.00  0.00    -0.267 OA
ATOM     12  C   UNL d   1     -49.860  24.752  33.450  0.00  0.00     0.061 A 
ATOM     13  C   UNL d   1     -49.111  25.160  33.363  0.00  0.00     0.005 A 
ATOM     14  C   UNL d   1     -48.978  25.915  33.311  0.00  0.00     0.002 A 
ATOM     15  C   UNL d   1     -49.499  26.560  33.319  0.00  0.00     0.019 A 
ATOM     16  O   UNL d   1     -51.842  26.909  33.499  0.00  0.00    -0.267 OA
ENDBRANCH   1   7
BRANCH   2  17
ATOM     17  C   UNL d   1     -53.935  23.774  33.851  0.00  0.00     0.019 C 
ATOM     18  C   UNL d   1     -53.423  23.329  34.313  0.00  0.00     0.004 C 
ATOM     19  C   UNL d   1     -54.509  23.189  33.930  0.00  0.00     0.004 C 
ATOM     20  C   UNL d   1     -54.450  24.223  33.385  0.00  0.00     0.004 C 
ENDBRANCH   2  17
TORSDOF 2
ENDMDL
