MODEL 1
REMARK VINA RESULT:      11.9      0.000      0.000
REMARK  4 active torsions:
REMARK  status: ('A' for Active; 'I' for Inactive)
REMARK    1  A    between atoms: C_9  and  N_2 
REMARK    2  A    between atoms: C_7  and  O_10 
REMARK    3  A    between atoms: C_11  and  C_9 
REMARK    4  A    between atoms: O_10  and  C_11 
ROOT
ATOM      1  C   UNL d   1      44.844 -15.630  44.880  0.00  0.00     0.296 A 
ATOM      2  N   UNL d   1      45.651 -15.569  44.733  0.00  0.00    -0.266 N 
ATOM      3  S   UNL d   1      44.538 -14.853  44.944  0.00  0.00    -0.025 SA
ATOM      4  C   UNL d   1      45.848 -14.764  44.705  0.00  0.00     0.074 A 
ATOM      5  C   UNL d   1      45.167 -14.325  44.834  0.00  0.00     0.050 A 
ATOM      6  O   UNL d   1      44.411 -16.324  44.952  0.00  0.00    -0.259 OA
ATOM      7  C   UNL d   1      46.572 -14.385  44.576  0.00  0.00     0.018 A 
ATOM      8  C   UNL d   1      45.193 -13.496  44.838  0.00  0.00     0.008 A 
ATOM      9  C   UNL d   1      46.602 -13.558  44.579  0.00  0.00     0.002 A 
ATOM     10  C   UNL d   1      45.920 -13.119  44.708  0.00  0.00     0.001 A 
ENDROOT
BRANCH   2  11
ATOM     11  C   UNL d   1      46.174 -16.199  44.631  0.00  0.00     0.110 C 
BRANCH  11  12
ATOM     12  C   UNL d   1      45.911 -16.909  44.308  0.00  0.00     0.142 C 
BRANCH  12  13
ATOM     13  O   UNL d   1      46.404 -17.364  43.823  0.00  0.00    -0.304 OA
BRANCH  13  14
ATOM     14  C   UNL d   1      46.422 -18.185  43.901  0.00  0.00     0.100 A 
ATOM     15  C   UNL d   1      46.456 -18.663  43.229  0.00  0.00     0.023 A 
ATOM     16  C   UNL d   1      46.470 -18.318  42.477  0.00  0.00     0.002 C 
ATOM     17  C   UNL d   1      46.474 -19.478  43.308  0.00  0.00     0.002 A 
ATOM     18  C   UNL d   1      46.460 -19.818  44.060  0.00  0.00     0.000 A 
ATOM     19  C   UNL d   1      46.426 -19.336  44.732  0.00  0.00     0.002 A 
ATOM     20  C   UNL d   1      46.408 -18.519  44.644  0.00  0.00     0.025 A 
ENDBRANCH  13  14
ENDBRANCH  12  13
ENDBRANCH  11  12
ENDBRANCH   2  11
TORSDOF 4
ENDMDL
