MODEL 1
REMARK VINA RESULT:     -10.0      0.000      0.000
REMARK  2 active torsions:
REMARK  status: ('A' for Active; 'I' for Inactive)
REMARK    1  A    between atoms: C_10  and  C_4 
REMARK       I    between atoms: N_12  and  C_10 
REMARK       I    between atoms: C_11  and  N_13 
REMARK    2  A    between atoms: C_14  and  C_11 
ROOT
ATOM      1  C   UNL d   1      52.291  33.478  53.490  0.00  0.00     0.154 A 
ATOM      2  C   UNL d   1      52.420  34.289  53.545  0.00  0.00     0.093 A 
ATOM      3  N   UNL d   1      52.782  32.951  53.908  0.00  0.00    -0.211 NA
ATOM      4  C   UNL d   1      51.377  34.090  52.734  0.00  0.00     0.122 A 
ATOM      5  N   UNL d   1      51.649  33.355  52.991  0.00  0.00    -0.285 N 
ATOM      6  C   UNL d   1      53.036  34.583  54.013  0.00  0.00     0.269 A 
ATOM      7  N   UNL d   1      53.523  34.067  54.427  0.00  0.00    -0.259 N 
ATOM      8  C   UNL d   1      53.398  33.242  54.376  0.00  0.00     0.140 A 
ATOM      9  C   UNL d   1      51.858  34.665  53.080  0.00  0.00     0.030 A 
ATOM     10  C   UNL d   1      54.138  34.356  54.895  0.00  0.00     0.084 A 
ATOM     11  O   UNL d   1      53.163  35.400  54.066  0.00  0.00    -0.266 OA
ATOM     12  C   UNL d   1      53.878  32.725  54.785  0.00  0.00     0.064 A 
ATOM     13  C   UNL d   1      54.620  33.832  55.306  0.00  0.00     0.018 A 
ATOM     14  C   UNL d   1      54.489  33.009  55.250  0.00  0.00    -0.008 A 
ATOM     15  C   UNL d   1      51.332  32.618  52.784  0.00  0.00     0.101 C 
ENDROOT
BRANCH   4  16
ATOM     16  C   UNL d   1      50.740  34.226  52.224  0.00  0.00     0.281 C 
ATOM     17  N   UNL d   1      50.072  34.622  52.500  0.00  0.00    -0.268 N 
ATOM     18  C   UNL d   1      49.435  34.758  51.989  0.00  0.00     0.102 A 
ATOM     19  C   UNL d   1      50.034  34.884  53.280  0.00  0.00     0.102 A 
ATOM     20  C   UNL d   1      48.760  35.156  52.259  0.00  0.00     0.102 A 
ATOM     21  N   UNL d   1      48.729  35.414  53.039  0.00  0.00    -0.267 N 
ATOM     22  C   UNL d   1      48.057  35.811  53.312  0.00  0.00     0.288 C 
ATOM     23  C   UNL d   1      49.372  35.272  53.541  0.00  0.00     0.102 A 
ATOM     24  O   UNL d   1      48.026  36.069  54.092  0.00  0.00    -0.264 OA
ATOM     25  O   UNL d   1      50.777  33.966  51.444  0.00  0.00    -0.265 OA
BRANCH  22  26
ATOM     26  C   UNL d   1      47.427  35.941  52.792  0.00  0.00     0.156 A 
ATOM     27  O   UNL d   1      46.817  35.407  52.637  0.00  0.00    -0.300 OA
ATOM     28  C   UNL d   1      46.309  35.746  52.095  0.00  0.00     0.123 A 
ATOM     29  C   UNL d   1      46.594  36.498  51.903  0.00  0.00     0.029 A 
ATOM     30  C   UNL d   1      47.286  36.614  52.337  0.00  0.00     0.032 A 
ENDBRANCH  22  26
ENDBRANCH   4  16
TORSDOF 2
ENDMDL
