MODEL 1
REMARK VINA RESULT:      12.7      0.000      0.000
REMARK  6 active torsions:
REMARK  status: ('A' for Active; 'I' for Inactive)
REMARK    1  A    between atoms: N_15  and  C_1 
REMARK    2  A    between atoms: C_21  and  N_6 
REMARK    3  A    between atoms: C_16  and  C_8 
REMARK    4  A    between atoms: C_9  and  S_17 
REMARK       I    between atoms: C_20  and  N_15 
REMARK    5  A    between atoms: S_17  and  C_23 
REMARK    6  A    between atoms: C_23  and  C_20 
ROOT
ATOM      1  C   UNL d   1     -42.267-121.116 -51.148  0.00  0.00     0.099 C 
ENDROOT
BRANCH   1   2
ATOM      2  S   UNL d   1     -42.300-121.615 -50.416  0.00  0.00    -0.064 SA
BRANCH   2   3
ATOM      3  C   UNL d   1     -42.863-122.180 -50.097  0.00  0.00     0.096 A 
ATOM      4  N   UNL d   1     -42.726-122.515 -49.358  0.00  0.00    -0.285 N 
ATOM      5  C   UNL d   1     -43.277-123.070 -49.045  0.00  0.00     0.150 A 
ATOM      6  C   UNL d   1     -41.920-122.657 -48.165  0.00  0.00     0.084 A 
ATOM      7  N   UNL d   1     -43.145-123.413 -48.296  0.00  0.00    -0.227 NA
ATOM      8  C   UNL d   1     -43.946-123.272 -49.482  0.00  0.00     0.056 A 
ATOM      9  C   UNL d   1     -42.471-123.211 -47.853  0.00  0.00     0.099 A 
ATOM     10  C   UNL d   1     -42.334-123.546 -47.113  0.00  0.00     0.021 A 
ATOM     11  C   UNL d   1     -41.664-123.343 -46.676  0.00  0.00     0.002 A 
ATOM     12  C   UNL d   1     -41.123-122.798 -46.984  0.00  0.00     0.002 A 
ATOM     13  C   UNL d   1     -41.250-122.454 -47.728  0.00  0.00     0.019 A 
ATOM     14  C   UNL d   1     -44.079-122.928 -50.234  0.00  0.00     0.006 A 
ATOM     15  C   UNL d   1     -43.533-122.383 -50.535  0.00  0.00     0.025 A 
ATOM     16  C   UNL d   1     -44.744-123.131 -50.664  0.00  0.00     0.000 C 
BRANCH   8  17
ATOM     17  C   UNL d   1     -44.492-123.816 -49.182  0.00  0.00     0.125 C 
ATOM     18  N   UNL d   1     -45.289-123.697 -49.375  0.00  0.00    -0.146 N 
ENDBRANCH   8  17
ENDBRANCH   2   3
ENDBRANCH   1   2
BRANCH   1  19
ATOM     19  C   UNL d   1     -41.974-121.468 -51.898  0.00  0.00     0.286 C 
ATOM     20  N   UNL d   1     -42.537-121.609 -52.564  0.00  0.00    -0.201 NA
ATOM     21  O   UNL d   1     -41.123-121.682 -51.992  0.00  0.00    -0.265 OA
BRANCH  20  22
ATOM     22  C   UNL d   1     -42.247-121.964 -53.323  0.00  0.00     0.160 A 
ATOM     23  C   UNL d   1     -42.289-121.754 -54.102  0.00  0.00     0.298 A 
ATOM     24  N   UNL d   1     -41.949-122.229 -54.663  0.00  0.00    -0.209 N 
ATOM     25  O   UNL d   1     -42.665-121.081 -54.316  0.00  0.00    -0.263 OA
ATOM     26  N   UNL d   1     -41.572-122.903 -54.453  0.00  0.00    -0.238 N 
ATOM     27  C   UNL d   1     -41.531-123.112 -53.670  0.00  0.00     0.104 A 
ATOM     28  C   UNL d   1     -41.235-123.374 -55.008  0.00  0.00     0.120 C 
ATOM     29  C   UNL d   1     -41.178-123.785 -53.227  0.00  0.00     0.022 C 
BRANCH  24  30
ATOM     30  C   UNL d   1     -41.992-122.018 -55.443  0.00  0.00     0.085 A 
ATOM     31  C   UNL d   1     -41.329-121.765 -55.822  0.00  0.00     0.019 A 
ATOM     32  C   UNL d   1     -41.372-121.555 -56.602  0.00  0.00     0.002 A 
ATOM     33  C   UNL d   1     -42.082-121.602 -56.989  0.00  0.00     0.000 A 
ATOM     34  C   UNL d   1     -42.732-121.856 -56.594  0.00  0.00     0.002 A 
ATOM     35  C   UNL d   1     -42.686-122.064 -55.822  0.00  0.00     0.019 A 
ENDBRANCH  24  30
ENDBRANCH  20  22
ENDBRANCH   1  19
TORSDOF 6
ENDMDL
