MODEL 1
REMARK VINA RESULT:      -5.4      0.000      0.000
REMARK  4 active torsions:
REMARK  status: ('A' for Active; 'I' for Inactive)
REMARK    1  A    between atoms: S_3  and  C_1 
REMARK    2  A    between atoms: C_7  and  S_3 
REMARK    3  A    between atoms: S_11  and  C_4 
REMARK    4  A    between atoms: C_10  and  C_5 
ROOT
ATOM      1  C   UNL d   1     -41.761-122.378 -51.483  0.00  0.00     0.199 A 
ATOM      2  N   UNL d   1     -41.905-122.776 -52.190  0.00  0.00    -0.208 NA
ATOM      3  C   UNL d   1     -41.428-121.646 -51.669  0.00  0.00     0.156 A 
ATOM      4  C   UNL d   1     -41.662-122.291 -52.814  0.00  0.00     0.184 A 
ATOM      5  O   UNL d   1     -41.368-121.595 -52.485  0.00  0.00    -0.281 OA
ENDROOT
BRANCH   1   6
ATOM      6  S   UNL d   1     -41.923-122.667 -50.730  0.00  0.00     0.229 S 
ATOM      7  O   UNL d   1     -41.160-122.965 -50.726  0.00  0.00    -0.215 OA
ATOM      8  O   UNL d   1     -42.689-122.370 -50.729  0.00  0.00    -0.215 OA
BRANCH   6   9
ATOM      9  C   UNL d   1     -42.096-122.952 -49.976  0.00  0.00     0.089 A 
ATOM     10  C   UNL d   1     -42.882-123.019 -49.734  0.00  0.00     0.011 A 
ATOM     11  C   UNL d   1     -43.052-123.303 -48.982  0.00  0.00     0.001 A 
ATOM     12  C   UNL d   1     -42.448-123.523 -48.468  0.00  0.00     0.000 A 
ATOM     13  C   UNL d   1     -41.659-123.456 -48.713  0.00  0.00     0.001 A 
ATOM     14  C   UNL d   1     -42.621-123.809 -47.714  0.00  0.00     0.000 C 
ATOM     15  C   UNL d   1     -41.489-123.173 -49.459  0.00  0.00     0.011 A 
ENDBRANCH   6   9
ENDBRANCH   1   6
BRANCH   3  16
ATOM     16  S   UNL d   1     -41.197-121.070 -51.129  0.00  0.00    -0.086 SA
ATOM     17  C   UNL d   1     -41.123-120.287 -51.373  0.00  0.00     0.076 C 
ENDBRANCH   3  16
BRANCH   4  18
ATOM     18  C   UNL d   1     -41.706-122.474 -53.619  0.00  0.00     0.041 A 
ATOM     19  C   UNL d   1     -41.285-123.123 -53.921  0.00  0.00     0.004 A 
ATOM     20  C   UNL d   1     -41.332-123.302 -54.725  0.00  0.00     0.000 A 
ATOM     21  C   UNL d   1     -41.791-122.844 -55.221  0.00  0.00     0.000 A 
ATOM     22  C   UNL d   1     -42.213-122.195 -54.926  0.00  0.00     0.000 A 
ATOM     23  C   UNL d   1     -42.171-122.012 -54.133  0.00  0.00     0.004 A 
ENDBRANCH   4  18
TORSDOF 4
ENDMDL
