MODEL 1
REMARK VINA RESULT:      13.2      0.000      0.000
REMARK  3 active torsions:
REMARK  status: ('A' for Active; 'I' for Inactive)
REMARK       I    between atoms: N_3  and  C_1 
REMARK    1  A    between atoms: C_6  and  C_1 
REMARK    2  A    between atoms: N_2  and  C_4 
REMARK    3  A    between atoms: C_9  and  N_3 
ROOT
ATOM      1  C   UNL d   1      45.641 -14.615  44.488  0.00  0.00     0.064 A 
ATOM      2  C   UNL d   1      46.390 -14.928  44.313  0.00  0.00     0.019 A 
ATOM      3  C   UNL d   1      45.024 -15.111  44.745  0.00  0.00     0.019 A 
ATOM      4  C   UNL d   1      45.890 -16.235  44.655  0.00  0.00     0.085 A 
ATOM      5  C   UNL d   1      46.507 -15.739  44.399  0.00  0.00     0.021 A 
ATOM      6  C   UNL d   1      45.153 -15.923  44.827  0.00  0.00     0.021 A 
ENDROOT
BRANCH   4   7
ATOM      7  N   UNL d   1      46.024 -17.054  44.738  0.00  0.00    -0.208 NA
ATOM      8  C   UNL d   1      46.106 -17.531  44.068  0.00  0.00     0.279 C 
ATOM      9  O   UNL d   1      46.055 -17.195  43.308  0.00  0.00    -0.265 OA
BRANCH   8  10
ATOM     10  C   UNL d   1      46.240 -18.345  44.152  0.00  0.00     0.058 A 
ATOM     11  C   UNL d   1      46.513 -18.782  43.498  0.00  0.00     0.005 A 
ATOM     12  C   UNL d   1      46.644 -19.590  43.585  0.00  0.00     0.000 A 
ATOM     13  C   UNL d   1      46.504 -19.962  44.322  0.00  0.00     0.000 A 
ATOM     14  C   UNL d   1      46.235 -19.519  44.955  0.00  0.00     0.000 A 
ATOM     15  C   UNL d   1      46.102 -18.712  44.877  0.00  0.00     0.005 A 
ENDBRANCH   8  10
ENDBRANCH   4   7
BRANCH   1  16
ATOM     16  N   UNL d   1      45.514 -13.792  44.403  0.00  0.00    -0.304 N 
ATOM     17  C   UNL d   1      45.840 -13.272  44.946  0.00  0.00     0.080 A 
ATOM     18  C   UNL d   1      45.713 -12.448  44.861  0.00  0.00     0.019 A 
ATOM     19  C   UNL d   1      45.259 -12.180  44.227  0.00  0.00     0.003 A 
ATOM     20  C   UNL d   1      44.937 -12.706  43.689  0.00  0.00     0.019 A 
ATOM     21  C   UNL d   1      45.061 -13.512  43.771  0.00  0.00     0.080 A 
ENDBRANCH   1  16
TORSDOF 3
ENDMDL
MODEL 2
REMARK VINA RESULT:      16.0      0.962      5.037
REMARK  3 active torsions:
REMARK  status: ('A' for Active; 'I' for Inactive)
REMARK       I    between atoms: N_3  and  C_1 
REMARK    1  A    between atoms: C_6  and  C_1 
REMARK    2  A    between atoms: N_2  and  C_4 
REMARK    3  A    between atoms: C_9  and  N_3 
ROOT
ATOM      1  C   UNL d   1      46.168 -17.961  43.939  0.00  0.00     0.064 A 
ATOM      2  C   UNL d   1      46.363 -17.732  44.714  0.00  0.00     0.019 A 
ATOM      3  C   UNL d   1      45.817 -17.421  43.413  0.00  0.00     0.019 A 
ATOM      4  C   UNL d   1      45.849 -16.419  44.422  0.00  0.00     0.085 A 
ATOM      5  C   UNL d   1      46.201 -16.959  44.948  0.00  0.00     0.021 A 
ATOM      6  C   UNL d   1      45.659 -16.648  43.659  0.00  0.00     0.021 A 
ENDROOT
BRANCH   4   7
ATOM      7  N   UNL d   1      45.691 -15.639  44.673  0.00  0.00    -0.208 NA
ATOM      8  C   UNL d   1      45.905 -14.998  44.199  0.00  0.00     0.279 C 
ATOM      9  O   UNL d   1      46.280 -15.128  43.467  0.00  0.00    -0.265 OA
BRANCH   8  10
ATOM     10  C   UNL d   1      45.747 -14.224  44.451  0.00  0.00     0.058 A 
ATOM     11  C   UNL d   1      44.960 -13.952  44.458  0.00  0.00     0.005 A 
ATOM     12  C   UNL d   1      44.806 -13.183  44.709  0.00  0.00     0.000 A 
ATOM     13  C   UNL d   1      45.435 -12.687  44.953  0.00  0.00     0.000 A 
ATOM     14  C   UNL d   1      46.203 -12.969  44.940  0.00  0.00     0.000 A 
ATOM     15  C   UNL d   1      46.365 -13.735  44.691  0.00  0.00     0.005 A 
ENDBRANCH   8  10
ENDBRANCH   4   7
BRANCH   1  16
ATOM     16  N   UNL d   1      46.330 -18.746  43.694  0.00  0.00    -0.304 N 
ATOM     17  C   UNL d   1      46.479 -19.325  44.254  0.00  0.00     0.080 A 
ATOM     18  C   UNL d   1      46.641 -20.109  44.009  0.00  0.00     0.019 A 
ATOM     19  C   UNL d   1      46.647 -20.279  43.203  0.00  0.00     0.003 A 
ATOM     20  C   UNL d   1      46.498 -19.695  42.648  0.00  0.00     0.019 A 
ATOM     21  C   UNL d   1      46.339 -18.928  42.888  0.00  0.00     0.080 A 
ENDBRANCH   1  16
TORSDOF 3
ENDMDL
