MODEL 1
REMARK VINA RESULT:      40.8      0.000      0.000
REMARK  4 active torsions:
REMARK  status: ('A' for Active; 'I' for Inactive)
REMARK    1  A    between atoms: S_2  and  N_1 
REMARK    2  A    between atoms: N_6  and  S_2 
REMARK    3  A    between atoms: C_10  and  C_3 
REMARK    4  A    between atoms: C_11  and  C_10 
ROOT
ATOM      1  N   UNL d   1     -58.350 -98.778 -44.414  0.00  0.00    -0.201 N 
ATOM      2  C   UNL d   1     -57.546 -98.764 -44.179  0.00  0.00     0.158 A 
ATOM      3  N   UNL d   1     -57.527 -98.759 -43.350  0.00  0.00    -0.226 NA
ATOM      4  C   UNL d   1     -58.808 -98.782 -43.731  0.00  0.00     0.095 A 
ATOM      5  C   UNL d   1     -58.304 -98.770 -43.076  0.00  0.00     0.100 A 
ATOM      6  C   UNL d   1     -59.625 -98.795 -43.628  0.00  0.00     0.020 A 
ATOM      7  C   UNL d   1     -58.625 -98.772 -42.316  0.00  0.00     0.021 A 
ATOM      8  C   UNL d   1     -59.947 -98.797 -42.869  0.00  0.00     0.002 A 
ATOM      9  C   UNL d   1     -59.445 -98.785 -42.209  0.00  0.00     0.002 A 
ENDROOT
BRANCH   1  10
ATOM     10  S   UNL d   1     -58.625 -98.787 -45.182  0.00  0.00     0.338 S 
ATOM     11  O   UNL d   1     -59.402 -98.755 -44.913  0.00  0.00    -0.181 OA
ATOM     12  O   UNL d   1     -57.848 -98.819 -45.455  0.00  0.00    -0.181 OA
BRANCH  10  13
ATOM     13  N   UNL d   1     -58.890 -98.796 -45.961  0.00  0.00    -0.216 N 
ATOM     14  C   UNL d   1     -58.347 -98.773 -46.582  0.00  0.00     0.093 A 
ATOM     15  C   UNL d   1     -58.611 -98.782 -47.357  0.00  0.00     0.020 A 
ATOM     16  C   UNL d   1     -59.410 -98.814 -47.525  0.00  0.00     0.003 A 
ATOM     17  C   UNL d   1     -59.961 -98.838 -46.911  0.00  0.00     0.020 A 
ATOM     18  C   UNL d   1     -59.696 -98.829 -46.122  0.00  0.00     0.093 A 
ENDBRANCH  10  13
ENDBRANCH   1  10
BRANCH   2  19
ATOM     19  C   UNL d   1     -56.892 -98.755 -44.686  0.00  0.00     0.038 C 
BRANCH  19  20
ATOM     20  C   UNL d   1     -56.248 -99.240 -44.524  0.00  0.00     0.003 A 
ATOM     21  C   UNL d   1     -55.614 -98.940 -44.086  0.00  0.00     0.000 A 
ATOM     22  C   UNL d   1     -54.969 -99.423 -43.923  0.00  0.00     0.000 A 
ATOM     23  C   UNL d   1     -54.951-100.196 -44.190  0.00  0.00     0.000 A 
ATOM     24  C   UNL d   1     -55.589-100.497 -44.630  0.00  0.00     0.000 A 
ATOM     25  C   UNL d   1     -56.237-100.013 -44.794  0.00  0.00     0.000 A 
ENDBRANCH  19  20
ENDBRANCH   2  19
TORSDOF 4
ENDMDL
