MODEL 1
REMARK VINA RESULT:      -6.9      0.000      0.000
REMARK  4 active torsions:
REMARK  status: ('A' for Active; 'I' for Inactive)
REMARK    1  A    between atoms: N_4  and  C_1 
REMARK    2  A    between atoms: N_2  and  N_4 
REMARK    3  A    between atoms: C_6  and  N_2 
REMARK    4  A    between atoms: C_8  and  C_6 
ROOT
ATOM      1  C   UNL d   1      53.462  33.440  53.795  0.00  0.00     0.008 A 
ATOM      2  C   UNL d   1      53.970  32.848  54.058  0.00  0.00     0.021 A 
ATOM      3  C   UNL d   1      53.382  34.151  54.237  0.00  0.00     0.035 A 
ATOM      4 BR   UNL d   1      52.864  34.754  53.968  0.00  0.00    -0.049 Br
ATOM      5  C   UNL d   1      54.323  33.658  55.195  0.00  0.00     0.001 A 
ATOM      6  C   UNL d   1      53.815  34.250  54.932  0.00  0.00     0.007 A 
ATOM      7  C   UNL d   1      54.396  32.955  54.749  0.00  0.00     0.002 A 
ENDROOT
BRANCH   2   8
ATOM      8  C   UNL d   1      54.058  32.130  53.623  0.00  0.00     0.122 C 
BRANCH   8   9
ATOM      9  N   UNL d   1      53.577  31.460  53.797  0.00  0.00    -0.144 NA
BRANCH   9  10
ATOM     10  N   UNL d   1      53.694  30.744  53.390  0.00  0.00    -0.115 NA
BRANCH  10  11
ATOM     11  C   UNL d   1      53.167  30.134  53.478  0.00  0.00     0.260 C 
ATOM     12  S   UNL d   1      53.307  29.521  54.042  0.00  0.00    -0.034 SA
ATOM     13  N   UNL d   1      52.495  30.101  53.025  0.00  0.00    -0.113 N 
ENDBRANCH  10  11
ENDBRANCH   9  10
ENDBRANCH   8   9
ENDBRANCH   2   8
TORSDOF 4
ENDMDL
MODEL 2
REMARK VINA RESULT:      -6.3      2.595      3.038
REMARK  4 active torsions:
REMARK  status: ('A' for Active; 'I' for Inactive)
REMARK    1  A    between atoms: N_4  and  C_1 
REMARK    2  A    between atoms: N_2  and  N_4 
REMARK    3  A    between atoms: C_6  and  N_2 
REMARK    4  A    between atoms: C_8  and  C_6 
ROOT
ATOM      1  C   UNL d   1      53.599  33.317  54.556  0.00  0.00     0.008 A 
ATOM      2  C   UNL d   1      53.286  32.965  53.882  0.00  0.00     0.021 A 
ATOM      3  C   UNL d   1      54.432  33.320  54.680  0.00  0.00     0.035 A 
ATOM      4 BR   UNL d   1      54.751  33.679  55.367  0.00  0.00    -0.049 Br
ATOM      5  C   UNL d   1      54.614  32.617  53.447  0.00  0.00     0.001 A 
ATOM      6  C   UNL d   1      54.927  32.969  54.122  0.00  0.00     0.007 A 
ATOM      7  C   UNL d   1      53.786  32.619  53.333  0.00  0.00     0.002 A 
ENDROOT
BRANCH   2   8
ATOM      8  C   UNL d   1      52.452  32.955  53.747  0.00  0.00     0.122 C 
BRANCH   8   9
ATOM      9  N   UNL d   1      52.094  33.512  53.226  0.00  0.00    -0.144 NA
BRANCH   9  10
ATOM     10  N   UNL d   1      51.275  33.489  53.086  0.00  0.00    -0.115 NA
BRANCH  10  11
ATOM     11  C   UNL d   1      50.921  34.061  52.634  0.00  0.00     0.260 C 
ATOM     12  S   UNL d   1      50.227  34.458  52.905  0.00  0.00    -0.034 SA
ATOM     13  N   UNL d   1      51.228  34.264  51.911  0.00  0.00    -0.113 N 
ENDBRANCH  10  11
ENDBRANCH   9  10
ENDBRANCH   8   9
ENDBRANCH   2   8
TORSDOF 4
ENDMDL
MODEL 3
REMARK VINA RESULT:      -6.3      2.387      3.752
REMARK  4 active torsions:
REMARK  status: ('A' for Active; 'I' for Inactive)
REMARK    1  A    between atoms: N_4  and  C_1 
REMARK    2  A    between atoms: N_2  and  N_4 
REMARK    3  A    between atoms: C_6  and  N_2 
REMARK    4  A    between atoms: C_8  and  C_6 
ROOT
ATOM      1  C   UNL d   1      53.727  30.501  53.921  0.00  0.00     0.008 A 
ATOM      2  C   UNL d   1      53.577  31.172  53.467  0.00  0.00     0.021 A 
ATOM      3  C   UNL d   1      53.231  29.826  53.848  0.00  0.00     0.035 A 
ATOM      4 BR   UNL d   1      53.384  29.143  54.310  0.00  0.00    -0.049 Br
ATOM      5  C   UNL d   1      52.446  30.512  52.868  0.00  0.00     0.001 A 
ATOM      6  C   UNL d   1      52.597  29.842  53.321  0.00  0.00     0.007 A 
ATOM      7  C   UNL d   1      52.945  31.179  52.947  0.00  0.00     0.002 A 
ENDROOT
BRANCH   2   8
ATOM      8  C   UNL d   1      54.069  31.855  53.532  0.00  0.00     0.122 C 
BRANCH   8   9
ATOM      9  N   UNL d   1      53.932  32.428  54.135  0.00  0.00    -0.144 NA
BRANCH   9  10
ATOM     10  N   UNL d   1      54.364  33.138  54.145  0.00  0.00    -0.115 NA
BRANCH  10  11
ATOM     11  C   UNL d   1      54.340  33.622  54.795  0.00  0.00     0.260 C 
ATOM     12  S   UNL d   1      53.722  34.190  54.886  0.00  0.00    -0.034 SA
ATOM     13  N   UNL d   1      54.909  33.570  55.369  0.00  0.00    -0.113 N 
ENDBRANCH  10  11
ENDBRANCH   9  10
ENDBRANCH   8   9
ENDBRANCH   2   8
TORSDOF 4
ENDMDL
MODEL 4
REMARK VINA RESULT:      -6.0      2.831      3.597
REMARK  4 active torsions:
REMARK  status: ('A' for Active; 'I' for Inactive)
REMARK    1  A    between atoms: N_4  and  C_1 
REMARK    2  A    between atoms: N_2  and  N_4 
REMARK    3  A    between atoms: C_6  and  N_2 
REMARK    4  A    between atoms: C_8  and  C_6 
ROOT
ATOM      1  C   UNL d   1      52.771  31.288  52.932  0.00  0.00     0.008 A 
ATOM      2  C   UNL d   1      53.013  32.066  53.049  0.00  0.00     0.021 A 
ATOM      3  C   UNL d   1      53.136  30.666  53.365  0.00  0.00     0.035 A 
ATOM      4 BR   UNL d   1      52.890  29.873  53.245  0.00  0.00    -0.049 Br
ATOM      5  C   UNL d   1      53.977  31.619  54.022  0.00  0.00     0.001 A 
ATOM      6  C   UNL d   1      53.735  30.841  53.904  0.00  0.00     0.007 A 
ATOM      7  C   UNL d   1      53.608  32.231  53.587  0.00  0.00     0.002 A 
ENDROOT
BRANCH   2   8
ATOM      8  C   UNL d   1      52.654  32.698  52.620  0.00  0.00     0.122 C 
BRANCH   8   9
ATOM      9  N   UNL d   1      52.097  33.209  52.993  0.00  0.00    -0.144 NA
BRANCH   9  10
ATOM     10  N   UNL d   1      51.689  33.781  52.548  0.00  0.00    -0.115 NA
BRANCH  10  11
ATOM     11  C   UNL d   1      51.190  34.305  52.914  0.00  0.00     0.260 C 
ATOM     12  S   UNL d   1      50.360  34.289  52.760  0.00  0.00    -0.034 SA
ATOM     13  N   UNL d   1      51.480  34.854  53.435  0.00  0.00    -0.113 N 
ENDBRANCH  10  11
ENDBRANCH   9  10
ENDBRANCH   8   9
ENDBRANCH   2   8
TORSDOF 4
ENDMDL
MODEL 5
REMARK VINA RESULT:      -5.8      2.541      3.386
REMARK  4 active torsions:
REMARK  status: ('A' for Active; 'I' for Inactive)
REMARK    1  A    between atoms: N_4  and  C_1 
REMARK    2  A    between atoms: N_2  and  N_4 
REMARK    3  A    between atoms: C_6  and  N_2 
REMARK    4  A    between atoms: C_8  and  C_6 
ROOT
ATOM      1  C   UNL d   1      51.362  34.433  53.412  0.00  0.00     0.008 A 
ATOM      2  C   UNL d   1      52.175  34.446  53.290  0.00  0.00     0.021 A 
ATOM      3  C   UNL d   1      50.842  34.334  52.757  0.00  0.00     0.035 A 
ATOM      4 BR   UNL d   1      50.012  34.321  52.881  0.00  0.00    -0.049 Br
ATOM      5  C   UNL d   1      51.967  34.263  51.877  0.00  0.00     0.001 A 
ATOM      6  C   UNL d   1      51.153  34.251  51.999  0.00  0.00     0.007 A 
ATOM      7  C   UNL d   1      52.476  34.362  52.533  0.00  0.00     0.002 A 
ENDROOT
BRANCH   2   8
ATOM      8  C   UNL d   1      52.707  34.544  53.939  0.00  0.00     0.122 C 
BRANCH   8   9
ATOM      9  N   UNL d   1      53.221  33.918  54.173  0.00  0.00    -0.144 NA
BRANCH   9  10
ATOM     10  N   UNL d   1      53.636  33.964  54.891  0.00  0.00    -0.115 NA
BRANCH  10  11
ATOM     11  C   UNL d   1      54.210  33.418  55.067  0.00  0.00     0.260 C 
ATOM     12  S   UNL d   1      55.024  33.643  55.094  0.00  0.00    -0.034 SA
ATOM     13  N   UNL d   1      54.013  32.647  55.220  0.00  0.00    -0.113 N 
ENDBRANCH  10  11
ENDBRANCH   9  10
ENDBRANCH   8   9
ENDBRANCH   2   8
TORSDOF 4
ENDMDL
MODEL 6
REMARK VINA RESULT:      -4.6      3.777      4.211
REMARK  4 active torsions:
REMARK  status: ('A' for Active; 'I' for Inactive)
REMARK    1  A    between atoms: N_4  and  C_1 
REMARK    2  A    between atoms: N_2  and  N_4 
REMARK    3  A    between atoms: C_6  and  N_2 
REMARK    4  A    between atoms: C_8  and  C_6 
ROOT
ATOM      1  C   UNL d   1      52.130  34.708  53.224  0.00  0.00     0.008 A 
ATOM      2  C   UNL d   1      51.770  34.076  52.838  0.00  0.00     0.021 A 
ATOM      3  C   UNL d   1      52.712  34.562  53.814  0.00  0.00     0.035 A 
ATOM      4 BR   UNL d   1      53.079  35.205  54.208  0.00  0.00    -0.049 Br
ATOM      5  C   UNL d   1      52.555  33.154  53.616  0.00  0.00     0.001 A 
ATOM      6  C   UNL d   1      52.916  33.785  54.002  0.00  0.00     0.007 A 
ATOM      7  C   UNL d   1      51.979  33.308  53.031  0.00  0.00     0.002 A 
ENDROOT
BRANCH   2   8
ATOM      8  C   UNL d   1      51.186  34.211  52.244  0.00  0.00     0.122 C 
BRANCH   8   9
ATOM      9  N   UNL d   1      50.397  34.419  52.456  0.00  0.00    -0.144 NA
BRANCH   9  10
ATOM     10  N   UNL d   1      49.771  34.287  51.924  0.00  0.00    -0.115 NA
BRANCH  10  11
ATOM     11  C   UNL d   1      49.095  34.733  51.969  0.00  0.00     0.260 C 
ATOM     12  S   UNL d   1      48.606  34.844  51.290  0.00  0.00    -0.034 SA
ATOM     13  N   UNL d   1      48.876  35.080  52.668  0.00  0.00    -0.113 N 
ENDBRANCH  10  11
ENDBRANCH   9  10
ENDBRANCH   8   9
ENDBRANCH   2   8
TORSDOF 4
ENDMDL
