MODEL 1
REMARK VINA RESULT:      61.5      0.000      0.000
REMARK  4 active torsions:
REMARK  status: ('A' for Active; 'I' for Inactive)
REMARK    1  A    between atoms: S_2  and  C_1 
REMARK    2  A    between atoms: C_10  and  S_2 
REMARK    3  A    between atoms: N_7  and  C_4 
REMARK    4  A    between atoms: C_8  and  N_7 
ROOT
ATOM      1  C   UNL d   1     -49.547  27.399  34.128  0.00  0.00     0.187 A 
ATOM      2  N   UNL d   1     -48.858  27.446  34.581  0.00  0.00    -0.208 NA
ATOM      3  C   UNL d   1     -48.581  28.214  34.541  0.00  0.00     0.198 A 
ATOM      4  C   UNL d   1     -49.691  28.144  33.809  0.00  0.00     0.118 A 
ATOM      5  S   UNL d   1     -49.092  28.647  34.066  0.00  0.00    -0.035 SA
ATOM      6 CL   UNL d   1     -50.334  28.358  33.310  0.00  0.00    -0.073 Cl
ENDROOT
BRANCH   1   7
ATOM      7  S   UNL d   1     -50.061  26.775  33.965  0.00  0.00     0.228 S 
ATOM      8  O   UNL d   1     -49.421  26.254  33.945  0.00  0.00    -0.216 OA
ATOM      9  O   UNL d   1     -50.701  27.295  33.985  0.00  0.00    -0.216 OA
BRANCH   7  10
ATOM     10  C   UNL d   1     -50.574  26.150  33.802  0.00  0.00     0.089 A 
ATOM     11  C   UNL d   1     -51.383  26.225  33.971  0.00  0.00     0.011 A 
ATOM     12  C   UNL d   1     -51.902  25.594  33.807  0.00  0.00     0.001 A 
ATOM     13  C   UNL d   1     -51.607  24.893  33.475  0.00  0.00     0.000 A 
ATOM     14  C   UNL d   1     -50.803  24.821  33.308  0.00  0.00     0.001 A 
ATOM     15  C   UNL d   1     -52.120  24.269  33.312  0.00  0.00     0.000 C 
ATOM     16  C   UNL d   1     -50.285  25.452  33.472  0.00  0.00     0.011 A 
ENDBRANCH   7  10
ENDBRANCH   1   7
BRANCH   3  17
ATOM     17  N   UNL d   1     -47.899  28.495  34.920  0.00  0.00    -0.196 NA
BRANCH  17  18
ATOM     18  C   UNL d   1     -47.825  29.298  35.085  0.00  0.00     0.196 A 
ATOM     19  N   UNL d   1     -48.013  29.973  34.647  0.00  0.00    -0.219 NA
ATOM     20  C   UNL d   1     -47.815  30.630  35.101  0.00  0.00     0.108 A 
ATOM     21  C   UNL d   1     -47.505  30.368  35.815  0.00  0.00     0.059 A 
ATOM     22  S   UNL d   1     -47.511  29.547  35.806  0.00  0.00    -0.046 SA
ENDBRANCH  17  18
ENDBRANCH   3  17
TORSDOF 4
ENDMDL
MODEL 2
REMARK VINA RESULT:      62.0      1.598      4.781
REMARK  4 active torsions:
REMARK  status: ('A' for Active; 'I' for Inactive)
REMARK    1  A    between atoms: S_2  and  C_1 
REMARK    2  A    between atoms: C_10  and  S_2 
REMARK    3  A    between atoms: N_7  and  C_4 
REMARK    4  A    between atoms: C_8  and  N_7 
ROOT
ATOM      1  C   UNL d   1     -49.892  26.890  34.046  0.00  0.00     0.187 A 
ATOM      2  N   UNL d   1     -49.782  26.078  33.936  0.00  0.00    -0.208 NA
ATOM      3  C   UNL d   1     -50.429  25.789  33.529  0.00  0.00     0.198 A 
ATOM      4  C   UNL d   1     -50.611  27.096  33.704  0.00  0.00     0.118 A 
ATOM      5  S   UNL d   1     -50.941  26.413  33.384  0.00  0.00    -0.035 SA
ATOM      6 CL   UNL d   1     -50.951  27.865  33.682  0.00  0.00    -0.073 Cl
ENDROOT
BRANCH   1   7
ATOM      7  S   UNL d   1     -49.430  27.466  34.414  0.00  0.00     0.228 S 
ATOM      8  O   UNL d   1     -50.109  27.803  34.740  0.00  0.00    -0.216 OA
ATOM      9  O   UNL d   1     -48.751  27.129  34.089  0.00  0.00    -0.216 OA
BRANCH   7  10
ATOM     10  C   UNL d   1     -48.967  28.042  34.782  0.00  0.00     0.089 A 
ATOM     11  C   UNL d   1     -48.655  28.668  34.336  0.00  0.00     0.011 A 
ATOM     12  C   UNL d   1     -48.189  29.249  34.707  0.00  0.00     0.001 A 
ATOM     13  C   UNL d   1     -48.038  29.200  35.522  0.00  0.00     0.000 A 
ATOM     14  C   UNL d   1     -48.349  28.577  35.962  0.00  0.00     0.001 A 
ATOM     15  C   UNL d   1     -47.576  29.775  35.889  0.00  0.00     0.000 C 
ATOM     16  C   UNL d   1     -48.816  27.995  35.591  0.00  0.00     0.011 A 
ENDBRANCH   7  10
ENDBRANCH   1   7
BRANCH   3  17
ATOM     17  N   UNL d   1     -50.536  24.997  33.307  0.00  0.00    -0.196 NA
BRANCH  17  18
ATOM     18  C   UNL d   1     -51.233  24.607  33.507  0.00  0.00     0.196 A 
ATOM     19  N   UNL d   1     -51.374  23.896  33.903  0.00  0.00    -0.219 NA
ATOM     20  C   UNL d   1     -52.189  23.788  33.943  0.00  0.00     0.108 A 
ATOM     21  C   UNL d   1     -52.552  24.426  33.575  0.00  0.00     0.059 A 
ATOM     22  S   UNL d   1     -51.964  24.932  33.307  0.00  0.00    -0.046 SA
ENDBRANCH  17  18
ENDBRANCH   3  17
TORSDOF 4
ENDMDL
