MODEL 1
REMARK VINA RESULT:      -8.5      0.000      0.000
REMARK  7 active torsions:
REMARK  status: ('A' for Active; 'I' for Inactive)
REMARK    1  A    between atoms: N_2  and  S_1 
REMARK    2  A    between atoms: C_3  and  S_1 
REMARK    3  A    between atoms: C_9  and  N_2 
REMARK    4  A    between atoms: C_6  and  O_7 
REMARK    5  A    between atoms: O_7  and  C_14 
REMARK    6  A    between atoms: C_13  and  C_9 
REMARK    7  A    between atoms: O_17  and  C_10 
ROOT
ATOM      1  C   UNL d   1     -46.940  13.181  23.017  0.00  0.00     0.105 A 
ATOM      2  C   UNL d   1     -47.011  13.938  22.715  0.00  0.00     0.015 A 
ATOM      3  C   UNL d   1     -47.595  12.808  23.361  0.00  0.00     0.015 A 
ATOM      4  C   UNL d   1     -48.385  13.954  23.097  0.00  0.00     0.100 A 
ATOM      5  C   UNL d   1     -47.730  14.326  22.754  0.00  0.00     0.025 A 
ATOM      6  C   UNL d   1     -48.314  13.197  23.399  0.00  0.00     0.025 A 
ENDROOT
BRANCH   1   7
ATOM      7  S   UNL d   1     -46.210  12.794  22.974  0.00  0.00     0.285 S 
ATOM      8  O   UNL d   1     -45.704  12.937  22.337  0.00  0.00    -0.198 OA
ATOM      9  O   UNL d   1     -45.989  12.268  23.569  0.00  0.00    -0.198 OA
BRANCH   7  10
ATOM     10  N   UNL d   1     -45.543  12.322  23.112  0.00  0.00    -0.155 NA
BRANCH  10  11
ATOM     11  C   UNL d   1     -45.640  11.521  23.336  0.00  0.00     0.131 C 
BRANCH  11  12
ATOM     12  C   UNL d   1     -44.974  11.026  23.378  0.00  0.00     0.101 A 
ATOM     13  N   UNL d   1     -44.237  11.312  23.141  0.00  0.00    -0.242 NA
ATOM     14  C   UNL d   1     -43.571  10.828  23.179  0.00  0.00     0.099 A 
ATOM     15  C   UNL d   1     -43.642  10.045  23.459  0.00  0.00     0.021 A 
ATOM     16  C   UNL d   1     -44.393   9.763  23.697  0.00  0.00     0.003 A 
ATOM     17  C   UNL d   1     -45.053  10.253  23.656  0.00  0.00     0.021 A 
ENDBRANCH  11  12
ENDBRANCH  10  11
ENDBRANCH   7  10
ENDBRANCH   1   7
BRANCH   4  18
ATOM     18  O   UNL d   1     -49.114  14.350  23.135  0.00  0.00    -0.305 OA
BRANCH  18  19
ATOM     19  C   UNL d   1     -49.697  14.211  22.564  0.00  0.00     0.122 A 
ATOM     20  C   UNL d   1     -50.320  14.741  22.479  0.00  0.00     0.117 A 
ATOM     21  C   UNL d   1     -50.900  14.601  21.909  0.00  0.00     0.026 A 
ATOM     22  C   UNL d   1     -50.855  13.937  21.431  0.00  0.00     0.002 A 
ATOM     23  C   UNL d   1     -50.229  13.406  21.518  0.00  0.00     0.002 A 
ATOM     24  C   UNL d   1     -49.648  13.546  22.087  0.00  0.00     0.027 A 
BRANCH  20  25
ATOM     25  O   UNL d   1     -50.358  15.403  22.961  0.00  0.00    -0.326 OA
ATOM     26  C   UNL d   1     -51.037  15.575  23.373  0.00  0.00     0.181 C 
ENDBRANCH  20  25
ENDBRANCH  18  19
ENDBRANCH   4  18
TORSDOF 7
ENDMDL
MODEL 2
REMARK VINA RESULT:      -8.0      1.308      1.634
REMARK  7 active torsions:
REMARK  status: ('A' for Active; 'I' for Inactive)
REMARK    1  A    between atoms: N_2  and  S_1 
REMARK    2  A    between atoms: C_3  and  S_1 
REMARK    3  A    between atoms: C_9  and  N_2 
REMARK    4  A    between atoms: C_6  and  O_7 
REMARK    5  A    between atoms: O_7  and  C_14 
REMARK    6  A    between atoms: C_13  and  C_9 
REMARK    7  A    between atoms: O_17  and  C_10 
ROOT
ATOM      1  C   UNL d   1     -46.978  13.114  23.088  0.00  0.00     0.105 A 
ATOM      2  C   UNL d   1     -47.258  13.873  22.965  0.00  0.00     0.015 A 
ATOM      3  C   UNL d   1     -47.502  12.505  23.287  0.00  0.00     0.015 A 
ATOM      4  C   UNL d   1     -48.582  13.420  23.238  0.00  0.00     0.100 A 
ATOM      5  C   UNL d   1     -48.057  14.028  23.039  0.00  0.00     0.025 A 
ATOM      6  C   UNL d   1     -48.301  12.661  23.360  0.00  0.00     0.025 A 
ENDROOT
BRANCH   1   7
ATOM      7  S   UNL d   1     -46.167  12.964  23.011  0.00  0.00     0.285 S 
ATOM      8  O   UNL d   1     -45.816  12.359  23.450  0.00  0.00    -0.198 OA
ATOM      9  O   UNL d   1     -45.713  13.420  22.497  0.00  0.00    -0.198 OA
BRANCH   7  10
ATOM     10  N   UNL d   1     -45.366  12.973  22.798  0.00  0.00    -0.155 NA
BRANCH  10  11
ATOM     11  C   UNL d   1     -45.137  12.718  22.034  0.00  0.00     0.131 C 
BRANCH  11  12
ATOM     12  C   UNL d   1     -44.330  12.682  21.842  0.00  0.00     0.101 A 
ATOM     13  N   UNL d   1     -43.861  12.081  22.160  0.00  0.00    -0.242 NA
ATOM     14  C   UNL d   1     -43.059  12.037  21.974  0.00  0.00     0.099 A 
ATOM     15  C   UNL d   1     -42.719  12.602  21.463  0.00  0.00     0.021 A 
ATOM     16  C   UNL d   1     -43.201  13.208  21.146  0.00  0.00     0.003 A 
ATOM     17  C   UNL d   1     -44.002  13.245  21.335  0.00  0.00     0.021 A 
ENDBRANCH  11  12
ENDBRANCH  10  11
ENDBRANCH   7  10
ENDBRANCH   1   7
BRANCH   4  18
ATOM     18  O   UNL d   1     -49.394  13.580  23.312  0.00  0.00    -0.305 OA
BRANCH  18  19
ATOM     19  C   UNL d   1     -49.887  13.564  22.647  0.00  0.00     0.122 A 
ATOM     20  C   UNL d   1     -50.440  14.163  22.534  0.00  0.00     0.117 A 
ATOM     21  C   UNL d   1     -50.930  14.145  21.871  0.00  0.00     0.026 A 
ATOM     22  C   UNL d   1     -50.867  13.533  21.329  0.00  0.00     0.002 A 
ATOM     23  C   UNL d   1     -50.312  12.933  21.444  0.00  0.00     0.002 A 
ATOM     24  C   UNL d   1     -49.821  12.951  22.107  0.00  0.00     0.027 A 
BRANCH  20  25
ATOM     25  O   UNL d   1     -50.496  14.770  23.080  0.00  0.00    -0.326 OA
ATOM     26  C   UNL d   1     -51.064  15.347  23.000  0.00  0.00     0.181 C 
ENDBRANCH  20  25
ENDBRANCH  18  19
ENDBRANCH   4  18
TORSDOF 7
ENDMDL
MODEL 3
REMARK VINA RESULT:      -6.1      1.773      5.741
REMARK  7 active torsions:
REMARK  status: ('A' for Active; 'I' for Inactive)
REMARK    1  A    between atoms: N_2  and  S_1 
REMARK    2  A    between atoms: C_3  and  S_1 
REMARK    3  A    between atoms: C_9  and  N_2 
REMARK    4  A    between atoms: C_6  and  O_7 
REMARK    5  A    between atoms: O_7  and  C_14 
REMARK    6  A    between atoms: C_13  and  C_9 
REMARK    7  A    between atoms: O_17  and  C_10 
ROOT
ATOM      1  C   UNL d   1     -47.674  12.562  23.250  0.00  0.00     0.105 A 
ATOM      2  C   UNL d   1     -47.105  13.072  23.541  0.00  0.00     0.015 A 
ATOM      3  C   UNL d   1     -47.461  11.804  22.995  0.00  0.00     0.015 A 
ATOM      4  C   UNL d   1     -46.110  12.074  23.323  0.00  0.00     0.100 A 
ATOM      5  C   UNL d   1     -46.324  12.832  23.579  0.00  0.00     0.025 A 
ATOM      6  C   UNL d   1     -46.680  11.564  23.033  0.00  0.00     0.025 A 
ENDROOT
BRANCH   1   7
ATOM      7  S   UNL d   1     -48.462  12.812  23.215  0.00  0.00     0.285 S 
ATOM      8  O   UNL d   1     -49.071  12.292  23.420  0.00  0.00    -0.198 OA
ATOM      9  O   UNL d   1     -48.638  13.581  22.975  0.00  0.00    -0.198 OA
BRANCH   7  10
ATOM     10  N   UNL d   1     -49.164  13.243  23.116  0.00  0.00    -0.155 NA
BRANCH  10  11
ATOM     11  C   UNL d   1     -49.141  13.993  22.745  0.00  0.00     0.131 C 
BRANCH  11  12
ATOM     12  C   UNL d   1     -49.785  14.511  22.833  0.00  0.00     0.101 A 
ATOM     13  N   UNL d   1     -49.783  15.062  23.449  0.00  0.00    -0.242 NA
ATOM     14  C   UNL d   1     -50.417  15.581  23.544  0.00  0.00     0.099 A 
ATOM     15  C   UNL d   1     -51.063  15.548  23.018  0.00  0.00     0.021 A 
ATOM     16  C   UNL d   1     -51.057  14.987  22.397  0.00  0.00     0.003 A 
ATOM     17  C   UNL d   1     -50.420  14.472  22.308  0.00  0.00     0.021 A 
ENDBRANCH  11  12
ENDBRANCH  10  11
ENDBRANCH   7  10
ENDBRANCH   1   7
BRANCH   4  18
ATOM     18  O   UNL d   1     -45.316  11.832  23.363  0.00  0.00    -0.305 OA
BRANCH  18  19
ATOM     19  C   UNL d   1     -44.775  12.073  22.784  0.00  0.00     0.122 A 
ATOM     20  C   UNL d   1     -44.060  11.675  22.702  0.00  0.00     0.117 A 
ATOM     21  C   UNL d   1     -43.522  11.917  22.125  0.00  0.00     0.026 A 
ATOM     22  C   UNL d   1     -43.701  12.551  21.636  0.00  0.00     0.002 A 
ATOM     23  C   UNL d   1     -44.419  12.950  21.721  0.00  0.00     0.002 A 
ATOM     24  C   UNL d   1     -44.957  12.708  22.297  0.00  0.00     0.027 A 
BRANCH  20  25
ATOM     25  O   UNL d   1     -43.890  11.042  23.193  0.00  0.00    -0.326 OA
ATOM     26  C   UNL d   1     -43.163  10.679  23.163  0.00  0.00     0.181 C 
ENDBRANCH  20  25
ENDBRANCH  18  19
ENDBRANCH   4  18
TORSDOF 7
ENDMDL
MODEL 4
REMARK VINA RESULT:      -5.6      8.665     10.333
REMARK  7 active torsions:
REMARK  status: ('A' for Active; 'I' for Inactive)
REMARK    1  A    between atoms: N_2  and  S_1 
REMARK    2  A    between atoms: C_3  and  S_1 
REMARK    3  A    between atoms: C_9  and  N_2 
REMARK    4  A    between atoms: C_6  and  O_7 
REMARK    5  A    between atoms: O_7  and  C_14 
REMARK    6  A    between atoms: C_13  and  C_9 
REMARK    7  A    between atoms: O_17  and  C_10 
ROOT
ATOM      1  C   UNL d   1     -39.329  15.024  19.429  0.00  0.00     0.105 A 
ATOM      2  C   UNL d   1     -39.839  14.704  18.874  0.00  0.00     0.015 A 
ATOM      3  C   UNL d   1     -38.675  15.468  19.184  0.00  0.00     0.015 A 
ATOM      4  C   UNL d   1     -39.046  15.268  17.832  0.00  0.00     0.100 A 
ATOM      5  C   UNL d   1     -39.700  14.824  18.077  0.00  0.00     0.025 A 
ATOM      6  C   UNL d   1     -38.537  15.587  18.387  0.00  0.00     0.025 A 
ENDROOT
BRANCH   1   7
ATOM      7  S   UNL d   1     -39.476  14.898  20.234  0.00  0.00     0.285 S 
ATOM      8  O   UNL d   1     -40.064  15.332  20.619  0.00  0.00    -0.198 OA
ATOM      9  O   UNL d   1     -39.035  14.339  20.648  0.00  0.00    -0.198 OA
BRANCH   7  10
ATOM     10  N   UNL d   1     -39.469  14.631  21.018  0.00  0.00    -0.155 NA
BRANCH  10  11
ATOM     11  C   UNL d   1     -38.886  14.083  21.265  0.00  0.00     0.131 C 
BRANCH  11  12
ATOM     12  C   UNL d   1     -38.761  13.958  22.077  0.00  0.00     0.101 A 
ATOM     13  N   UNL d   1     -39.269  13.459  22.495  0.00  0.00    -0.242 NA
ATOM     14  C   UNL d   1     -39.154  13.329  23.301  0.00  0.00     0.099 A 
ATOM     15  C   UNL d   1     -38.521  13.702  23.696  0.00  0.00     0.021 A 
ATOM     16  C   UNL d   1     -38.011  14.206  23.264  0.00  0.00     0.003 A 
ATOM     17  C   UNL d   1     -38.132  14.331  22.460  0.00  0.00     0.021 A 
ENDBRANCH  11  12
ENDBRANCH  10  11
ENDBRANCH   7  10
ENDBRANCH   1   7
BRANCH   4  18
ATOM     18  O   UNL d   1     -38.907  15.389  17.022  0.00  0.00    -0.305 OA
BRANCH  18  19
ATOM     19  C   UNL d   1     -38.583  14.784  16.557  0.00  0.00     0.122 A 
ATOM     20  C   UNL d   1     -38.268  14.962  15.819  0.00  0.00     0.117 A 
ATOM     21  C   UNL d   1     -37.945  14.359  15.357  0.00  0.00     0.026 A 
ATOM     22  C   UNL d   1     -37.940  13.587  15.635  0.00  0.00     0.002 A 
ATOM     23  C   UNL d   1     -38.257  13.411  16.376  0.00  0.00     0.002 A 
ATOM     24  C   UNL d   1     -38.579  14.014  16.838  0.00  0.00     0.027 A 
BRANCH  20  25
ATOM     25  O   UNL d   1     -38.277  15.735  15.549  0.00  0.00    -0.326 OA
ATOM     26  C   UNL d   1     -37.971  15.922  14.819  0.00  0.00     0.181 C 
ENDBRANCH  20  25
ENDBRANCH  18  19
ENDBRANCH   4  18
TORSDOF 7
ENDMDL
