MODEL 1
REMARK VINA RESULT:      26.8      0.000      0.000
REMARK  3 active torsions:
REMARK  status: ('A' for Active; 'I' for Inactive)
REMARK    1  A    between atoms: C_9  and  N_1 
REMARK    2  A    between atoms: C_2  and  C_9 
REMARK    3  A    between atoms: S_13  and  C_5 
ROOT
ATOM      1  N   UNL d   1      58.252  49.695  50.734  0.00  0.00    -0.265 N 
ATOM      2  C   UNL d   1      57.981  49.696  51.517  0.00  0.00     0.296 A 
ATOM      3  S   UNL d   1      57.158  49.686  51.494  0.00  0.00    -0.025 SA
ATOM      4  C   UNL d   1      57.607  49.684  50.230  0.00  0.00     0.074 A 
ATOM      5  C   UNL d   1      56.927  49.678  50.692  0.00  0.00     0.050 A 
ATOM      6  O   UNL d   1      58.451  49.707  52.192  0.00  0.00    -0.259 OA
ATOM      7  C   UNL d   1      57.542  49.677  49.403  0.00  0.00     0.018 A 
ATOM      8  C   UNL d   1      56.180  49.667  50.336  0.00  0.00     0.008 A 
ATOM      9  C   UNL d   1      56.798  49.666  49.042  0.00  0.00     0.002 A 
ATOM     10  C   UNL d   1      56.118  49.661  49.520  0.00  0.00     0.001 A 
ENDROOT
BRANCH   1  11
ATOM     11  C   UNL d   1      59.043  49.703  50.496  0.00  0.00     0.123 C 
BRANCH  11  12
ATOM     12  C   UNL d   1      59.642  49.680  51.051  0.00  0.00     0.189 A 
ATOM     13  N   UNL d   1      60.422  49.633  50.808  0.00  0.00    -0.265 N 
ATOM     14  C   UNL d   1      60.897  49.619  51.481  0.00  0.00     0.197 A 
ATOM     15  C   UNL d   1      60.700  49.603  50.032  0.00  0.00     0.103 C 
ATOM     16  N   UNL d   1      60.407  49.658  52.140  0.00  0.00    -0.122 NA
ATOM     17  N   UNL d   1      59.630  49.696  51.870  0.00  0.00    -0.126 NA
BRANCH  14  18
ATOM     18  S   UNL d   1      61.720  49.574  51.495  0.00  0.00    -0.074 SA
ATOM     19  C   UNL d   1      62.123  49.468  52.208  0.00  0.00     0.077 C 
ENDBRANCH  14  18
ENDBRANCH  11  12
ENDBRANCH   1  11
TORSDOF 3
ENDMDL
