MODEL 1
REMARK VINA RESULT:      -4.3      0.000      0.000
REMARK  7 active torsions:
REMARK  status: ('A' for Active; 'I' for Inactive)
REMARK    1  A    between atoms: N_2  and  S_1 
REMARK    2  A    between atoms: C_6  and  S_1 
REMARK    3  A    between atoms: C_16  and  C_3 
REMARK       I    between atoms: C_4  and  N_10 
REMARK    4  A    between atoms: C_5  and  C_4 
REMARK       I    between atoms: N_11  and  C_5 
REMARK    5  A    between atoms: N_10  and  C_16 
REMARK    6  A    between atoms: C_26  and  N_11 
REMARK    7  A    between atoms: C_25  and  C_26 
ROOT
ATOM      1  C   UNL d   1      57.888  -0.369  30.290  0.00  0.00     0.337 C 
ATOM      2  N   UNL d   1      58.508  -0.086  29.837  0.00  0.00    -0.199 NA
ATOM      3  O   UNL d   1      57.806  -1.177  30.431  0.00  0.00    -0.260 OA
ENDROOT
BRANCH   2   4
ATOM      4  C   UNL d   1      59.055  -0.611  29.519  0.00  0.00     0.146 C 
BRANCH   4   5
ATOM      5  C   UNL d   1      59.766  -0.337  29.207  0.00  0.00     0.197 A 
ATOM      6  N   UNL d   1      60.370  -0.801  28.914  0.00  0.00    -0.207 N 
ATOM      7  C   UNL d   1      60.972  -0.294  28.660  0.00  0.00     0.120 A 
ATOM      8  C   UNL d   1      60.733   0.489  28.800  0.00  0.00     0.144 A 
ATOM      9  O   UNL d   1      59.974   0.457  29.144  0.00  0.00    -0.285 OA
BRANCH   6  10
ATOM     10  S   UNL d   1      60.382  -1.620  28.876  0.00  0.00     0.273 S 
ATOM     11  O   UNL d   1      61.126  -1.626  29.219  0.00  0.00    -0.200 OA
ATOM     12  O   UNL d   1      59.638  -1.615  28.532  0.00  0.00    -0.200 OA
BRANCH  10  13
ATOM     13  C   UNL d   1      60.394  -2.439  28.837  0.00  0.00     0.104 A 
ATOM     14  C   UNL d   1      59.752  -2.849  28.494  0.00  0.00     0.013 A 
ATOM     15  C   UNL d   1      59.764  -3.668  28.455  0.00  0.00     0.007 A 
ATOM     16  C   UNL d   1      60.415  -4.091  28.758  0.00  0.00     0.035 A 
ATOM     17  C   UNL d   1      61.046  -3.680  29.096  0.00  0.00     0.007 A 
ATOM     18 BR   UNL d   1      60.429  -4.912  28.720  0.00  0.00    -0.049 Br
ATOM     19  C   UNL d   1      61.034  -2.861  29.134  0.00  0.00     0.013 A 
ENDBRANCH  10  13
ENDBRANCH   6  10
ENDBRANCH   4   5
ENDBRANCH   2   4
BRANCH   1  20
ATOM     20  C   UNL d   1      57.342   0.156  30.608  0.00  0.00     0.337 C 
ATOM     21  N   UNL d   1      57.202   0.144  31.416  0.00  0.00    -0.202 NA
ATOM     22  O   UNL d   1      56.944   0.682  30.119  0.00  0.00    -0.260 OA
BRANCH  21  23
ATOM     23  C   UNL d   1      56.648   0.675  31.743  0.00  0.00     0.102 C 
BRANCH  23  24
ATOM     24  C   UNL d   1      56.436   0.615  32.539  0.00  0.00     0.021 A 
ATOM     25  C   UNL d   1      55.644   0.679  32.749  0.00  0.00     0.028 A 
ATOM     26  C   UNL d   1      55.433   0.618  33.551  0.00  0.00     0.119 A 
ATOM     27  O   UNL d   1      54.697   0.660  33.921  0.00  0.00    -0.300 OA
ATOM     28  C   UNL d   1      56.011   0.495  34.130  0.00  0.00     0.119 A 
ATOM     29  C   UNL d   1      54.826   0.560  34.743  0.00  0.00     0.304 A 
ATOM     30  O   UNL d   1      55.637   0.460  34.851  0.00  0.00    -0.300 OA
ATOM     31  C   UNL d   1      56.801   0.432  33.902  0.00  0.00     0.026 A 
ATOM     32  C   UNL d   1      57.016   0.491  33.113  0.00  0.00     0.004 A 
ENDBRANCH  23  24
ENDBRANCH  21  23
ENDBRANCH   1  20
TORSDOF 7
ENDMDL
