MODEL 1
REMARK VINA RESULT:      35.9      0.000      0.000
REMARK  5 active torsions:
REMARK  status: ('A' for Active; 'I' for Inactive)
REMARK    1  A    between atoms: C_7  and  N_2 
REMARK    2  A    between atoms: C_14  and  C_7 
REMARK    3  A    between atoms: O_10  and  C_9 
REMARK    4  A    between atoms: C_11  and  O_10 
REMARK    5  A    between atoms: C_13  and  C_11 
ROOT
ATOM      1  C   UNL d   1      45.519 -18.127  43.920  0.00  0.00     0.265 A 
ATOM      2  N   UNL d   1      46.210 -18.180  43.472  0.00  0.00    -0.272 N 
ATOM      3  C   UNL d   1      45.266 -17.398  44.199  0.00  0.00     0.059 A 
ATOM      4  C   UNL d   1      45.701 -16.717  44.033  0.00  0.00     0.029 A 
ATOM      5  C   UNL d   1      46.390 -16.766  43.587  0.00  0.00     0.021 A 
ATOM      6  C   UNL d   1      46.646 -17.499  43.306  0.00  0.00     0.083 A 
ATOM      7  O   UNL d   1      45.084 -18.808  44.086  0.00  0.00    -0.267 OA
ATOM      8  C   UNL d   1      45.445 -15.984  44.314  0.00  0.00     0.100 A 
ATOM      9  C   UNL d   1      44.574 -17.346  44.646  0.00  0.00     0.005 A 
ATOM     10  C   UNL d   1      44.318 -16.614  44.928  0.00  0.00     0.002 A 
ATOM     11  C   UNL d   1      44.753 -15.933  44.762  0.00  0.00     0.025 A 
ENDROOT
BRANCH   8  12
ATOM     12  O   UNL d   1      45.880 -15.304  44.148  0.00  0.00    -0.305 OA
BRANCH  12  13
ATOM     13  C   UNL d   1      45.612 -14.569  44.410  0.00  0.00     0.122 C 
BRANCH  13  14
ATOM     14  C   UNL d   1      45.515 -13.950  43.874  0.00  0.00     0.025 A 
ATOM     15  C   UNL d   1      46.160 -13.678  43.435  0.00  0.00     0.004 A 
ATOM     16  C   UNL d   1      46.063 -13.059  42.899  0.00  0.00     0.030 A 
ATOM     17  C   UNL d   1      45.321 -12.712  42.800  0.00  0.00     0.140 A 
ATOM     18  C   UNL d   1      44.676 -12.983  43.238  0.00  0.00     0.030 A 
ATOM     19  F   UNL d   1      45.224 -12.093  42.264  0.00  0.00    -0.204 F 
ATOM     20  C   UNL d   1      44.773 -13.602  43.775  0.00  0.00     0.004 A 
ENDBRANCH  13  14
ENDBRANCH  12  13
ENDBRANCH   8  12
BRANCH   2  21
ATOM     21  C   UNL d   1      46.465 -18.922  43.190  0.00  0.00     0.083 C 
BRANCH  21  22
ATOM     22  C   UNL d   1      46.499 -19.070  42.379  0.00  0.00     0.018 A 
ATOM     23  C   UNL d   1      46.612 -19.839  42.109  0.00  0.00     0.002 A 
ATOM     24  C   UNL d   1      46.646 -19.987  41.298  0.00  0.00     0.000 A 
ATOM     25  C   UNL d   1      46.566 -19.365  40.761  0.00  0.00     0.000 A 
ATOM     26  C   UNL d   1      46.453 -18.600  41.037  0.00  0.00     0.000 A 
ATOM     27  C   UNL d   1      46.419 -18.452  41.848  0.00  0.00     0.002 A 
ENDBRANCH  21  22
ENDBRANCH   2  21
TORSDOF 5
ENDMDL
