MODEL 1
REMARK VINA RESULT:      -5.7      0.000      0.000
REMARK  3 active torsions:
REMARK  status: ('A' for Active; 'I' for Inactive)
REMARK    1  A    between atoms: C_2  and  C_1 
REMARK    2  A    between atoms: C_6  and  C_2 
REMARK    3  A    between atoms: C_9  and  C_6 
ROOT
ATOM      1  C   UNL d   1      57.011  -0.143  31.530  0.00  0.00     0.199 C 
ATOM      2  O   UNL d   1      57.062  -0.832  31.077  0.00  0.00    -0.286 OA
ENDROOT
BRANCH   1   3
ATOM      3  C   UNL d   1      56.511  -0.125  32.186  0.00  0.00     0.078 A 
ATOM      4  C   UNL d   1      56.259  -0.842  32.541  0.00  0.00     0.202 A 
ATOM      5  C   UNL d   1      55.756  -0.813  33.200  0.00  0.00     0.084 A 
ATOM      6  O   UNL d   1      56.516  -1.561  32.230  0.00  0.00    -0.286 OA
ATOM      7  C   UNL d   1      55.502  -0.097  33.509  0.00  0.00     0.199 A 
ATOM      8  C   UNL d   1      55.753   0.620  33.153  0.00  0.00     0.042 A 
ATOM      9  O   UNL d   1      55.004  -0.072  34.161  0.00  0.00    -0.286 OA
ATOM     10  C   UNL d   1      56.254   0.603  32.497  0.00  0.00     0.010 A 
ENDBRANCH   1   3
BRANCH   1  11
ATOM     11  C   UNL d   1      57.457   0.520  31.326  0.00  0.00     0.042 C 
BRANCH  11  12
ATOM     12  C   UNL d   1      57.949   0.505  30.664  0.00  0.00     0.003 A 
ATOM     13  C   UNL d   1      58.739   0.315  30.757  0.00  0.00     0.001 A 
ATOM     14  C   UNL d   1      59.230   0.300  30.094  0.00  0.00     0.007 A 
ATOM     15  C   UNL d   1      58.935   0.476  29.339  0.00  0.00     0.035 A 
ATOM     16  C   UNL d   1      58.135   0.666  29.257  0.00  0.00     0.007 A 
ATOM     17 BR   UNL d   1      59.426   0.460  28.681  0.00  0.00    -0.049 Br
ATOM     18  C   UNL d   1      57.640   0.682  29.919  0.00  0.00     0.001 A 
ENDBRANCH  11  12
ENDBRANCH   1  11
TORSDOF 3
ENDMDL
MODEL 2
REMARK VINA RESULT:      -5.0      2.048      4.152
REMARK  3 active torsions:
REMARK  status: ('A' for Active; 'I' for Inactive)
REMARK    1  A    between atoms: C_2  and  C_1 
REMARK    2  A    between atoms: C_6  and  C_2 
REMARK    3  A    between atoms: C_9  and  C_6 
ROOT
ATOM      1  C   UNL d   1      57.654   0.183  30.811  0.00  0.00     0.199 C 
ATOM      2  O   UNL d   1      56.990   0.598  30.547  0.00  0.00    -0.286 OA
ENDROOT
BRANCH   1   3
ATOM      3  C   UNL d   1      58.359   0.233  30.386  0.00  0.00     0.078 A 
ATOM      4  C   UNL d   1      58.416  -0.114  29.624  0.00  0.00     0.202 A 
ATOM      5  C   UNL d   1      59.129  -0.058  29.205  0.00  0.00     0.084 A 
ATOM      6  O   UNL d   1      57.763  -0.505  29.307  0.00  0.00    -0.286 OA
ATOM      7  C   UNL d   1      59.778   0.332  29.522  0.00  0.00     0.199 A 
ATOM      8  C   UNL d   1      59.721   0.679  30.284  0.00  0.00     0.042 A 
ATOM      9  O   UNL d   1      60.483   0.386  29.104  0.00  0.00    -0.286 OA
ATOM     10  C   UNL d   1      59.017   0.629  30.709  0.00  0.00     0.010 A 
ENDBRANCH   1   3
BRANCH   1  11
ATOM     11  C   UNL d   1      57.609  -0.277  31.494  0.00  0.00     0.042 C 
BRANCH  11  12
ATOM     12  C   UNL d   1      56.983  -0.181  32.022  0.00  0.00     0.003 A 
ATOM     13  C   UNL d   1      56.872   0.545  32.382  0.00  0.00     0.001 A 
ATOM     14  C   UNL d   1      56.246   0.641  32.911  0.00  0.00     0.007 A 
ATOM     15  C   UNL d   1      55.730   0.013  33.081  0.00  0.00     0.035 A 
ATOM     16  C   UNL d   1      55.852  -0.715  32.711  0.00  0.00     0.007 A 
ATOM     17 BR   UNL d   1      55.107   0.111  33.607  0.00  0.00    -0.049 Br
ATOM     18  C   UNL d   1      56.479  -0.815  32.181  0.00  0.00     0.001 A 
ENDBRANCH  11  12
ENDBRANCH   1  11
TORSDOF 3
ENDMDL
MODEL 3
REMARK VINA RESULT:      -4.8      2.104      4.103
REMARK  3 active torsions:
REMARK  status: ('A' for Active; 'I' for Inactive)
REMARK    1  A    between atoms: C_2  and  C_1 
REMARK    2  A    between atoms: C_6  and  C_2 
REMARK    3  A    between atoms: C_9  and  C_6 
ROOT
ATOM      1  C   UNL d   1      56.895  -0.049  31.916  0.00  0.00     0.199 C 
ATOM      2  O   UNL d   1      56.607  -0.763  32.218  0.00  0.00    -0.286 OA
ENDROOT
BRANCH   1   3
ATOM      3  C   UNL d   1      57.380  -0.057  31.249  0.00  0.00     0.078 A 
ATOM      4  C   UNL d   1      57.495  -0.771  30.822  0.00  0.00     0.202 A 
ATOM      5  C   UNL d   1      57.984  -0.768  30.153  0.00  0.00     0.084 A 
ATOM      6  O   UNL d   1      57.121  -1.460  31.077  0.00  0.00    -0.286 OA
ATOM      7  C   UNL d   1      58.356  -0.081  29.901  0.00  0.00     0.199 A 
ATOM      8  C   UNL d   1      58.240   0.632  30.328  0.00  0.00     0.042 A 
ATOM      9  O   UNL d   1      58.839  -0.082  29.238  0.00  0.00    -0.286 OA
ATOM     10  C   UNL d   1      57.756   0.641  30.995  0.00  0.00     0.010 A 
ENDBRANCH   1   3
BRANCH   1  11
ATOM     11  C   UNL d   1      56.698   0.663  32.282  0.00  0.00     0.042 C 
BRANCH  11  12
ATOM     12  C   UNL d   1      56.275   0.667  32.990  0.00  0.00     0.003 A 
ATOM     13  C   UNL d   1      55.457   0.659  32.967  0.00  0.00     0.001 A 
ATOM     14  C   UNL d   1      55.035   0.663  33.675  0.00  0.00     0.007 A 
ATOM     15  C   UNL d   1      55.426   0.674  34.407  0.00  0.00     0.035 A 
ATOM     16  C   UNL d   1      56.252   0.682  34.418  0.00  0.00     0.007 A 
ATOM     17 BR   UNL d   1      55.003   0.678  35.111  0.00  0.00    -0.049 Br
ATOM     18  C   UNL d   1      56.679   0.678  33.710  0.00  0.00     0.001 A 
ENDBRANCH  11  12
ENDBRANCH   1  11
TORSDOF 3
ENDMDL
MODEL 4
REMARK VINA RESULT:      -4.6      1.185      1.445
REMARK  3 active torsions:
REMARK  status: ('A' for Active; 'I' for Inactive)
REMARK    1  A    between atoms: C_2  and  C_1 
REMARK    2  A    between atoms: C_6  and  C_2 
REMARK    3  A    between atoms: C_9  and  C_6 
ROOT
ATOM      1  C   UNL d   1      57.058   0.333  32.468  0.00  0.00     0.199 C 
ATOM      2  O   UNL d   1      57.829   0.618  32.555  0.00  0.00    -0.286 OA
ENDROOT
BRANCH   1   3
ATOM      3  C   UNL d   1      56.521   0.419  33.089  0.00  0.00     0.078 A 
ATOM      4  C   UNL d   1      56.797   0.592  33.862  0.00  0.00     0.202 A 
ATOM      5  C   UNL d   1      56.250   0.677  34.478  0.00  0.00     0.084 A 
ATOM      6  O   UNL d   1      57.607   0.675  33.994  0.00  0.00    -0.286 OA
ATOM      7  C   UNL d   1      55.444   0.594  34.345  0.00  0.00     0.199 A 
ATOM      8  C   UNL d   1      55.168   0.421  33.572  0.00  0.00     0.042 A 
ATOM      9  O   UNL d   1      54.905   0.678  34.958  0.00  0.00    -0.286 OA
ATOM     10  C   UNL d   1      55.704   0.335  32.951  0.00  0.00     0.010 A 
ENDBRANCH   1   3
BRANCH   1  11
ATOM     11  C   UNL d   1      56.830  -0.034  31.766  0.00  0.00     0.042 C 
BRANCH  11  12
ATOM     12  C   UNL d   1      57.334  -0.036  31.113  0.00  0.00     0.003 A 
ATOM     13  C   UNL d   1      57.634  -0.748  30.842  0.00  0.00     0.001 A 
ATOM     14  C   UNL d   1      58.138  -0.749  30.189  0.00  0.00     0.007 A 
ATOM     15  C   UNL d   1      58.344  -0.042  29.805  0.00  0.00     0.035 A 
ATOM     16  C   UNL d   1      58.035   0.670  30.088  0.00  0.00     0.007 A 
ATOM     17 BR   UNL d   1      58.845  -0.047  29.155  0.00  0.00    -0.049 Br
ATOM     18  C   UNL d   1      57.529   0.675  30.742  0.00  0.00     0.001 A 
ENDBRANCH  11  12
ENDBRANCH   1  11
TORSDOF 3
ENDMDL
