MODEL 1
REMARK VINA RESULT:      64.5      0.000      0.000
REMARK  4 active torsions:
REMARK  status: ('A' for Active; 'I' for Inactive)
REMARK    1  A    between atoms: S_10  and  C_5 
REMARK       I    between atoms: N_7  and  C_8 
REMARK    2  A    between atoms: C_8  and  C_11 
REMARK    3  A    between atoms: C_11  and  S_10 
REMARK    4  A    between atoms: C_19  and  C_12 
ROOT
ATOM      1  S   UNL d   1      59.917  49.399  50.736  0.00  0.00    -0.054 SA
ENDROOT
BRANCH   1   2
ATOM      2  C   UNL d   1      60.284  48.650  50.660  0.00  0.00     0.163 A 
ATOM      3  S   UNL d   1      60.975  48.478  50.214  0.00  0.00    -0.021 SA
ATOM      4  C   UNL d   1      61.143  47.668  50.293  0.00  0.00     0.200 A 
ATOM      5  N   UNL d   1      61.717  47.425  49.947  0.00  0.00    -0.182 NA
ATOM      6  N   UNL d   1      60.559  47.320  50.791  0.00  0.00    -0.204 N 
ATOM      7  C   UNL d   1      61.976  46.653  49.953  0.00  0.00     0.281 A 
ATOM      8  O   UNL d   1      62.624  46.823  49.454  0.00  0.00    -0.265 OA
ATOM      9  C   UNL d   1      61.620  45.981  50.369  0.00  0.00     0.064 A 
ATOM     10  C   UNL d   1      60.913  45.988  50.867  0.00  0.00     0.026 A 
ATOM     11  C   UNL d   1      60.440  46.654  51.039  0.00  0.00     0.103 A 
ATOM     12  N   UNL d   1      60.026  47.929  51.019  0.00  0.00    -0.150 NA
ENDBRANCH   1   2
BRANCH   1  13
ATOM     13  C   UNL d   1      59.124  49.453  50.933  0.00  0.00     0.099 C 
BRANCH  13  14
ATOM     14  C   UNL d   1      58.556  49.536  50.341  0.00  0.00     0.271 C 
ATOM     15  N   UNL d   1      57.766  49.573  50.525  0.00  0.00    -0.273 N 
ATOM     16  C   UNL d   1      57.209  49.655  49.939  0.00  0.00     0.067 A 
ATOM     17  C   UNL d   1      57.522  49.528  51.308  0.00  0.00     0.083 A 
ATOM     18  C   UNL d   1      56.403  49.692  50.137  0.00  0.00     0.018 A 
ATOM     19  C   UNL d   1      56.177  49.646  50.917  0.00  0.00     0.003 A 
ATOM     20  C   UNL d   1      56.739  49.564  51.502  0.00  0.00     0.019 A 
ATOM     21  O   UNL d   1      58.796  49.582  49.554  0.00  0.00    -0.266 OA
BRANCH  16  22
ATOM     22  C   UNL d   1      57.446  49.701  49.156  0.00  0.00     0.018 C 
ATOM     23  C   UNL d   1      57.922  49.096  48.840  0.00  0.00     0.002 C 
ENDBRANCH  16  22
ENDBRANCH  13  14
ENDBRANCH   1  13
TORSDOF 4
ENDMDL
