MODEL 1
REMARK VINA RESULT:      11.9      0.000      0.000
REMARK  2 active torsions:
REMARK  status: ('A' for Active; 'I' for Inactive)
REMARK    1  A    between atoms: CA_3  and  C_1 
REMARK    2  A    between atoms: C_2  and  CA_3 
ROOT
ATOM      1  C   UNL d   1      57.828  49.697  50.361  0.00  0.00     0.026 A 
ATOM      2  C   UNL d   1      57.383  49.700  49.664  0.00  0.00     0.009 A 
ATOM      3  C   UNL d   1      56.561  49.698  49.699  0.00  0.00     0.035 A 
ATOM      4 BR   UNL d   1      56.120  49.701  49.004  0.00  0.00    -0.049 Br
ATOM      5  C   UNL d   1      57.446  49.693  51.092  0.00  0.00     0.002 A 
ATOM      6  C   UNL d   1      56.620  49.692  51.127  0.00  0.00     0.001 A 
ATOM      7  C   UNL d   1      56.179  49.694  50.431  0.00  0.00     0.007 A 
ENDROOT
BRANCH   1   8
ATOM      8  CA  UNL d   1      58.652  49.699  50.321  0.00  0.00     0.167 C 
ATOM      9  N   UNL d   1      59.028  49.708  49.592  0.00  0.00    -0.142 N 
BRANCH   8  10
ATOM     10  C   UNL d   1      59.099  49.692  51.013  0.00  0.00     0.231 C 
ATOM     11  O   UNL d   1      58.722  49.708  51.753  0.00  0.00    -0.643 OA
ATOM     12  OXT UNL d   1      59.926  49.670  50.976  0.00  0.00    -0.643 OA
ENDBRANCH   8  10
ENDBRANCH   1   8
TORSDOF 2
ENDMDL
