MODEL 1
REMARK VINA RESULT:      -6.5      0.000      0.000
REMARK  5 active torsions:
REMARK  status: ('A' for Active; 'I' for Inactive)
REMARK       I    between atoms: N_2  and  C_1 
REMARK    1  A    between atoms: C_11  and  C_1 
REMARK    2  A    between atoms: C_4  and  N_2 
REMARK    3  A    between atoms: C_3  and  C_4 
REMARK    4  A    between atoms: C_5  and  C_3 
REMARK    5  A    between atoms: N_6  and  C_3 
ROOT
ATOM      1  C   UNL d   1     -49.344  13.585  22.683  0.00  0.00     0.088 C 
ENDROOT
BRANCH   1   2
ATOM      2  C   UNL d   1     -48.686  13.234  23.037  0.00  0.00     0.101 C 
ATOM      3  C   UNL d   1     -48.785  12.748  23.690  0.00  0.00     0.022 C 
BRANCH   2   4
ATOM      4  N   UNL d   1     -47.937  13.376  22.728  0.00  0.00    -0.206 NA
ATOM      5  C   UNL d   1     -47.276  12.993  23.056  0.00  0.00     0.279 C 
ATOM      6  O   UNL d   1     -47.378  12.474  23.688  0.00  0.00    -0.265 OA
BRANCH   5   7
ATOM      7  C   UNL d   1     -46.525  13.135  22.747  0.00  0.00     0.058 A 
ATOM      8  C   UNL d   1     -46.099  12.524  22.376  0.00  0.00     0.005 A 
ATOM      9  C   UNL d   1     -45.353  12.677  22.072  0.00  0.00     0.000 A 
ATOM     10  C   UNL d   1     -45.018  13.434  22.133  0.00  0.00     0.000 A 
ATOM     11  C   UNL d   1     -45.444  14.035  22.502  0.00  0.00     0.000 A 
ATOM     12  C   UNL d   1     -46.197  13.888  22.810  0.00  0.00     0.005 A 
ENDBRANCH   5   7
ENDBRANCH   2   4
ENDBRANCH   1   2
BRANCH   1  13
ATOM     13  C   UNL d   1     -49.792  13.164  22.133  0.00  0.00     0.047 A 
ATOM     14  S   UNL d   1     -50.405  12.631  22.299  0.00  0.00    -0.085 SA
ATOM     15  C   UNL d   1     -50.696  12.341  21.585  0.00  0.00     0.035 A 
ATOM     16  C   UNL d   1     -50.272  12.689  20.965  0.00  0.00     0.007 A 
ATOM     17  C   UNL d   1     -49.707  13.203  21.302  0.00  0.00     0.009 A 
ENDBRANCH   1  13
BRANCH   1  18
ATOM     18  N   UNL d   1     -49.558  14.364  22.878  0.00  0.00    -0.299 N 
ATOM     19  C   UNL d   1     -50.076  14.504  23.496  0.00  0.00     0.107 A 
ATOM     20  C   UNL d   1     -50.295  15.273  23.697  0.00  0.00     0.142 A 
ATOM     21  O   UNL d   1     -49.990  15.921  23.271  0.00  0.00    -0.300 OA
ATOM     22  C   UNL d   1     -49.464  15.775  22.642  0.00  0.00     0.142 A 
ATOM     23  C   UNL d   1     -49.249  15.000  22.448  0.00  0.00     0.107 A 
ENDBRANCH   1  18
TORSDOF 5
ENDMDL
MODEL 2
REMARK VINA RESULT:      -6.3      1.087      2.180
REMARK  5 active torsions:
REMARK  status: ('A' for Active; 'I' for Inactive)
REMARK       I    between atoms: N_2  and  C_1 
REMARK    1  A    between atoms: C_11  and  C_1 
REMARK    2  A    between atoms: C_4  and  N_2 
REMARK    3  A    between atoms: C_3  and  C_4 
REMARK    4  A    between atoms: C_5  and  C_3 
REMARK    5  A    between atoms: N_6  and  C_3 
ROOT
ATOM      1  C   UNL d   1     -49.424  13.772  22.786  0.00  0.00     0.088 C 
ENDROOT
BRANCH   1   2
ATOM      2  C   UNL d   1     -48.767  13.373  23.087  0.00  0.00     0.101 C 
ATOM      3  C   UNL d   1     -48.861  12.834  23.698  0.00  0.00     0.022 C 
BRANCH   2   4
ATOM      4  N   UNL d   1     -48.023  13.521  22.769  0.00  0.00    -0.206 NA
ATOM      5  C   UNL d   1     -47.360  13.113  23.060  0.00  0.00     0.279 C 
ATOM      6  O   UNL d   1     -47.455  12.563  23.666  0.00  0.00    -0.265 OA
BRANCH   5   7
ATOM      7  C   UNL d   1     -46.614  13.261  22.741  0.00  0.00     0.058 A 
ATOM      8  C   UNL d   1     -46.194  13.947  22.953  0.00  0.00     0.005 A 
ATOM      9  C   UNL d   1     -45.453  14.084  22.629  0.00  0.00     0.000 A 
ATOM     10  C   UNL d   1     -45.119  13.545  22.093  0.00  0.00     0.000 A 
ATOM     11  C   UNL d   1     -45.539  12.868  21.887  0.00  0.00     0.000 A 
ATOM     12  C   UNL d   1     -46.287  12.723  22.209  0.00  0.00     0.005 A 
ENDBRANCH   5   7
ENDBRANCH   2   4
ENDBRANCH   1   2
BRANCH   1  13
ATOM     13  C   UNL d   1     -49.578  14.549  23.018  0.00  0.00     0.047 A 
ATOM     14  S   UNL d   1     -50.009  14.791  23.683  0.00  0.00    -0.085 SA
ATOM     15  C   UNL d   1     -50.022  15.614  23.698  0.00  0.00     0.035 A 
ATOM     16  C   UNL d   1     -49.602  15.898  23.044  0.00  0.00     0.007 A 
ATOM     17  C   UNL d   1     -49.322  15.237  22.617  0.00  0.00     0.009 A 
ENDBRANCH   1  13
BRANCH   1  18
ATOM     18  N   UNL d   1     -49.934  13.395  22.250  0.00  0.00    -0.299 N 
ATOM     19  C   UNL d   1     -49.822  13.487  21.445  0.00  0.00     0.107 A 
ATOM     20  C   UNL d   1     -50.323  13.117  20.904  0.00  0.00     0.142 A 
ATOM     21  O   UNL d   1     -50.953  12.642  21.173  0.00  0.00    -0.300 OA
ATOM     22  C   UNL d   1     -51.064  12.550  21.993  0.00  0.00     0.142 A 
ATOM     23  C   UNL d   1     -50.557  12.925  22.528  0.00  0.00     0.107 A 
ENDBRANCH   1  18
TORSDOF 5
ENDMDL
MODEL 3
REMARK VINA RESULT:      -5.6      9.451     10.526
REMARK  5 active torsions:
REMARK  status: ('A' for Active; 'I' for Inactive)
REMARK       I    between atoms: N_2  and  C_1 
REMARK    1  A    between atoms: C_11  and  C_1 
REMARK    2  A    between atoms: C_4  and  N_2 
REMARK    3  A    between atoms: C_3  and  C_4 
REMARK    4  A    between atoms: C_5  and  C_3 
REMARK    5  A    between atoms: N_6  and  C_3 
ROOT
ATOM      1  C   UNL d   1     -38.997  14.703  17.848  0.00  0.00     0.088 C 
ENDROOT
BRANCH   1   2
ATOM      2  C   UNL d   1     -38.652  15.107  18.479  0.00  0.00     0.101 C 
ATOM      3  C   UNL d   1     -37.991  15.576  18.350  0.00  0.00     0.022 C 
BRANCH   2   4
ATOM      4  N   UNL d   1     -38.975  15.035  19.232  0.00  0.00    -0.206 NA
ATOM      5  C   UNL d   1     -38.626  15.435  19.872  0.00  0.00     0.279 C 
ATOM      6  O   UNL d   1     -37.959  15.901  19.745  0.00  0.00    -0.265 OA
BRANCH   5   7
ATOM      7  C   UNL d   1     -38.950  15.363  20.626  0.00  0.00     0.058 A 
ATOM      8  C   UNL d   1     -38.728  14.734  21.123  0.00  0.00     0.005 A 
ATOM      9  C   UNL d   1     -39.056  14.672  21.871  0.00  0.00     0.000 A 
ATOM     10  C   UNL d   1     -39.609  15.231  22.138  0.00  0.00     0.000 A 
ATOM     11  C   UNL d   1     -39.826  15.853  21.643  0.00  0.00     0.000 A 
ATOM     12  C   UNL d   1     -39.498  15.921  20.887  0.00  0.00     0.005 A 
ENDBRANCH   5   7
ENDBRANCH   2   4
ENDBRANCH   1   2
BRANCH   1  13
ATOM     13  C   UNL d   1     -38.692  13.975  17.606  0.00  0.00     0.047 A 
ATOM     14  S   UNL d   1     -38.067  13.853  17.075  0.00  0.00    -0.085 SA
ATOM     15  C   UNL d   1     -37.949  13.042  16.996  0.00  0.00     0.035 A 
ATOM     16  C   UNL d   1     -38.498  12.646  17.474  0.00  0.00     0.007 A 
ATOM     17  C   UNL d   1     -38.963  13.225  17.857  0.00  0.00     0.009 A 
ENDBRANCH   1  13
BRANCH   1  18
ATOM     18  N   UNL d   1     -39.654  15.024  17.454  0.00  0.00    -0.299 N 
ATOM     19  C   UNL d   1     -40.409  14.774  17.644  0.00  0.00     0.107 A 
ATOM     20  C   UNL d   1     -41.067  15.087  17.259  0.00  0.00     0.142 A 
ATOM     21  O   UNL d   1     -40.970  15.665  16.666  0.00  0.00    -0.300 OA
ATOM     22  C   UNL d   1     -40.200  15.917  16.474  0.00  0.00     0.142 A 
ATOM     23  C   UNL d   1     -39.546  15.598  16.866  0.00  0.00     0.107 A 
ENDBRANCH   1  18
TORSDOF 5
ENDMDL
MODEL 4
REMARK VINA RESULT:      -5.6      9.238     10.523
REMARK  5 active torsions:
REMARK  status: ('A' for Active; 'I' for Inactive)
REMARK       I    between atoms: N_2  and  C_1 
REMARK    1  A    between atoms: C_11  and  C_1 
REMARK    2  A    between atoms: C_4  and  N_2 
REMARK    3  A    between atoms: C_3  and  C_4 
REMARK    4  A    between atoms: C_5  and  C_3 
REMARK    5  A    between atoms: N_6  and  C_3 
ROOT
ATOM      1  C   UNL d   1     -39.307  14.834  17.906  0.00  0.00     0.088 C 
ENDROOT
BRANCH   1   2
ATOM      2  C   UNL d   1     -39.007  15.122  18.618  0.00  0.00     0.101 C 
ATOM      3  C   UNL d   1     -38.591  15.828  18.630  0.00  0.00     0.022 C 
BRANCH   2   4
ATOM      4  N   UNL d   1     -39.128  14.695  19.311  0.00  0.00    -0.206 NA
ATOM      5  C   UNL d   1     -38.842  14.989  20.033  0.00  0.00     0.279 C 
ATOM      6  O   UNL d   1     -38.438  15.707  20.048  0.00  0.00    -0.265 OA
BRANCH   5   7
ATOM      7  C   UNL d   1     -38.963  14.561  20.727  0.00  0.00     0.058 A 
ATOM      8  C   UNL d   1     -39.684  14.619  21.138  0.00  0.00     0.005 A 
ATOM      9  C   UNL d   1     -39.794  14.189  21.827  0.00  0.00     0.000 A 
ATOM     10  C   UNL d   1     -39.192  13.697  22.120  0.00  0.00     0.000 A 
ATOM     11  C   UNL d   1     -38.480  13.643  21.709  0.00  0.00     0.000 A 
ATOM     12  C   UNL d   1     -38.363  14.074  21.013  0.00  0.00     0.005 A 
ENDBRANCH   5   7
ENDBRANCH   2   4
ENDBRANCH   1   2
BRANCH   1  13
ATOM     13  C   UNL d   1     -40.010  15.141  17.599  0.00  0.00     0.047 A 
ATOM     14  S   UNL d   1     -40.091  15.827  17.141  0.00  0.00    -0.085 SA
ATOM     15  C   UNL d   1     -40.888  15.922  16.956  0.00  0.00     0.035 A 
ATOM     16  C   UNL d   1     -41.315  15.299  17.296  0.00  0.00     0.007 A 
ATOM     17  C   UNL d   1     -40.771  14.809  17.698  0.00  0.00     0.009 A 
ENDBRANCH   1  13
BRANCH   1  18
ATOM     18  N   UNL d   1     -38.907  14.234  17.493  0.00  0.00    -0.299 N 
ATOM     19  C   UNL d   1     -38.342  14.428  16.934  0.00  0.00     0.107 A 
ATOM     20  C   UNL d   1     -37.940  13.841  16.519  0.00  0.00     0.142 A 
ATOM     21  O   UNL d   1     -38.103  13.037  16.666  0.00  0.00    -0.300 OA
ATOM     22  C   UNL d   1     -38.678  12.842  17.236  0.00  0.00     0.142 A 
ATOM     23  C   UNL d   1     -39.077  13.439  17.647  0.00  0.00     0.107 A 
ENDBRANCH   1  18
TORSDOF 5
ENDMDL
MODEL 5
REMARK VINA RESULT:      -5.5      8.111     10.002
REMARK  5 active torsions:
REMARK  status: ('A' for Active; 'I' for Inactive)
REMARK       I    between atoms: N_2  and  C_1 
REMARK    1  A    between atoms: C_11  and  C_1 
REMARK    2  A    between atoms: C_4  and  N_2 
REMARK    3  A    between atoms: C_3  and  C_4 
REMARK    4  A    between atoms: C_5  and  C_3 
REMARK    5  A    between atoms: N_6  and  C_3 
ROOT
ATOM      1  C   UNL d   1     -39.412  14.884  21.004  0.00  0.00     0.088 C 
ENDROOT
BRANCH   1   2
ATOM      2  C   UNL d   1     -38.925  14.942  20.341  0.00  0.00     0.101 C 
ATOM      3  C   UNL d   1     -38.454  15.606  20.238  0.00  0.00     0.022 C 
BRANCH   2   4
ATOM      4  N   UNL d   1     -38.916  14.331  19.790  0.00  0.00    -0.206 NA
ATOM      5  C   UNL d   1     -38.431  14.388  19.118  0.00  0.00     0.279 C 
ATOM      6  O   UNL d   1     -37.962  15.057  19.010  0.00  0.00    -0.265 OA
BRANCH   5   7
ATOM      7  C   UNL d   1     -38.423  13.777  18.565  0.00  0.00     0.058 A 
ATOM      8  C   UNL d   1     -38.884  13.826  17.875  0.00  0.00     0.005 A 
ATOM      9  C   UNL d   1     -38.867  13.211  17.332  0.00  0.00     0.000 A 
ATOM     10  C   UNL d   1     -38.395  12.541  17.465  0.00  0.00     0.000 A 
ATOM     11  C   UNL d   1     -37.941  12.498  18.150  0.00  0.00     0.000 A 
ATOM     12  C   UNL d   1     -37.952  13.114  18.702  0.00  0.00     0.005 A 
ENDBRANCH   5   7
ENDBRANCH   2   4
ENDBRANCH   1   2
BRANCH   1  13
ATOM     13  C   UNL d   1     -40.195  15.141  20.967  0.00  0.00     0.047 A 
ATOM     14  S   UNL d   1     -40.464  15.922  21.044  0.00  0.00    -0.085 SA
ATOM     15  C   UNL d   1     -41.284  15.922  20.969  0.00  0.00     0.035 A 
ATOM     16  C   UNL d   1     -41.539  15.144  20.844  0.00  0.00     0.007 A 
ATOM     17  C   UNL d   1     -40.864  14.654  20.842  0.00  0.00     0.009 A 
ENDBRANCH   1  13
BRANCH   1  18
ATOM     18  N   UNL d   1     -39.119  14.566  21.714  0.00  0.00    -0.299 N 
ATOM     19  C   UNL d   1     -38.721  15.045  22.244  0.00  0.00     0.107 A 
ATOM     20  C   UNL d   1     -38.426  14.739  22.950  0.00  0.00     0.142 A 
ATOM     21  O   UNL d   1     -38.530  13.933  23.134  0.00  0.00    -0.300 OA
ATOM     22  C   UNL d   1     -38.936  13.447  22.592  0.00  0.00     0.142 A 
ATOM     23  C   UNL d   1     -39.228  13.763  21.886  0.00  0.00     0.107 A 
ENDBRANCH   1  18
TORSDOF 5
ENDMDL
MODEL 6
REMARK VINA RESULT:      -5.2      7.800      9.956
REMARK  5 active torsions:
REMARK  status: ('A' for Active; 'I' for Inactive)
REMARK       I    between atoms: N_2  and  C_1 
REMARK    1  A    between atoms: C_11  and  C_1 
REMARK    2  A    between atoms: C_4  and  N_2 
REMARK    3  A    between atoms: C_3  and  C_4 
REMARK    4  A    between atoms: C_5  and  C_3 
REMARK    5  A    between atoms: N_6  and  C_3 
ROOT
ATOM      1  C   UNL d   1     -39.303  14.705  21.068  0.00  0.00     0.088 C 
ENDROOT
BRANCH   1   2
ATOM      2  C   UNL d   1     -38.839  14.802  20.392  0.00  0.00     0.101 C 
ATOM      3  C   UNL d   1     -38.375  15.473  20.309  0.00  0.00     0.022 C 
BRANCH   2   4
ATOM      4  N   UNL d   1     -38.847  14.222  19.808  0.00  0.00    -0.206 NA
ATOM      5  C   UNL d   1     -38.394  14.323  19.119  0.00  0.00     0.279 C 
ATOM      6  O   UNL d   1     -37.940  15.004  19.027  0.00  0.00    -0.265 OA
BRANCH   5   7
ATOM      7  C   UNL d   1     -38.402  13.742  18.534  0.00  0.00     0.058 A 
ATOM      8  C   UNL d   1     -38.872  13.835  17.854  0.00  0.00     0.005 A 
ATOM      9  C   UNL d   1     -38.872  13.251  17.279  0.00  0.00     0.000 A 
ATOM     10  C   UNL d   1     -38.409  12.568  17.369  0.00  0.00     0.000 A 
ATOM     11  C   UNL d   1     -37.945  12.481  18.044  0.00  0.00     0.000 A 
ATOM     12  C   UNL d   1     -37.940  13.066  18.628  0.00  0.00     0.005 A 
ENDBRANCH   5   7
ENDBRANCH   2   4
ENDBRANCH   1   2
BRANCH   1  13
ATOM     13  C   UNL d   1     -38.964  14.421  21.765  0.00  0.00     0.047 A 
ATOM     14  S   UNL d   1     -38.516  14.856  22.310  0.00  0.00    -0.085 SA
ATOM     15  C   UNL d   1     -38.291  14.351  22.921  0.00  0.00     0.035 A 
ATOM     16  C   UNL d   1     -38.595  13.596  22.767  0.00  0.00     0.007 A 
ATOM     17  C   UNL d   1     -39.015  13.635  22.046  0.00  0.00     0.009 A 
ENDBRANCH   1  13
BRANCH   1  18
ATOM     18  N   UNL d   1     -40.112  14.892  21.051  0.00  0.00    -0.299 N 
ATOM     19  C   UNL d   1     -40.669  14.296  20.993  0.00  0.00     0.107 A 
ATOM     20  C   UNL d   1     -41.474  14.471  20.976  0.00  0.00     0.142 A 
ATOM     21  O   UNL d   1     -41.733  15.263  21.017  0.00  0.00    -0.300 OA
ATOM     22  C   UNL d   1     -41.163  15.867  21.076  0.00  0.00     0.142 A 
ATOM     23  C   UNL d   1     -40.357  15.682  21.092  0.00  0.00     0.107 A 
ENDBRANCH   1  18
TORSDOF 5
ENDMDL
MODEL 7
REMARK VINA RESULT:      -4.4      8.949     10.356
REMARK  5 active torsions:
REMARK  status: ('A' for Active; 'I' for Inactive)
REMARK       I    between atoms: N_2  and  C_1 
REMARK    1  A    between atoms: C_11  and  C_1 
REMARK    2  A    between atoms: C_4  and  N_2 
REMARK    3  A    between atoms: C_3  and  C_4 
REMARK    4  A    between atoms: C_5  and  C_3 
REMARK    5  A    between atoms: N_6  and  C_3 
ROOT
ATOM      1  C   UNL d   1     -39.195  14.775  19.009  0.00  0.00     0.088 C 
ENDROOT
BRANCH   1   2
ATOM      2  C   UNL d   1     -38.785  14.967  19.699  0.00  0.00     0.101 C 
ATOM      3  C   UNL d   1     -38.353  15.663  19.737  0.00  0.00     0.022 C 
BRANCH   2   4
ATOM      4  N   UNL d   1     -38.814  14.456  20.343  0.00  0.00    -0.206 NA
ATOM      5  C   UNL d   1     -38.388  14.636  21.034  0.00  0.00     0.279 C 
ATOM      6  O   UNL d   1     -37.940  15.327  21.066  0.00  0.00    -0.265 OA
BRANCH   5   7
ATOM      7  C   UNL d   1     -38.417  14.124  21.679  0.00  0.00     0.058 A 
ATOM      8  C   UNL d   1     -38.922  14.283  22.321  0.00  0.00     0.005 A 
ATOM      9  C   UNL d   1     -38.943  13.767  22.958  0.00  0.00     0.000 A 
ATOM     10  C   UNL d   1     -38.465  13.088  22.968  0.00  0.00     0.000 A 
ATOM     11  C   UNL d   1     -37.967  12.935  22.330  0.00  0.00     0.000 A 
ATOM     12  C   UNL d   1     -37.941  13.452  21.685  0.00  0.00     0.005 A 
ENDBRANCH   5   7
ENDBRANCH   2   4
ENDBRANCH   1   2
BRANCH   1  13
ATOM     13  C   UNL d   1     -39.954  15.073  18.882  0.00  0.00     0.047 A 
ATOM     14  S   UNL d   1     -40.149  15.778  18.492  0.00  0.00    -0.085 SA
ATOM     15  C   UNL d   1     -40.969  15.856  18.494  0.00  0.00     0.035 A 
ATOM     16  C   UNL d   1     -41.297  15.204  18.884  0.00  0.00     0.007 A 
ATOM     17  C   UNL d   1     -40.667  14.713  19.128  0.00  0.00     0.009 A 
ENDBRANCH   1  13
BRANCH   1  18
ATOM     18  N   UNL d   1     -38.847  14.281  18.439  0.00  0.00    -0.299 N 
ATOM     19  C   UNL d   1     -38.293  14.582  17.918  0.00  0.00     0.107 A 
ATOM     20  C   UNL d   1     -37.943  14.100  17.349  0.00  0.00     0.142 A 
ATOM     21  O   UNL d   1     -38.150  13.294  17.296  0.00  0.00    -0.300 OA
ATOM     22  C   UNL d   1     -38.715  12.990  17.828  0.00  0.00     0.142 A 
ATOM     23  C   UNL d   1     -39.061  13.482  18.396  0.00  0.00     0.107 A 
ENDBRANCH   1  18
TORSDOF 5
ENDMDL
