MODEL 1
REMARK VINA RESULT:      -6.5      0.000      0.000
REMARK  5 active torsions:
REMARK  status: ('A' for Active; 'I' for Inactive)
REMARK    1  A    between atoms: C_16  and  N_5 
REMARK    2  A    between atoms: S_12  and  C_6 
REMARK    3  A    between atoms: C_10  and  C_14 
REMARK       I    between atoms: N_11  and  C_10 
REMARK    4  A    between atoms: C_14  and  S_12 
REMARK    5  A    between atoms: C_18  and  C_16 
ROOT
ATOM      1  C   UNL d   1     -48.765  12.877  23.035  0.00  0.00     0.081 A 
ATOM      2  C   UNL d   1     -48.371  12.175  23.214  0.00  0.00     0.117 A 
ATOM      3  N   UNL d   1     -47.563  12.121  23.132  0.00  0.00    -0.215 NA
ATOM      4  C   UNL d   1     -48.340  13.528  22.773  0.00  0.00     0.268 A 
ATOM      5  N   UNL d   1     -47.527  13.478  22.689  0.00  0.00    -0.253 N 
ATOM      6  C   UNL d   1     -47.108  12.770  22.867  0.00  0.00     0.182 A 
ATOM      7  S   UNL d   1     -48.961  11.611  23.468  0.00  0.00    -0.068 SA
ATOM      8  C   UNL d   1     -49.570  12.744  23.176  0.00  0.00     0.013 A 
ATOM      9  C   UNL d   1     -49.661  11.967  23.439  0.00  0.00     0.031 A 
ATOM     10  O   UNL d   1     -48.703  14.250  22.584  0.00  0.00    -0.267 OA
ATOM     11  C   UNL d   1     -50.231  13.240  23.097  0.00  0.00     0.001 A 
ATOM     12  C   UNL d   1     -50.418  11.691  23.621  0.00  0.00     0.006 A 
ATOM     13  C   UNL d   1     -50.970  12.943  23.284  0.00  0.00     0.000 A 
ATOM     14  C   UNL d   1     -51.064  12.190  23.539  0.00  0.00     0.001 A 
ENDROOT
BRANCH   6  15
ATOM     15  S   UNL d   1     -46.295  12.720  22.784  0.00  0.00    -0.044 SA
BRANCH  15  16
ATOM     16  C   UNL d   1     -45.916  12.003  22.900  0.00  0.00     0.099 C 
BRANCH  16  17
ATOM     17  C   UNL d   1     -45.094  11.959  22.800  0.00  0.00     0.272 C 
ATOM     18  N   UNL d   1     -44.633  11.324  23.056  0.00  0.00    -0.267 N 
ATOM     19  C   UNL d   1     -43.825  11.321  22.937  0.00  0.00     0.110 A 
ATOM     20  C   UNL d   1     -44.988  10.682  23.437  0.00  0.00     0.110 A 
ATOM     21  C   UNL d   1     -43.324  10.687  23.186  0.00  0.00     0.142 A 
ATOM     22  O   UNL d   1     -43.689  10.051  23.566  0.00  0.00    -0.300 OA
ATOM     23  C   UNL d   1     -44.541  10.043  23.697  0.00  0.00     0.142 A 
ATOM     24  O   UNL d   1     -44.788  12.636  22.408  0.00  0.00    -0.266 OA
ENDBRANCH  16  17
ENDBRANCH  15  16
ENDBRANCH   6  15
BRANCH   5  25
ATOM     25  C   UNL d   1     -47.082  14.147  22.419  0.00  0.00     0.085 C 
BRANCH  25  26
ATOM     26  C   UNL d   1     -47.251  14.936  22.673  0.00  0.00     0.019 C 
ATOM     27  C   UNL d   1     -47.092  15.591  22.202  0.00  0.00     0.002 C 
ENDBRANCH  25  26
ENDBRANCH   5  25
TORSDOF 5
ENDMDL
MODEL 2
REMARK VINA RESULT:      -6.2      1.253      4.810
REMARK  5 active torsions:
REMARK  status: ('A' for Active; 'I' for Inactive)
REMARK    1  A    between atoms: C_16  and  N_5 
REMARK    2  A    between atoms: S_12  and  C_6 
REMARK    3  A    between atoms: C_10  and  C_14 
REMARK       I    between atoms: N_11  and  C_10 
REMARK    4  A    between atoms: C_14  and  S_12 
REMARK    5  A    between atoms: C_18  and  C_16 
ROOT
ATOM      1  C   UNL d   1     -45.498  11.794  23.117  0.00  0.00     0.081 A 
ATOM      2  C   UNL d   1     -46.163  11.426  23.437  0.00  0.00     0.117 A 
ATOM      3  N   UNL d   1     -46.879  11.812  23.458  0.00  0.00    -0.215 NA
ATOM      4  C   UNL d   1     -45.557  12.555  22.817  0.00  0.00     0.268 A 
ATOM      5  N   UNL d   1     -46.276  12.947  22.836  0.00  0.00    -0.253 N 
ATOM      6  C   UNL d   1     -46.965  12.587  23.159  0.00  0.00     0.182 A 
ATOM      7  S   UNL d   1     -45.922  10.648  23.698  0.00  0.00    -0.068 SA
ATOM      8  C   UNL d   1     -44.872  11.256  23.182  0.00  0.00     0.013 A 
ATOM      9  C   UNL d   1     -45.157  10.569  23.538  0.00  0.00     0.031 A 
ATOM     10  O   UNL d   1     -44.909  12.955  22.488  0.00  0.00    -0.267 OA
ATOM     11  C   UNL d   1     -44.074  11.312  22.958  0.00  0.00     0.001 A 
ATOM     12  C   UNL d   1     -44.638   9.938  23.668  0.00  0.00     0.006 A 
ATOM     13  C   UNL d   1     -43.581  10.674  23.097  0.00  0.00     0.000 A 
ATOM     14  C   UNL d   1     -43.852  10.005  23.442  0.00  0.00     0.001 A 
ENDROOT
BRANCH   6  15
ATOM     15  S   UNL d   1     -47.684  12.979  23.178  0.00  0.00    -0.044 SA
BRANCH  15  16
ATOM     16  C   UNL d   1     -48.371  12.581  22.975  0.00  0.00     0.099 C 
BRANCH  16  17
ATOM     17  C   UNL d   1     -49.096  12.982  23.012  0.00  0.00     0.272 C 
ATOM     18  N   UNL d   1     -49.691  12.910  22.443  0.00  0.00    -0.267 N 
ATOM     19  C   UNL d   1     -50.390  13.324  22.519  0.00  0.00     0.110 A 
ATOM     20  C   UNL d   1     -49.580  12.417  21.790  0.00  0.00     0.110 A 
ATOM     21  C   UNL d   1     -51.019  13.274  21.955  0.00  0.00     0.142 A 
ATOM     22  O   UNL d   1     -50.898  12.777  21.306  0.00  0.00    -0.300 OA
ATOM     23  C   UNL d   1     -50.163  12.336  21.216  0.00  0.00     0.142 A 
ATOM     24  O   UNL d   1     -49.153  13.467  23.695  0.00  0.00    -0.266 OA
ENDBRANCH  16  17
ENDBRANCH  15  16
ENDBRANCH   6  15
BRANCH   5  25
ATOM     25  C   UNL d   1     -46.343  13.733  22.528  0.00  0.00     0.085 C 
BRANCH  25  26
ATOM     26  C   UNL d   1     -45.993  14.401  22.911  0.00  0.00     0.019 C 
ATOM     27  C   UNL d   1     -46.100  15.169  22.637  0.00  0.00     0.002 C 
ENDBRANCH  25  26
ENDBRANCH   5  25
TORSDOF 5
ENDMDL
MODEL 3
REMARK VINA RESULT:      -5.9      1.522      2.595
REMARK  5 active torsions:
REMARK  status: ('A' for Active; 'I' for Inactive)
REMARK    1  A    between atoms: C_16  and  N_5 
REMARK    2  A    between atoms: S_12  and  C_6 
REMARK    3  A    between atoms: C_10  and  C_14 
REMARK       I    between atoms: N_11  and  C_10 
REMARK    4  A    between atoms: C_14  and  S_12 
REMARK    5  A    between atoms: C_18  and  C_16 
ROOT
ATOM      1  C   UNL d   1     -49.109  13.888  23.001  0.00  0.00     0.081 A 
ATOM      2  C   UNL d   1     -48.364  14.240  22.989  0.00  0.00     0.117 A 
ATOM      3  N   UNL d   1     -47.689  13.785  23.013  0.00  0.00    -0.215 NA
ATOM      4  C   UNL d   1     -49.173  13.071  23.038  0.00  0.00     0.268 A 
ATOM      5  N   UNL d   1     -48.497  12.609  23.062  0.00  0.00    -0.253 N 
ATOM      6  C   UNL d   1     -47.729  12.951  23.051  0.00  0.00     0.182 A 
ATOM      7  S   UNL d   1     -48.484  15.086  22.950  0.00  0.00    -0.068 SA
ATOM      8  C   UNL d   1     -49.665  14.500  22.970  0.00  0.00     0.013 A 
ATOM      9  C   UNL d   1     -49.258  15.217  22.940  0.00  0.00     0.031 A 
ATOM     10  O   UNL d   1     -49.906  12.682  23.052  0.00  0.00    -0.267 OA
ATOM     11  C   UNL d   1     -50.495  14.489  22.966  0.00  0.00     0.001 A 
ATOM     12  C   UNL d   1     -49.689  15.922  22.905  0.00  0.00     0.006 A 
ATOM     13  C   UNL d   1     -50.898  15.199  22.932  0.00  0.00     0.000 A 
ATOM     14  C   UNL d   1     -50.509  15.899  22.902  0.00  0.00     0.001 A 
ENDROOT
BRANCH   6  15
ATOM     15  S   UNL d   1     -47.053  12.489  23.075  0.00  0.00    -0.044 SA
BRANCH  15  16
ATOM     16  C   UNL d   1     -46.329  12.813  22.868  0.00  0.00     0.099 C 
BRANCH  16  17
ATOM     17  C   UNL d   1     -45.638  12.373  22.995  0.00  0.00     0.272 C 
ATOM     18  N   UNL d   1     -44.959  12.439  22.530  0.00  0.00    -0.267 N 
ATOM     19  C   UNL d   1     -44.299  11.986  22.690  0.00  0.00     0.110 A 
ATOM     20  C   UNL d   1     -44.942  12.967  21.895  0.00  0.00     0.110 A 
ATOM     21  C   UNL d   1     -43.588  12.029  22.234  0.00  0.00     0.142 A 
ATOM     22  O   UNL d   1     -43.582  12.560  21.602  0.00  0.00    -0.300 OA
ATOM     23  C   UNL d   1     -44.273  13.043  21.423  0.00  0.00     0.142 A 
ATOM     24  O   UNL d   1     -45.711  11.854  23.651  0.00  0.00    -0.266 OA
ENDBRANCH  16  17
ENDBRANCH  15  16
ENDBRANCH   6  15
BRANCH   5  25
ATOM     25  C   UNL d   1     -48.556  11.764  23.101  0.00  0.00     0.085 C 
BRANCH  25  26
ATOM     26  C   UNL d   1     -49.063  11.370  23.652  0.00  0.00     0.019 C 
ATOM     27  C   UNL d   1     -49.108  10.550  23.697  0.00  0.00     0.002 C 
ENDBRANCH  25  26
ENDBRANCH   5  25
TORSDOF 5
ENDMDL
MODEL 4
REMARK VINA RESULT:      -5.3      7.810      9.739
REMARK  5 active torsions:
REMARK  status: ('A' for Active; 'I' for Inactive)
REMARK    1  A    between atoms: C_16  and  N_5 
REMARK    2  A    between atoms: S_12  and  C_6 
REMARK    3  A    between atoms: C_10  and  C_14 
REMARK       I    between atoms: N_11  and  C_10 
REMARK    4  A    between atoms: C_14  and  S_12 
REMARK    5  A    between atoms: C_18  and  C_16 
ROOT
ATOM      1  C   UNL d   1     -39.322  15.458  18.391  0.00  0.00     0.081 A 
ATOM      2  C   UNL d   1     -38.570  15.427  18.728  0.00  0.00     0.117 A 
ATOM      3  N   UNL d   1     -38.481  15.347  19.534  0.00  0.00    -0.215 NA
ATOM      4  C   UNL d   1     -39.986  15.409  18.869  0.00  0.00     0.268 A 
ATOM      5  N   UNL d   1     -39.901  15.328  19.680  0.00  0.00    -0.253 N 
ATOM      6  C   UNL d   1     -39.142  15.294  20.042  0.00  0.00     0.182 A 
ATOM      7  S   UNL d   1     -38.003  15.492  18.091  0.00  0.00    -0.068 SA
ATOM      8  C   UNL d   1     -39.215  15.540  17.574  0.00  0.00     0.013 A 
ATOM      9  C   UNL d   1     -38.405  15.558  17.419  0.00  0.00     0.031 A 
ATOM     10  O   UNL d   1     -40.757  15.436  18.564  0.00  0.00    -0.267 OA
ATOM     11  C   UNL d   1     -39.762  15.600  16.952  0.00  0.00     0.001 A 
ATOM     12  C   UNL d   1     -38.146  15.637  16.638  0.00  0.00     0.006 A 
ATOM     13  C   UNL d   1     -39.480  15.677  16.188  0.00  0.00     0.000 A 
ATOM     14  C   UNL d   1     -38.695  15.695  16.032  0.00  0.00     0.001 A 
ENDROOT
BRANCH   6  15
ATOM     15  S   UNL d   1     -39.056  15.214  20.852  0.00  0.00    -0.044 SA
BRANCH  15  16
ATOM     16  C   UNL d   1     -38.445  14.759  21.155  0.00  0.00     0.099 C 
BRANCH  16  17
ATOM     17  C   UNL d   1     -38.324  14.741  21.975  0.00  0.00     0.272 C 
ATOM     18  N   UNL d   1     -38.197  14.047  22.405  0.00  0.00    -0.267 N 
ATOM     19  C   UNL d   1     -38.081  14.074  23.213  0.00  0.00     0.110 A 
ATOM     20  C   UNL d   1     -38.186  13.317  22.019  0.00  0.00     0.110 A 
ATOM     21  C   UNL d   1     -37.948  13.384  23.683  0.00  0.00     0.142 A 
ATOM     22  O   UNL d   1     -37.940  12.659  23.287  0.00  0.00    -0.300 OA
ATOM     23  C   UNL d   1     -38.061  12.619  22.434  0.00  0.00     0.142 A 
ATOM     24  O   UNL d   1     -38.345  15.509  22.314  0.00  0.00    -0.266 OA
ENDBRANCH  16  17
ENDBRANCH  15  16
ENDBRANCH   6  15
BRANCH   5  25
ATOM     25  C   UNL d   1     -40.583  15.276  20.180  0.00  0.00     0.085 C 
BRANCH  25  26
ATOM     26  C   UNL d   1     -41.177  15.878  20.199  0.00  0.00     0.019 C 
ATOM     27  C   UNL d   1     -41.737  15.922  20.800  0.00  0.00     0.002 C 
ENDBRANCH  25  26
ENDBRANCH   5  25
TORSDOF 5
ENDMDL
MODEL 5
REMARK VINA RESULT:      -4.1      8.400      9.359
REMARK  5 active torsions:
REMARK  status: ('A' for Active; 'I' for Inactive)
REMARK    1  A    between atoms: C_16  and  N_5 
REMARK    2  A    between atoms: S_12  and  C_6 
REMARK    3  A    between atoms: C_10  and  C_14 
REMARK       I    between atoms: N_11  and  C_10 
REMARK    4  A    between atoms: C_14  and  S_12 
REMARK    5  A    between atoms: C_18  and  C_16 
ROOT
ATOM      1  C   UNL d   1     -39.976  14.791  17.968  0.00  0.00     0.081 A 
ATOM      2  C   UNL d   1     -40.213  15.087  18.701  0.00  0.00     0.117 A 
ATOM      3  N   UNL d   1     -39.800  14.899  19.377  0.00  0.00    -0.215 NA
ATOM      4  C   UNL d   1     -39.320  14.303  17.919  0.00  0.00     0.268 A 
ATOM      5  N   UNL d   1     -38.901  14.110  18.596  0.00  0.00    -0.253 N 
ATOM      6  C   UNL d   1     -39.128  14.403  19.352  0.00  0.00     0.182 A 
ATOM      7  S   UNL d   1     -40.905  15.571  18.567  0.00  0.00    -0.068 SA
ATOM      8  C   UNL d   1     -40.508  15.086  17.407  0.00  0.00     0.013 A 
ATOM      9  C   UNL d   1     -41.062  15.557  17.798  0.00  0.00     0.031 A 
ATOM     10  O   UNL d   1     -39.054  13.987  17.199  0.00  0.00    -0.267 OA
ATOM     11  C   UNL d   1     -40.554  14.982  16.585  0.00  0.00     0.001 A 
ATOM     12  C   UNL d   1     -41.661  15.921  17.360  0.00  0.00     0.006 A 
ATOM     13  C   UNL d   1     -41.156  15.353  16.174  0.00  0.00     0.000 A 
ATOM     14  C   UNL d   1     -41.696  15.811  16.548  0.00  0.00     0.001 A 
ENDROOT
BRANCH   6  15
ATOM     15  S   UNL d   1     -38.709  14.210  20.029  0.00  0.00    -0.044 SA
BRANCH  15  16
ATOM     16  C   UNL d   1     -39.061  14.297  20.764  0.00  0.00     0.099 C 
BRANCH  16  17
ATOM     17  C   UNL d   1     -38.581  14.408  21.431  0.00  0.00     0.272 C 
ATOM     18  N   UNL d   1     -38.697  14.020  22.151  0.00  0.00    -0.267 N 
ATOM     19  C   UNL d   1     -38.200  14.159  22.783  0.00  0.00     0.110 A 
ATOM     20  C   UNL d   1     -39.322  13.486  22.237  0.00  0.00     0.110 A 
ATOM     21  C   UNL d   1     -38.291  13.779  23.533  0.00  0.00     0.142 A 
ATOM     22  O   UNL d   1     -38.918  13.247  23.608  0.00  0.00    -0.300 OA
ATOM     23  C   UNL d   1     -39.449  13.093  22.947  0.00  0.00     0.142 A 
ATOM     24  O   UNL d   1     -37.964  14.960  21.287  0.00  0.00    -0.266 OA
ENDBRANCH  16  17
ENDBRANCH  15  16
ENDBRANCH   6  15
BRANCH   5  25
ATOM     25  C   UNL d   1     -38.222  13.605  18.551  0.00  0.00     0.085 C 
BRANCH  25  26
ATOM     26  C   UNL d   1     -38.279  12.763  18.606  0.00  0.00     0.019 C 
ATOM     27  C   UNL d   1     -37.940  12.264  18.048  0.00  0.00     0.002 C 
ENDBRANCH  25  26
ENDBRANCH   5  25
TORSDOF 5
ENDMDL
MODEL 6
REMARK VINA RESULT:      -3.7      8.533     10.171
REMARK  5 active torsions:
REMARK  status: ('A' for Active; 'I' for Inactive)
REMARK    1  A    between atoms: C_16  and  N_5 
REMARK    2  A    between atoms: S_12  and  C_6 
REMARK    3  A    between atoms: C_10  and  C_14 
REMARK       I    between atoms: N_11  and  C_10 
REMARK    4  A    between atoms: C_14  and  S_12 
REMARK    5  A    between atoms: C_18  and  C_16 
ROOT
ATOM      1  C   UNL d   1     -38.954  14.330  20.772  0.00  0.00     0.081 A 
ATOM      2  C   UNL d   1     -38.407  13.857  20.377  0.00  0.00     0.117 A 
ATOM      3  N   UNL d   1     -38.384  13.841  19.563  0.00  0.00    -0.215 NA
ATOM      4  C   UNL d   1     -39.481  14.789  20.343  0.00  0.00     0.268 A 
ATOM      5  N   UNL d   1     -39.462  14.776  19.524  0.00  0.00    -0.253 N 
ATOM      6  C   UNL d   1     -38.910  14.299  19.104  0.00  0.00     0.182 A 
ATOM      7  S   UNL d   1     -37.944  13.453  20.972  0.00  0.00    -0.068 SA
ATOM      8  C   UNL d   1     -38.829  14.217  21.582  0.00  0.00     0.013 A 
ATOM      9  C   UNL d   1     -38.209  13.680  21.675  0.00  0.00     0.031 A 
ATOM     10  O   UNL d   1     -40.045  15.277  20.707  0.00  0.00    -0.267 OA
ATOM     11  C   UNL d   1     -39.205  14.541  22.247  0.00  0.00     0.001 A 
ATOM     12  C   UNL d   1     -37.971  13.470  22.438  0.00  0.00     0.006 A 
ATOM     13  C   UNL d   1     -38.951  14.317  22.991  0.00  0.00     0.000 A 
ATOM     14  C   UNL d   1     -38.351  13.796  23.088  0.00  0.00     0.001 A 
ENDROOT
BRANCH   6  15
ATOM     15  S   UNL d   1     -38.891  14.286  18.285  0.00  0.00    -0.044 SA
BRANCH  15  16
ATOM     16  C   UNL d   1     -38.171  14.260  17.894  0.00  0.00     0.099 C 
BRANCH  16  17
ATOM     17  C   UNL d   1     -38.129  13.900  17.148  0.00  0.00     0.272 C 
ATOM     18  N   UNL d   1     -38.067  14.319  16.439  0.00  0.00    -0.267 N 
ATOM     19  C   UNL d   1     -38.028  13.924  15.725  0.00  0.00     0.110 A 
ATOM     20  C   UNL d   1     -38.042  15.144  16.447  0.00  0.00     0.110 A 
ATOM     21  C   UNL d   1     -37.964  14.322  14.982  0.00  0.00     0.142 A 
ATOM     22  O   UNL d   1     -37.940  15.147  15.001  0.00  0.00    -0.300 OA
ATOM     23  C   UNL d   1     -37.980  15.574  15.749  0.00  0.00     0.142 A 
ATOM     24  O   UNL d   1     -38.158  13.062  17.200  0.00  0.00    -0.266 OA
ENDBRANCH  16  17
ENDBRANCH  15  16
ENDBRANCH   6  15
BRANCH   5  25
ATOM     25  C   UNL d   1     -40.004  15.248  19.075  0.00  0.00     0.085 C 
BRANCH  25  26
ATOM     26  C   UNL d   1     -40.837  15.102  19.072  0.00  0.00     0.019 C 
ATOM     27  C   UNL d   1     -41.316  15.312  18.438  0.00  0.00     0.002 C 
ENDBRANCH  25  26
ENDBRANCH   5  25
TORSDOF 5
ENDMDL
