MODEL 1
REMARK VINA RESULT:      51.3      0.000      0.000
REMARK  5 active torsions:
REMARK  status: ('A' for Active; 'I' for Inactive)
REMARK    1  A    between atoms: C_6  and  N_1 
REMARK    2  A    between atoms: C_11  and  C_6 
REMARK    3  A    between atoms: C_14  and  C_11 
REMARK    4  A    between atoms: C_12  and  O_13 
REMARK    5  A    between atoms: O_13  and  C_14 
ROOT
ATOM      1  C   UNL d   1     -49.055  27.381  34.025  0.00  0.00     0.238 C 
ATOM      2  O   UNL d   1     -48.576  26.729  34.187  0.00  0.00    -0.283 OA
ENDROOT
BRANCH   1   3
ATOM      3  C   UNL d   1     -49.703  27.306  33.517  0.00  0.00     0.126 C 
BRANCH   3   4
ATOM      4  N   UNL d   1     -50.094  26.576  33.450  0.00  0.00    -0.284 N 
ATOM      5  C   UNL d   1     -49.740  25.836  33.403  0.00  0.00     0.183 A 
ATOM      6  N   UNL d   1     -50.331  25.263  33.343  0.00  0.00    -0.224 NA
ATOM      7  C   UNL d   1     -51.056  25.655  33.353  0.00  0.00     0.099 A 
ATOM      8  C   UNL d   1     -50.915  26.465  33.419  0.00  0.00     0.083 A 
ATOM      9  C   UNL d   1     -51.827  25.377  33.311  0.00  0.00     0.021 A 
ATOM     10  C   UNL d   1     -51.545  26.998  33.443  0.00  0.00     0.019 A 
ATOM     11  C   UNL d   1     -52.319  26.717  33.400  0.00  0.00     0.002 A 
ATOM     12  C   UNL d   1     -52.465  25.902  33.334  0.00  0.00     0.002 A 
ENDBRANCH   3   4
ENDBRANCH   1   3
BRANCH   1  13
ATOM     13  C   UNL d   1     -48.885  28.122  34.376  0.00  0.00     0.166 C 
BRANCH  13  14
ATOM     14  O   UNL d   1     -48.099  28.304  34.615  0.00  0.00    -0.302 OA
BRANCH  14  15
ATOM     15  C   UNL d   1     -47.905  29.048  34.941  0.00  0.00     0.100 A 
ATOM     16  C   UNL d   1     -48.044  29.725  34.514  0.00  0.00     0.025 A 
ATOM     17  C   UNL d   1     -47.850  30.468  34.841  0.00  0.00     0.002 A 
ATOM     18  C   UNL d   1     -47.923  31.228  34.553  0.00  0.00     0.000 A 
ATOM     19  C   UNL d   1     -47.520  30.509  35.591  0.00  0.00     0.000 A 
ATOM     20  C   UNL d   1     -47.638  31.739  35.125  0.00  0.00     0.000 A 
ATOM     21  C   UNL d   1     -47.390  31.297  35.765  0.00  0.00     0.000 A 
ATOM     22  C   UNL d   1     -47.382  29.806  36.019  0.00  0.00     0.002 A 
ATOM     23  C   UNL d   1     -47.575  29.088  35.692  0.00  0.00     0.025 A 
ENDBRANCH  14  15
ENDBRANCH  13  14
ENDBRANCH   1  13
TORSDOF 5
ENDMDL
MODEL 2
REMARK VINA RESULT:      53.5      1.318      5.435
REMARK  5 active torsions:
REMARK  status: ('A' for Active; 'I' for Inactive)
REMARK    1  A    between atoms: C_6  and  N_1 
REMARK    2  A    between atoms: C_11  and  C_6 
REMARK    3  A    between atoms: C_14  and  C_11 
REMARK    4  A    between atoms: C_12  and  O_13 
REMARK    5  A    between atoms: O_13  and  C_14 
ROOT
ATOM      1  C   UNL d   1     -48.581  27.671  34.220  0.00  0.00     0.238 C 
ATOM      2  O   UNL d   1     -47.801  27.479  34.032  0.00  0.00    -0.283 OA
ENDROOT
BRANCH   1   3
ATOM      3  C   UNL d   1     -48.774  28.435  34.470  0.00  0.00     0.126 C 
BRANCH   3   4
ATOM      4  N   UNL d   1     -48.442  28.737  35.170  0.00  0.00    -0.284 N 
ATOM      5  C   UNL d   1     -48.516  28.417  35.923  0.00  0.00     0.183 A 
ATOM      6  N   UNL d   1     -48.100  28.892  36.454  0.00  0.00    -0.224 NA
ATOM      7  C   UNL d   1     -47.767  29.511  36.024  0.00  0.00     0.099 A 
ATOM      8  C   UNL d   1     -47.975  29.419  35.231  0.00  0.00     0.083 A 
ATOM      9  C   UNL d   1     -47.301  30.145  36.253  0.00  0.00     0.021 A 
ATOM     10  C   UNL d   1     -47.717  29.964  34.666  0.00  0.00     0.019 A 
ATOM     11  C   UNL d   1     -47.248  30.602  34.899  0.00  0.00     0.002 A 
ATOM     12  C   UNL d   1     -47.037  30.696  35.696  0.00  0.00     0.002 A 
ENDBRANCH   3   4
ENDBRANCH   1   3
BRANCH   1  13
ATOM     13  C   UNL d   1     -49.181  27.090  34.159  0.00  0.00     0.166 C 
BRANCH  13  14
ATOM     14  O   UNL d   1     -49.717  27.107  33.509  0.00  0.00    -0.302 OA
BRANCH  14  15
ATOM     15  C   UNL d   1     -50.355  26.570  33.458  0.00  0.00     0.100 A 
ATOM     16  C   UNL d   1     -50.209  25.771  33.436  0.00  0.00     0.025 A 
ATOM     17  C   UNL d   1     -50.846  25.234  33.385  0.00  0.00     0.002 A 
ATOM     18  C   UNL d   1     -50.874  24.420  33.354  0.00  0.00     0.000 A 
ATOM     19  C   UNL d   1     -51.616  25.519  33.358  0.00  0.00     0.000 A 
ATOM     20  C   UNL d   1     -51.661  24.199  33.307  0.00  0.00     0.000 A 
ATOM     21  C   UNL d   1     -52.119  24.875  33.310  0.00  0.00     0.000 A 
ATOM     22  C   UNL d   1     -51.752  26.341  33.382  0.00  0.00     0.002 A 
ATOM     23  C   UNL d   1     -51.124  26.854  33.432  0.00  0.00     0.025 A 
ENDBRANCH  14  15
ENDBRANCH  13  14
ENDBRANCH   1  13
TORSDOF 5
ENDMDL
