MODEL 1
REMARK VINA RESULT:      14.4      0.000      0.000
REMARK  1 active torsions:
REMARK  status: ('A' for Active; 'I' for Inactive)
REMARK    1  A    between atoms: C_10  and  C_7 
ROOT
ATOM      1  N   UNL d   1      45.326 -14.753  36.982  0.00  0.00    -0.259 N 
ATOM      2  C   UNL d   1      45.598 -15.422  36.555  0.00  0.00     0.202 A 
ATOM      3  C   UNL d   1      45.980 -14.333  37.194  0.00  0.00     0.227 A 
ATOM      4  C   UNL d   1      44.546 -14.795  37.008  0.00  0.00     0.091 A 
ATOM      5  S   UNL d   1      44.969 -15.859  36.330  0.00  0.00    -0.047 SA
ATOM      6  N   UNL d   1      46.413 -15.385  36.523  0.00  0.00    -0.121 NA
ATOM      7  C   UNL d   1      44.312 -15.464  36.615  0.00  0.00     0.050 A 
ATOM      8  N   UNL d   1      46.647 -14.691  36.931  0.00  0.00    -0.116 NA
ATOM      9  S   UNL d   1      45.945 -13.595  37.647  0.00  0.00    -0.036 SA
ENDROOT
BRANCH   7  10
ATOM     10  C   UNL d   1      43.532 -15.658  36.549  0.00  0.00     0.007 A 
ATOM     11  C   UNL d   1      43.338 -16.450  36.405  0.00  0.00     0.001 A 
ATOM     12  C   UNL d   1      42.551 -16.687  36.331  0.00  0.00     0.000 A 
ATOM     13  C   UNL d   1      41.961 -16.088  36.408  0.00  0.00     0.000 A 
ATOM     14  C   UNL d   1      42.146 -15.301  36.551  0.00  0.00     0.000 A 
ATOM     15  C   UNL d   1      41.092 -16.249  36.343  0.00  0.00     0.000 C 
ATOM     16  C   UNL d   1      42.937 -15.080  36.622  0.00  0.00     0.001 A 
ENDBRANCH   7  10
TORSDOF 1
ENDMDL
