MODEL 1
REMARK VINA RESULT:       6.4      0.000      0.000
REMARK  0 active torsions:
REMARK  status: ('A' for Active; 'I' for Inactive)
ROOT
ATOM      1  C   UNL d   1     -50.887  25.504  33.308  0.00  0.00     0.110 A 
ATOM      2  C   UNL d   1     -50.417  24.826  33.308  0.00  0.00     0.110 A 
ATOM      3  C   UNL d   1     -51.715  25.443  33.311  0.00  0.00     0.207 A 
ATOM      4  C   UNL d   1     -50.774  24.087  33.310  0.00  0.00     0.207 A 
ATOM      5  C   UNL d   1     -52.051  24.697  33.313  0.00  0.00     0.043 A 
ATOM      6  C   UNL d   1     -51.581  24.019  33.313  0.00  0.00     0.043 A 
ATOM      7  O   UNL d   1     -52.180  26.113  33.311  0.00  0.00    -0.286 OA
ATOM      8  O   UNL d   1     -50.308  23.406  33.310  0.00  0.00    -0.286 OA
ATOM      9 CL   UNL d   1     -49.603  24.899  33.306  0.00  0.00    -0.078 Cl
ATOM     10 CL   UNL d   1     -50.535  26.250  33.306  0.00  0.00    -0.078 Cl
ATOM     11  C   UNL d   1     -52.878  24.636  33.315  0.00  0.00     0.003 A 
ATOM     12  C   UNL d   1     -51.957  23.283  33.315  0.00  0.00     0.003 A 
ATOM     13  C   UNL d   1     -53.233  23.893  33.317  0.00  0.00     0.000 A 
ATOM     14  C   UNL d   1     -52.767  23.196  33.317  0.00  0.00     0.000 A 
ENDROOT
TORSDOF 0
ENDMDL
MODEL 2
REMARK VINA RESULT:       9.0      1.316      2.289
REMARK  0 active torsions:
REMARK  status: ('A' for Active; 'I' for Inactive)
ROOT
ATOM      1  C   UNL d   1     -52.026  24.288  33.341  0.00  0.00     0.110 A 
ATOM      2  C   UNL d   1     -51.243  24.027  33.334  0.00  0.00     0.110 A 
ATOM      3  C   UNL d   1     -52.199  25.099  33.340  0.00  0.00     0.207 A 
ATOM      4  C   UNL d   1     -50.634  24.577  33.326  0.00  0.00     0.207 A 
ATOM      5  C   UNL d   1     -51.578  25.631  33.331  0.00  0.00     0.043 A 
ATOM      6  C   UNL d   1     -50.795  25.370  33.324  0.00  0.00     0.043 A 
ATOM      7  O   UNL d   1     -52.973  25.358  33.346  0.00  0.00    -0.286 OA
ATOM      8  O   UNL d   1     -49.850  24.321  33.319  0.00  0.00    -0.286 OA
ATOM      9 CL   UNL d   1     -51.085  23.225  33.336  0.00  0.00    -0.078 Cl
ATOM     10 CL   UNL d   1     -52.643  23.740  33.350  0.00  0.00    -0.078 Cl
ATOM     11  C   UNL d   1     -51.751  26.443  33.329  0.00  0.00     0.003 A 
ATOM     12  C   UNL d   1     -50.195  25.938  33.315  0.00  0.00     0.003 A 
ATOM     13  C   UNL d   1     -51.138  26.992  33.320  0.00  0.00     0.000 A 
ATOM     14  C   UNL d   1     -50.339  26.740  33.313  0.00  0.00     0.000 A 
ENDROOT
TORSDOF 0
ENDMDL
