MODEL 1
REMARK VINA RESULT:      26.8      0.000      0.000
REMARK  5 active torsions:
REMARK  status: ('A' for Active; 'I' for Inactive)
REMARK    1  A    between atoms: C_6  and  C_1 
REMARK    2  A    between atoms: C_8  and  N_3 
REMARK    3  A    between atoms: C_7  and  C_6 
REMARK    4  A    between atoms: C_9  and  C_7 
REMARK    5  A    between atoms: C_14  and  C_8 
ROOT
ATOM      1  C   UNL d   1     -51.824  24.792  33.478  0.00  0.00     0.148 A 
ATOM      2  N   UNL d   1     -52.348  25.539  33.537  0.00  0.00    -0.227 NA
ATOM      3  N   UNL d   1     -50.965  25.088  33.388  0.00  0.00    -0.289 N 
ATOM      4  C   UNL d   1     -50.952  26.008  33.389  0.00  0.00     0.083 A 
ATOM      5  C   UNL d   1     -51.823  26.292  33.483  0.00  0.00     0.099 A 
ATOM      6  C   UNL d   1     -50.271  26.621  33.319  0.00  0.00     0.019 A 
ATOM      7  C   UNL d   1     -51.994  27.183  33.504  0.00  0.00     0.021 A 
ATOM      8  C   UNL d   1     -50.468  27.506  33.343  0.00  0.00     0.002 A 
ATOM      9  C   UNL d   1     -51.339  27.790  33.436  0.00  0.00     0.002 A 
ENDROOT
BRANCH   1  10
ATOM     10  C   UNL d   1     -51.682  24.024  33.461  0.00  0.00     0.037 C 
BRANCH  10  11
ATOM     11  C   UNL d   1     -52.250  23.458  33.330  0.00  0.00     0.003 C 
BRANCH  11  12
ATOM     12  C   UNL d   1     -52.928  23.393  33.775  0.00  0.00     0.000 A 
ATOM     13  C   UNL d   1     -52.911  23.458  34.585  0.00  0.00     0.000 A 
ATOM     14  C   UNL d   1     -53.589  23.392  35.030  0.00  0.00     0.000 A 
ATOM     15  C   UNL d   1     -54.309  23.256  34.651  0.00  0.00     0.000 A 
ATOM     16  C   UNL d   1     -54.336  23.189  33.835  0.00  0.00     0.000 A 
ATOM     17  C   UNL d   1     -53.648  23.257  33.396  0.00  0.00     0.000 A 
ENDBRANCH  11  12
ENDBRANCH  10  11
ENDBRANCH   1  10
BRANCH   3  18
ATOM     18  C   UNL d   1     -50.190  25.272  33.306  0.00  0.00     0.082 C 
BRANCH  18  19
ATOM     19  C   UNL d   1     -49.634  24.658  33.308  0.00  0.00     0.019 C 
ATOM     20  C   UNL d   1     -49.837  23.930  33.632  0.00  0.00     0.002 C 
ENDBRANCH  18  19
ENDBRANCH   3  18
TORSDOF 5
ENDMDL
