MODEL 1
REMARK VINA RESULT:      93.9      0.000      0.000
REMARK  6 active torsions:
REMARK  status: ('A' for Active; 'I' for Inactive)
REMARK    1  A    between atoms: N_2  and  S_1 
REMARK    2  A    between atoms: C_6  and  S_1 
REMARK    3  A    between atoms: C_3  and  N_10 
REMARK    4  A    between atoms: C_7  and  C_5 
REMARK       I    between atoms: N_10  and  C_7 
REMARK    5  A    between atoms: C_15  and  C_8 
REMARK    6  A    between atoms: O_27  and  C_24 
ROOT
ATOM      1  C   UNL d   1      60.856  47.941  50.999  0.00  0.00     0.299 C 
ATOM      2  N   UNL d   1      61.565  47.644  50.697  0.00  0.00    -0.164 NA
ATOM      3  O   UNL d   1      60.141  47.605  50.762  0.00  0.00    -0.263 OA
ENDROOT
BRANCH   1   4
ATOM      4  C   UNL d   1      60.862  48.562  51.527  0.00  0.00     0.133 A 
ATOM      5  N   UNL d   1      60.347  49.214  51.517  0.00  0.00    -0.226 N 
ATOM      6  C   UNL d   1      60.555  49.708  52.157  0.00  0.00     0.092 A 
ATOM      7  C   UNL d   1      61.186  49.360  52.548  0.00  0.00     0.021 A 
ATOM      8  C   UNL d   1      61.378  48.655  52.164  0.00  0.00     0.025 A 
BRANCH   5   9
ATOM      9  S   UNL d   1      59.740  49.350  50.974  0.00  0.00     0.277 S 
ATOM     10  O   UNL d   1      60.266  49.708  50.444  0.00  0.00    -0.199 OA
ATOM     11  O   UNL d   1      59.223  48.994  51.504  0.00  0.00    -0.199 OA
BRANCH   9  12
ATOM     12  C   UNL d   1      59.110  49.467  50.460  0.00  0.00     0.133 A 
ATOM     13  S   UNL d   1      59.162  49.630  49.655  0.00  0.00    -0.074 SA
ATOM     14  C   UNL d   1      58.396  49.706  49.357  0.00  0.00     0.036 A 
ATOM     15  C   UNL d   1      57.870  49.588  49.984  0.00  0.00     0.008 A 
ATOM     16  C   UNL d   1      58.311  49.441  50.665  0.00  0.00     0.020 A 
ENDBRANCH   9  12
ENDBRANCH   5   9
ENDBRANCH   1   4
BRANCH   2  17
ATOM     17  C   UNL d   1      61.560  47.015  50.162  0.00  0.00     0.297 A 
ATOM     18  O   UNL d   1      61.777  46.239  50.333  0.00  0.00    -0.253 OA
ATOM     19  C   UNL d   1      61.691  45.790  49.644  0.00  0.00     0.206 A 
ATOM     20  N   UNL d   1      61.422  46.291  49.048  0.00  0.00    -0.119 NA
ATOM     21  N   UNL d   1      61.341  47.052  49.372  0.00  0.00    -0.101 NA
BRANCH  19  22
ATOM     22  C   UNL d   1      61.847  44.995  49.571  0.00  0.00     0.043 A 
ATOM     23  C   UNL d   1      61.396  44.439  49.982  0.00  0.00     0.006 A 
ATOM     24  C   UNL d   1      61.563  43.628  49.900  0.00  0.00     0.024 A 
ATOM     25  C   UNL d   1      62.174  43.380  49.412  0.00  0.00     0.094 A 
ATOM     26  C   UNL d   1      62.622  43.938  49.003  0.00  0.00     0.024 A 
ATOM     27  C   UNL d   1      62.464  44.737  49.078  0.00  0.00     0.006 A 
BRANCH  25  28
ATOM     28  O   UNL d   1      62.339  42.579  49.331  0.00  0.00    -0.328 OA
ATOM     29  C   UNL d   1      62.851  42.204  49.865  0.00  0.00     0.181 C 
ENDBRANCH  25  28
ENDBRANCH  19  22
ENDBRANCH   2  17
TORSDOF 6
ENDMDL
