MODEL 1
REMARK VINA RESULT:      -5.3      0.000      0.000
REMARK  4 active torsions:
REMARK  status: ('A' for Active; 'I' for Inactive)
REMARK    1  A    between atoms: C_14  and  C_2 
REMARK    2  A    between atoms: C_4  and  C_5 
REMARK    3  A    between atoms: C_5  and  O_9 
REMARK    4  A    between atoms: O_9  and  C_14 
ROOT
ATOM      1  N   UNL d   1      56.976  -0.861  31.422  0.00  0.00    -0.236 NA
ATOM      2  C   UNL d   1      57.258  -0.141  31.160  0.00  0.00     0.136 A 
ATOM      3  S   UNL d   1      56.981   0.453  31.677  0.00  0.00    -0.064 SA
ATOM      4  C   UNL d   1      56.522  -0.722  32.100  0.00  0.00     0.088 A 
ATOM      5  C   UNL d   1      56.524   0.081  32.257  0.00  0.00     0.049 A 
ATOM      6  C   UNL d   1      56.106  -1.237  32.593  0.00  0.00     0.020 A 
ATOM      7  C   UNL d   1      56.108   0.370  32.912  0.00  0.00     0.008 A 
ATOM      8  C   UNL d   1      55.688  -0.144  33.411  0.00  0.00     0.001 A 
ATOM      9  C   UNL d   1      55.687  -0.947  33.252  0.00  0.00     0.002 A 
ENDROOT
BRANCH   2  10
ATOM     10  C   UNL d   1      57.731   0.009  30.513  0.00  0.00     0.152 C 
BRANCH  10  11
ATOM     11  O   UNL d   1      58.087  -0.646  30.132  0.00  0.00    -0.269 OA
BRANCH  11  12
ATOM     12  C   UNL d   1      58.465  -0.541  29.387  0.00  0.00     0.306 C 
ATOM     13  O   UNL d   1      58.231   0.083  28.893  0.00  0.00    -0.258 OA
BRANCH  12  14
ATOM     14  C   UNL d   1      59.084  -1.067  29.136  0.00  0.00     0.093 A 
ATOM     15  S   UNL d   1      59.901  -0.989  29.157  0.00  0.00    -0.081 SA
ATOM     16  C   UNL d   1      60.217  -1.682  28.834  0.00  0.00     0.036 A 
ATOM     17  C   UNL d   1      59.607  -2.168  28.623  0.00  0.00     0.008 A 
ATOM     18  C   UNL d   1      58.899  -1.794  28.807  0.00  0.00     0.012 A 
ENDBRANCH  12  14
ENDBRANCH  11  12
ENDBRANCH  10  11
ENDBRANCH   2  10
TORSDOF 4
ENDMDL
MODEL 2
REMARK VINA RESULT:      -4.3      0.978      4.412
REMARK  4 active torsions:
REMARK  status: ('A' for Active; 'I' for Inactive)
REMARK    1  A    between atoms: C_14  and  C_2 
REMARK    2  A    between atoms: C_4  and  C_5 
REMARK    3  A    between atoms: C_5  and  O_9 
REMARK    4  A    between atoms: O_9  and  C_14 
ROOT
ATOM      1  N   UNL d   1      58.202  -1.710  29.753  0.00  0.00    -0.236 NA
ATOM      2  C   UNL d   1      58.342  -0.912  29.852  0.00  0.00     0.136 A 
ATOM      3  S   UNL d   1      59.064  -0.724  29.479  0.00  0.00    -0.064 SA
ATOM      4  C   UNL d   1      58.834  -2.025  29.320  0.00  0.00     0.088 A 
ATOM      5  C   UNL d   1      59.362  -1.423  29.151  0.00  0.00     0.049 A 
ATOM      6  C   UNL d   1      58.988  -2.793  29.060  0.00  0.00     0.020 A 
ATOM      7  C   UNL d   1      60.048  -1.590  28.720  0.00  0.00     0.008 A 
ATOM      8  C   UNL d   1      60.208  -2.361  28.456  0.00  0.00     0.001 A 
ATOM      9  C   UNL d   1      59.678  -2.962  28.626  0.00  0.00     0.002 A 
ENDROOT
BRANCH   2  10
ATOM     10  C   UNL d   1      57.878  -0.365  30.240  0.00  0.00     0.152 C 
BRANCH  10  11
ATOM     11  O   UNL d   1      57.487  -0.612  30.937  0.00  0.00    -0.269 OA
BRANCH  11  12
ATOM     12  C   UNL d   1      57.005  -0.067  31.361  0.00  0.00     0.306 C 
ATOM     13  O   UNL d   1      56.853   0.682  31.040  0.00  0.00    -0.258 OA
BRANCH  12  14
ATOM     14  C   UNL d   1      56.673  -0.276  32.116  0.00  0.00     0.093 A 
ATOM     15  S   UNL d   1      56.663   0.126  32.831  0.00  0.00    -0.081 SA
ATOM     16  C   UNL d   1      56.258  -0.354  33.370  0.00  0.00     0.036 A 
ATOM     17  C   UNL d   1      56.030  -1.029  32.991  0.00  0.00     0.008 A 
ATOM     18  C   UNL d   1      56.283  -0.990  32.211  0.00  0.00     0.012 A 
ENDBRANCH  12  14
ENDBRANCH  11  12
ENDBRANCH  10  11
ENDBRANCH   2  10
TORSDOF 4
ENDMDL
MODEL 3
REMARK VINA RESULT:      -4.1      1.393      4.500
REMARK  4 active torsions:
REMARK  status: ('A' for Active; 'I' for Inactive)
REMARK    1  A    between atoms: C_14  and  C_2 
REMARK    2  A    between atoms: C_4  and  C_5 
REMARK    3  A    between atoms: C_5  and  O_9 
REMARK    4  A    between atoms: O_9  and  C_14 
ROOT
ATOM      1  N   UNL d   1      57.942  -0.273  30.286  0.00  0.00    -0.236 NA
ATOM      2  C   UNL d   1      58.228   0.307  30.784  0.00  0.00     0.136 A 
ATOM      3  S   UNL d   1      58.952   0.585  30.474  0.00  0.00    -0.064 SA
ATOM      4  C   UNL d   1      58.482  -0.360  29.664  0.00  0.00     0.088 A 
ATOM      5  C   UNL d   1      59.100   0.164  29.778  0.00  0.00     0.049 A 
ATOM      6  C   UNL d   1      58.480  -0.859  29.007  0.00  0.00     0.020 A 
ATOM      7  C   UNL d   1      59.720   0.189  29.230  0.00  0.00     0.008 A 
ATOM      8  C   UNL d   1      59.724  -0.311  28.567  0.00  0.00     0.001 A 
ATOM      9  C   UNL d   1      59.104  -0.835  28.455  0.00  0.00     0.002 A 
ENDROOT
BRANCH   2  10
ATOM     10  C   UNL d   1      57.894   0.590  31.471  0.00  0.00     0.152 C 
BRANCH  10  11
ATOM     11  O   UNL d   1      57.294   0.128  31.830  0.00  0.00    -0.269 OA
BRANCH  11  12
ATOM     12  C   UNL d   1      57.082   0.270  32.632  0.00  0.00     0.306 C 
ATOM     13  O   UNL d   1      57.604   0.682  33.128  0.00  0.00    -0.258 OA
BRANCH  12  14
ATOM     14  C   UNL d   1      56.338  -0.004  32.940  0.00  0.00     0.093 A 
ATOM     15  S   UNL d   1      55.697   0.404  33.247  0.00  0.00    -0.081 SA
ATOM     16  C   UNL d   1      55.131  -0.160  33.459  0.00  0.00     0.036 A 
ATOM     17  C   UNL d   1      55.423  -0.893  33.285  0.00  0.00     0.008 A 
ATOM     18  C   UNL d   1      56.173  -0.806  32.962  0.00  0.00     0.012 A 
ENDBRANCH  12  14
ENDBRANCH  11  12
ENDBRANCH  10  11
ENDBRANCH   2  10
TORSDOF 4
ENDMDL
MODEL 4
REMARK VINA RESULT:      -3.2      8.955      9.859
REMARK  4 active torsions:
REMARK  status: ('A' for Active; 'I' for Inactive)
REMARK    1  A    between atoms: C_14  and  C_2 
REMARK    2  A    between atoms: C_4  and  C_5 
REMARK    3  A    between atoms: C_5  and  O_9 
REMARK    4  A    between atoms: O_9  and  C_14 
ROOT
ATOM      1  N   UNL d   1      59.422  -9.816  32.335  0.00  0.00    -0.236 NA
ATOM      2  C   UNL d   1      59.037  -9.817  33.054  0.00  0.00     0.136 A 
ATOM      3  S   UNL d   1      58.215  -9.817  32.912  0.00  0.00    -0.064 SA
ATOM      4  C   UNL d   1      58.846  -9.816  31.741  0.00  0.00     0.088 A 
ATOM      5  C   UNL d   1      58.107  -9.816  32.092  0.00  0.00     0.049 A 
ATOM      6  C   UNL d   1      58.911  -9.815  30.918  0.00  0.00     0.020 A 
ATOM      7  C   UNL d   1      57.429  -9.816  31.617  0.00  0.00     0.008 A 
ATOM      8  C   UNL d   1      57.489  -9.815  30.789  0.00  0.00     0.001 A 
ATOM      9  C   UNL d   1      58.230  -9.814  30.439  0.00  0.00     0.002 A 
ENDROOT
BRANCH   2  10
ATOM     10  C   UNL d   1      59.365  -9.818  33.801  0.00  0.00     0.152 C 
BRANCH  10  11
ATOM     11  O   UNL d   1      59.573  -9.078  34.134  0.00  0.00    -0.269 OA
BRANCH  11  12
ATOM     12  C   UNL d   1      59.925  -9.050  34.899  0.00  0.00     0.306 C 
ATOM     13  O   UNL d   1      60.285  -9.729  35.211  0.00  0.00    -0.258 OA
BRANCH  12  14
ATOM     14  C   UNL d   1      59.915  -8.332  35.355  0.00  0.00     0.093 A 
ATOM     15  S   UNL d   1      59.318  -7.979  35.793  0.00  0.00    -0.081 SA
ATOM     16  C   UNL d   1      59.635  -7.286  36.116  0.00  0.00     0.036 A 
ATOM     17  C   UNL d   1      60.404  -7.221  35.879  0.00  0.00     0.008 A 
ATOM     18  C   UNL d   1      60.588  -7.867  35.406  0.00  0.00     0.012 A 
ENDBRANCH  12  14
ENDBRANCH  11  12
ENDBRANCH  10  11
ENDBRANCH   2  10
TORSDOF 4
ENDMDL
