MODEL 1
REMARK VINA RESULT:      76.2      0.000      0.000
REMARK  2 active torsions:
REMARK  status: ('A' for Active; 'I' for Inactive)
REMARK    1  A    between atoms: N_7  and  C_3 
REMARK    2  A    between atoms: C_15  and  C_5 
ROOT
ATOM      1  N   UNL d   1      58.942  49.292  50.529  0.00  0.00    -0.196 N 
ATOM      2  C   UNL d   1      59.542  49.280  51.119  0.00  0.00     0.167 A 
ATOM      3  C   UNL d   1      58.149  49.406  50.751  0.00  0.00     0.153 A 
ATOM      4  N   UNL d   1      59.927  49.078  49.521  0.00  0.00    -0.163 NA
ATOM      5  C   UNL d   1      60.316  49.169  50.903  0.00  0.00     0.055 A 
ATOM      6  N   UNL d   1      59.330  49.383  51.911  0.00  0.00    -0.227 NA
ATOM      7  C   UNL d   1      57.956  49.506  51.537  0.00  0.00     0.052 A 
ATOM      8  C   UNL d   1      60.518  49.067  50.102  0.00  0.00     0.104 A 
ATOM      9  C   UNL d   1      58.551  49.496  52.132  0.00  0.00     0.086 A 
ATOM     10  C   UNL d   1      57.246  49.626  51.916  0.00  0.00     0.005 A 
ATOM     11  C   UNL d   1      61.304  48.955  49.893  0.00  0.00     0.023 C 
ATOM     12  C   UNL d   1      58.192  49.609  52.864  0.00  0.00     0.019 A 
ATOM     13  C   UNL d   1      57.374  49.691  52.725  0.00  0.00     0.002 A 
ENDROOT
BRANCH   3  14
ATOM     14  N   UNL d   1      57.540  49.419  50.158  0.00  0.00    -0.274 N 
ATOM     15  C   UNL d   1      56.728  49.286  49.976  0.00  0.00     0.149 A 
ATOM     16  N   UNL d   1      56.613  49.462  49.156  0.00  0.00    -0.225 NA
ATOM     17  C   UNL d   1      56.143  49.026  50.512  0.00  0.00     0.041 C 
ATOM     18  C   UNL d   1      57.360  49.703  48.843  0.00  0.00     0.120 A 
ATOM     19  C   UNL d   1      57.926  49.677  49.450  0.00  0.00     0.104 A 
ENDBRANCH   3  14
BRANCH   5  20
ATOM     20  C   UNL d   1      60.904  49.158  51.481  0.00  0.00     0.004 A 
ATOM     21  C   UNL d   1      61.507  48.596  51.448  0.00  0.00     0.000 A 
ATOM     22  C   UNL d   1      62.094  48.581  52.020  0.00  0.00     0.000 A 
ATOM     23  C   UNL d   1      62.081  49.134  52.637  0.00  0.00     0.000 A 
ATOM     24  C   UNL d   1      61.490  49.692  52.677  0.00  0.00     0.000 A 
ATOM     25  C   UNL d   1      60.895  49.704  52.093  0.00  0.00     0.000 A 
ENDBRANCH   5  20
TORSDOF 2
ENDMDL
