MODEL 1
REMARK VINA RESULT:     -13.6      0.000      0.000
REMARK  3 active torsions:
REMARK  status: ('A' for Active; 'I' for Inactive)
REMARK    1  A    between atoms: C_7  and  C_1 
REMARK    2  A    between atoms: C_6  and  C_2 
REMARK    3  A    between atoms: C_3  and  C_6 
REMARK       I    between atoms: N_4  and  C_3 
ROOT
ATOM      1  C   UNL d   1      53.311  34.182  54.244  0.00  0.00     0.038 A 
ATOM      2  C   UNL d   1      53.761  32.930  53.969  0.00  0.00     0.043 A 
ATOM      3  C   UNL d   1      53.133  33.514  53.797  0.00  0.00     0.016 A 
ATOM      4  C   UNL d   1      53.043  34.950  54.419  0.00  0.00    -0.023 A 
ATOM      5  C   UNL d   1      54.020  34.074  54.703  0.00  0.00     0.013 A 
ATOM      6  C   UNL d   1      53.681  34.266  54.551  0.00  0.00    -0.012 A 
ATOM      7  C   UNL d   1      54.636  33.469  54.857  0.00  0.00     0.023 A 
ATOM      8  C   UNL d   1      54.451  32.814  54.410  0.00  0.00     0.013 A 
ATOM      9  C   UNL d   1      53.529  33.647  54.146  0.00  0.00    -0.023 A 
ATOM     10  C   UNL d   1      54.345  34.172  54.984  0.00  0.00    -0.027 A 
ENDROOT
BRANCH   2  11
ATOM     11  C   UNL d   1      53.843  32.166  53.663  0.00  0.00     0.038 C 
BRANCH  11  12
ATOM     12  C   UNL d   1      53.641  31.512  54.124  0.00  0.00     0.261 C 
ATOM     13  N   UNL d   1      53.357  30.826  53.761  0.00  0.00    -0.268 N 
ATOM     14  C   UNL d   1      53.155  30.172  54.222  0.00  0.00     0.110 A 
ATOM     15  C   UNL d   1      53.276  30.799  52.936  0.00  0.00     0.110 A 
ATOM     16  C   UNL d   1      52.872  29.487  53.864  0.00  0.00     0.142 A 
ATOM     17  O   UNL d   1      52.788  29.450  53.043  0.00  0.00    -0.300 OA
ATOM     18  C   UNL d   1      52.990  30.104  52.582  0.00  0.00     0.142 A 
ATOM     19  O   UNL d   1      53.723  31.546  54.944  0.00  0.00    -0.267 OA
ENDBRANCH  11  12
ENDBRANCH   2  11
BRANCH   1  20
ATOM     20  C   UNL d   1      52.641  34.172  53.758  0.00  0.00    -0.019 A 
ATOM     21  C   UNL d   1      52.714  34.405  52.973  0.00  0.00    -0.004 A 
ATOM     22  C   UNL d   1      52.054  34.398  52.484  0.00  0.00    -0.000 A 
ATOM     23  C   UNL d   1      51.329  34.162  52.777  0.00  0.00    -0.000 A 
ATOM     24  C   UNL d   1      51.257  33.926  53.572  0.00  0.00    -0.000 A 
ATOM     25  C   UNL d   1      50.658  34.151  52.293  0.00  0.00    -0.000 C 
ATOM     26  C   UNL d   1      51.923  33.935  54.056  0.00  0.00    -0.004 A 
ENDBRANCH   1  20
TORSDOF 3
ENDMDL
MODEL 2
REMARK VINA RESULT:     -12.6      1.588      3.304
REMARK  3 active torsions:
REMARK  status: ('A' for Active; 'I' for Inactive)
REMARK    1  A    between atoms: C_7  and  C_1 
REMARK    2  A    between atoms: C_6  and  C_2 
REMARK    3  A    between atoms: C_3  and  C_6 
REMARK       I    between atoms: N_4  and  C_3 
ROOT
ATOM      1  C   UNL d   1      54.050  32.940  54.573  0.00  0.00     0.038 A 
ATOM      2  C   UNL d   1      53.266  33.798  53.870  0.00  0.00     0.043 A 
ATOM      3  C   UNL d   1      53.505  32.961  53.957  0.00  0.00     0.016 A 
ATOM      4  C   UNL d   1      54.533  32.421  55.009  0.00  0.00    -0.023 A 
ATOM      5  C   UNL d   1      54.186  33.713  54.901  0.00  0.00     0.013 A 
ATOM      6  C   UNL d   1      54.224  33.300  54.852  0.00  0.00    -0.012 A 
ATOM      7  C   UNL d   1      53.928  34.545  54.792  0.00  0.00     0.023 A 
ATOM      8  C   UNL d   1      53.390  34.555  54.180  0.00  0.00     0.013 A 
ATOM      9  C   UNL d   1      53.723  33.333  54.288  0.00  0.00    -0.023 A 
ATOM     10  C   UNL d   1      54.357  34.022  55.164  0.00  0.00    -0.027 A 
ENDROOT
BRANCH   2  11
ATOM     11  C   UNL d   1      52.729  34.121  53.330  0.00  0.00     0.038 C 
BRANCH  11  12
ATOM     12  C   UNL d   1      51.937  34.215  53.541  0.00  0.00     0.261 C 
ATOM     13  N   UNL d   1      51.357  34.246  52.952  0.00  0.00    -0.268 N 
ATOM     14  C   UNL d   1      50.565  34.339  53.163  0.00  0.00     0.110 A 
ATOM     15  C   UNL d   1      51.575  34.182  52.154  0.00  0.00     0.110 A 
ATOM     16  C   UNL d   1      49.984  34.370  52.580  0.00  0.00     0.142 A 
ATOM     17  O   UNL d   1      50.191  34.308  51.782  0.00  0.00    -0.300 OA
ATOM     18  C   UNL d   1      50.983  34.214  51.572  0.00  0.00     0.142 A 
ATOM     19  O   UNL d   1      51.728  34.277  54.336  0.00  0.00    -0.267 OA
ENDBRANCH  11  12
ENDBRANCH   2  11
BRANCH   1  20
ATOM     20  C   UNL d   1      53.840  32.243  54.178  0.00  0.00    -0.019 A 
ATOM     21  C   UNL d   1      53.301  31.731  54.530  0.00  0.00    -0.004 A 
ATOM     22  C   UNL d   1      53.088  31.037  54.144  0.00  0.00    -0.000 A 
ATOM     23  C   UNL d   1      53.409  30.858  53.415  0.00  0.00    -0.000 A 
ATOM     24  C   UNL d   1      53.953  31.378  53.059  0.00  0.00    -0.000 A 
ATOM     25  C   UNL d   1      53.200  30.163  53.017  0.00  0.00    -0.000 C 
ATOM     26  C   UNL d   1      54.163  32.072  53.452  0.00  0.00    -0.004 A 
ENDBRANCH   1  20
TORSDOF 3
ENDMDL
MODEL 3
REMARK VINA RESULT:     -12.5      1.585      3.737
REMARK  3 active torsions:
REMARK  status: ('A' for Active; 'I' for Inactive)
REMARK    1  A    between atoms: C_7  and  C_1 
REMARK    2  A    between atoms: C_6  and  C_2 
REMARK    3  A    between atoms: C_3  and  C_6 
REMARK       I    between atoms: N_4  and  C_3 
ROOT
ATOM      1  C   UNL d   1      53.711  31.377  53.772  0.00  0.00     0.038 A 
ATOM      2  C   UNL d   1      52.751  32.003  53.043  0.00  0.00     0.043 A 
ATOM      3  C   UNL d   1      53.414  32.125  53.601  0.00  0.00     0.016 A 
ATOM      4  C   UNL d   1      54.297  30.985  54.216  0.00  0.00    -0.023 A 
ATOM      5  C   UNL d   1      53.285  30.766  53.361  0.00  0.00     0.013 A 
ATOM      6  C   UNL d   1      53.570  30.938  53.613  0.00  0.00    -0.012 A 
ATOM      7  C   UNL d   1      52.616  30.673  52.801  0.00  0.00     0.023 A 
ATOM      8  C   UNL d   1      52.329  31.418  52.638  0.00  0.00     0.013 A 
ATOM      9  C   UNL d   1      53.288  31.618  53.447  0.00  0.00    -0.023 A 
ATOM     10  C   UNL d   1      53.175  30.359  53.231  0.00  0.00    -0.027 A 
ENDROOT
BRANCH   2  11
ATOM     11  C   UNL d   1      52.264  32.575  52.698  0.00  0.00     0.038 C 
BRANCH  11  12
ATOM     12  C   UNL d   1      51.536  32.759  53.041  0.00  0.00     0.261 C 
ATOM     13  N   UNL d   1      51.220  33.518  52.950  0.00  0.00    -0.268 N 
ATOM     14  C   UNL d   1      50.492  33.702  53.293  0.00  0.00     0.110 A 
ATOM     15  C   UNL d   1      51.636  34.088  52.514  0.00  0.00     0.110 A 
ATOM     16  C   UNL d   1      50.174  34.455  53.204  0.00  0.00     0.142 A 
ATOM     17  O   UNL d   1      50.580  35.031  52.772  0.00  0.00    -0.300 OA
ATOM     18  C   UNL d   1      51.308  34.847  52.429  0.00  0.00     0.142 A 
ATOM     19  O   UNL d   1      51.129  32.187  53.473  0.00  0.00    -0.267 OA
ENDBRANCH  11  12
ENDBRANCH   2  11
BRANCH   1  20
ATOM     20  C   UNL d   1      54.050  32.049  54.117  0.00  0.00    -0.019 A 
ATOM     21  C   UNL d   1      53.843  32.250  54.887  0.00  0.00    -0.004 A 
ATOM     22  C   UNL d   1      54.175  32.916  55.236  0.00  0.00    -0.000 A 
ATOM     23  C   UNL d   1      54.707  33.376  54.820  0.00  0.00    -0.000 A 
ATOM     24  C   UNL d   1      54.914  33.171  54.040  0.00  0.00    -0.000 A 
ATOM     25  C   UNL d   1      55.046  34.048  55.162  0.00  0.00    -0.000 C 
ATOM     26  C   UNL d   1      54.578  32.502  53.697  0.00  0.00    -0.004 A 
ENDBRANCH   1  20
TORSDOF 3
ENDMDL
MODEL 4
REMARK VINA RESULT:     -12.3      0.908      2.473
REMARK  3 active torsions:
REMARK  status: ('A' for Active; 'I' for Inactive)
REMARK    1  A    between atoms: C_7  and  C_1 
REMARK    2  A    between atoms: C_6  and  C_2 
REMARK    3  A    between atoms: C_3  and  C_6 
REMARK       I    between atoms: N_4  and  C_3 
ROOT
ATOM      1  C   UNL d   1      52.682  34.232  53.490  0.00  0.00     0.038 A 
ATOM      2  C   UNL d   1      52.214  32.960  53.400  0.00  0.00     0.043 A 
ATOM      3  C   UNL d   1      52.836  33.467  53.749  0.00  0.00     0.016 A 
ATOM      4  C   UNL d   1      52.962  35.014  53.540  0.00  0.00    -0.023 A 
ATOM      5  C   UNL d   1      51.994  34.264  52.990  0.00  0.00     0.013 A 
ATOM      6  C   UNL d   1      52.327  34.402  53.202  0.00  0.00    -0.012 A 
ATOM      7  C   UNL d   1      51.382  33.732  52.652  0.00  0.00     0.023 A 
ATOM      8  C   UNL d   1      51.544  32.978  52.915  0.00  0.00     0.013 A 
ATOM      9  C   UNL d   1      52.457  33.695  53.432  0.00  0.00    -0.023 A 
ATOM     10  C   UNL d   1      51.683  34.439  52.732  0.00  0.00    -0.027 A 
ENDROOT
BRANCH   2  11
ATOM     11  C   UNL d   1      52.113  32.144  53.486  0.00  0.00     0.038 C 
BRANCH  11  12
ATOM     12  C   UNL d   1      52.479  31.625  52.959  0.00  0.00     0.261 C 
ATOM     13  N   UNL d   1      52.691  30.866  53.211  0.00  0.00    -0.268 N 
ATOM     14  C   UNL d   1      53.057  30.347  52.684  0.00  0.00     0.110 A 
ATOM     15  C   UNL d   1      52.533  30.631  53.991  0.00  0.00     0.110 A 
ATOM     16  C   UNL d   1      53.268  29.591  52.931  0.00  0.00     0.142 A 
ATOM     17  O   UNL d   1      53.116  29.348  53.706  0.00  0.00    -0.300 OA
ATOM     18  C   UNL d   1      52.750  29.866  54.232  0.00  0.00     0.142 A 
ATOM     19  O   UNL d   1      52.633  31.865  52.185  0.00  0.00    -0.267 OA
ENDBRANCH  11  12
ENDBRANCH   2  11
BRANCH   1  20
ATOM     20  C   UNL d   1      53.329  34.081  53.985  0.00  0.00    -0.019 A 
ATOM     21  C   UNL d   1      53.220  34.093  54.800  0.00  0.00    -0.004 A 
ATOM     22  C   UNL d   1      53.857  33.944  55.297  0.00  0.00    -0.000 A 
ATOM     23  C   UNL d   1      54.594  33.785  54.983  0.00  0.00    -0.000 A 
ATOM     24  C   UNL d   1      54.702  33.774  54.157  0.00  0.00    -0.000 A 
ATOM     25  C   UNL d   1      55.242  33.634  55.474  0.00  0.00    -0.000 C 
ATOM     26  C   UNL d   1      54.059  33.924  53.665  0.00  0.00    -0.004 A 
ENDBRANCH   1  20
TORSDOF 3
ENDMDL
MODEL 5
REMARK VINA RESULT:     -10.8      1.405      3.099
REMARK  3 active torsions:
REMARK  status: ('A' for Active; 'I' for Inactive)
REMARK    1  A    between atoms: C_7  and  C_1 
REMARK    2  A    between atoms: C_6  and  C_2 
REMARK    3  A    between atoms: C_3  and  C_6 
REMARK       I    between atoms: N_4  and  C_3 
ROOT
ATOM      1  C   UNL d   1      52.309  31.649  52.973  0.00  0.00     0.038 A 
ATOM      2  C   UNL d   1      53.527  31.902  53.519  0.00  0.00     0.043 A 
ATOM      3  C   UNL d   1      52.780  32.266  53.246  0.00  0.00     0.016 A 
ATOM      4  C   UNL d   1      51.565  31.485  52.638  0.00  0.00    -0.023 A 
ATOM      5  C   UNL d   1      52.700  30.897  53.048  0.00  0.00     0.013 A 
ATOM      6  C   UNL d   1      52.399  31.170  52.953  0.00  0.00    -0.012 A 
ATOM      7  C   UNL d   1      53.460  30.559  53.330  0.00  0.00     0.023 A 
ATOM      8  C   UNL d   1      53.917  31.177  53.598  0.00  0.00     0.013 A 
ATOM      9  C   UNL d   1      52.840  31.727  53.207  0.00  0.00    -0.023 A 
ATOM     10  C   UNL d   1      52.759  30.461  53.021  0.00  0.00    -0.027 A 
ENDROOT
BRANCH   2  11
ATOM     11  C   UNL d   1      54.188  32.278  53.844  0.00  0.00     0.038 C 
BRANCH  11  12
ATOM     12  C   UNL d   1      54.200  32.471  54.646  0.00  0.00     0.261 C 
ATOM     13  N   UNL d   1      54.663  33.104  54.909  0.00  0.00    -0.268 N 
ATOM     14  C   UNL d   1      54.676  33.297  55.711  0.00  0.00     0.110 A 
ATOM     15  C   UNL d   1      55.112  33.541  54.365  0.00  0.00     0.110 A 
ATOM     16  C   UNL d   1      55.135  33.926  55.976  0.00  0.00     0.142 A 
ATOM     17  O   UNL d   1      55.586  34.368  55.442  0.00  0.00    -0.300 OA
ATOM     18  C   UNL d   1      55.574  34.175  54.640  0.00  0.00     0.142 A 
ATOM     19  O   UNL d   1      53.752  32.033  55.182  0.00  0.00    -0.267 OA
ENDBRANCH  11  12
ENDBRANCH   2  11
BRANCH   1  20
ATOM     20  C   UNL d   1      52.031  32.429  52.948  0.00  0.00    -0.019 A 
ATOM     21  C   UNL d   1      51.475  32.672  53.503  0.00  0.00    -0.004 A 
ATOM     22  C   UNL d   1      51.194  33.444  53.485  0.00  0.00    -0.000 A 
ATOM     23  C   UNL d   1      51.465  33.966  52.918  0.00  0.00    -0.000 A 
ATOM     24  C   UNL d   1      52.027  33.718  52.357  0.00  0.00    -0.000 A 
ATOM     25  C   UNL d   1      51.189  34.746  52.891  0.00  0.00    -0.000 C 
ATOM     26  C   UNL d   1      52.305  32.942  52.381  0.00  0.00    -0.004 A 
ENDBRANCH   1  20
TORSDOF 3
ENDMDL
