MODEL 1
REMARK VINA RESULT:      24.1      0.000      0.000
REMARK  4 active torsions:
REMARK  status: ('A' for Active; 'I' for Inactive)
REMARK    1  A    between atoms: C_5  and  C_3 
REMARK    2  A    between atoms: S_8  and  C_4 
REMARK    3  A    between atoms: C_12  and  S_8 
REMARK    4  A    between atoms: C_10  and  C_12 
ROOT
ATOM      1  N   UNL d   1     -57.072 -99.571 -43.999  0.00  0.00    -0.146 NA
ATOM      2  N   UNL d   1     -56.256 -99.677 -44.060  0.00  0.00    -0.141 NA
ATOM      3  C   UNL d   1     -57.473 -99.112 -44.561  0.00  0.00     0.121 A 
ATOM      4  C   UNL d   1     -55.834 -99.333 -44.672  0.00  0.00     0.133 A 
ATOM      5  C   UNL d   1     -57.050 -98.762 -45.180  0.00  0.00     0.025 A 
ATOM      6  C   UNL d   1     -56.237 -98.870 -45.237  0.00  0.00     0.029 A 
ENDROOT
BRANCH   4   7
ATOM      7  S   UNL d   1     -55.019 -99.439 -44.732  0.00  0.00    -0.064 SA
BRANCH   7   8
ATOM      8  C   UNL d   1     -54.712-100.135 -45.040  0.00  0.00     0.056 C 
BRANCH   8   9
ATOM      9  C   UNL d   1     -54.718-100.823 -44.581  0.00  0.00     0.088 A 
ATOM     10  N   UNL d   1     -54.713-100.769 -43.758  0.00  0.00    -0.243 NA
ATOM     11  C   UNL d   1     -54.719-101.458 -43.307  0.00  0.00     0.099 A 
ATOM     12  C   UNL d   1     -54.730-102.192 -43.676  0.00  0.00     0.021 A 
ATOM     13  C   UNL d   1     -54.735-102.247 -44.487  0.00  0.00     0.003 A 
ATOM     14  C   UNL d   1     -54.729-101.563 -44.944  0.00  0.00     0.020 A 
ENDBRANCH   8   9
ENDBRANCH   7   8
ENDBRANCH   4   7
BRANCH   3  15
ATOM     15  C   UNL d   1     -58.289 -99.005 -44.501  0.00  0.00     0.101 A 
ATOM     16  N   UNL d   1     -58.647 -99.038 -43.770  0.00  0.00    -0.242 NA
ATOM     17  C   UNL d   1     -59.456 -98.933 -43.706  0.00  0.00     0.099 A 
ATOM     18  C   UNL d   1     -59.911 -98.793 -44.389  0.00  0.00     0.021 A 
ATOM     19  C   UNL d   1     -59.546 -98.761 -45.120  0.00  0.00     0.003 A 
ATOM     20  C   UNL d   1     -58.730 -98.866 -45.190  0.00  0.00     0.021 A 
ENDBRANCH   3  15
TORSDOF 4
ENDMDL
MODEL 2
REMARK VINA RESULT:      25.4      5.118      6.873
REMARK  4 active torsions:
REMARK  status: ('A' for Active; 'I' for Inactive)
REMARK    1  A    between atoms: C_5  and  C_3 
REMARK    2  A    between atoms: S_8  and  C_4 
REMARK    3  A    between atoms: C_12  and  S_8 
REMARK    4  A    between atoms: C_10  and  C_12 
ROOT
ATOM      1  N   UNL d   1     -55.310-101.494 -38.247  0.00  0.00    -0.146 NA
ATOM      2  N   UNL d   1     -55.199-101.542 -39.063  0.00  0.00    -0.141 NA
ATOM      3  C   UNL d   1     -55.122-102.140 -37.764  0.00  0.00     0.121 A 
ATOM      4  C   UNL d   1     -54.903-102.225 -39.404  0.00  0.00     0.133 A 
ATOM      5  C   UNL d   1     -54.823-102.831 -38.105  0.00  0.00     0.025 A 
ATOM      6  C   UNL d   1     -54.713-102.876 -38.919  0.00  0.00     0.029 A 
ENDROOT
BRANCH   4   7
ATOM      7  S   UNL d   1     -54.792-102.273 -40.220  0.00  0.00    -0.064 SA
BRANCH   7   8
ATOM      8  C   UNL d   1     -55.187-101.759 -40.724  0.00  0.00     0.056 C 
BRANCH   8   9
ATOM      9  C   UNL d   1     -55.033-101.785 -41.536  0.00  0.00     0.088 A 
ATOM     10  N   UNL d   1     -54.911-102.510 -41.910  0.00  0.00    -0.243 NA
ATOM     11  C   UNL d   1     -54.759-102.527 -42.719  0.00  0.00     0.099 A 
ATOM     12  C   UNL d   1     -54.729-101.828 -43.148  0.00  0.00     0.021 A 
ATOM     13  C   UNL d   1     -54.849-101.113 -42.782  0.00  0.00     0.003 A 
ATOM     14  C   UNL d   1     -55.002-101.086 -41.973  0.00  0.00     0.020 A 
ENDBRANCH   8   9
ENDBRANCH   7   8
ENDBRANCH   4   7
BRANCH   3  15
ATOM     15  C   UNL d   1     -55.233-102.092 -36.948  0.00  0.00     0.101 A 
ATOM     16  N   UNL d   1     -55.048-101.403 -36.555  0.00  0.00    -0.242 NA
ATOM     17  C   UNL d   1     -55.156-101.351 -35.746  0.00  0.00     0.099 A 
ATOM     18  C   UNL d   1     -55.456-102.004 -35.326  0.00  0.00     0.021 A 
ATOM     19  C   UNL d   1     -55.640-102.694 -35.724  0.00  0.00     0.003 A 
ATOM     20  C   UNL d   1     -55.532-102.751 -36.541  0.00  0.00     0.021 A 
ENDBRANCH   3  15
TORSDOF 4
ENDMDL
