MODEL 1
REMARK VINA RESULT:      11.5      0.000      0.000
REMARK  3 active torsions:
REMARK  status: ('A' for Active; 'I' for Inactive)
REMARK    1  A    between atoms: C_6  and  C_1 
REMARK    2  A    between atoms: C_7  and  C_5 
REMARK    3  A    between atoms: O_15  and  C_12 
ROOT
ATOM      1  C   UNL d   1      46.222 -17.876  43.944  0.00  0.00     0.169 A 
ATOM      2  C   UNL d   1      46.227 -17.266  43.485  0.00  0.00     0.048 A 
ATOM      3  N   UNL d   1      45.873 -17.115  44.953  0.00  0.00    -0.148 NA
ATOM      4  N   UNL d   1      46.046 -17.796  44.672  0.00  0.00    -0.142 NA
ATOM      5  C   UNL d   1      45.878 -16.504  44.495  0.00  0.00     0.105 A 
ENDROOT
BRANCH   5   6
ATOM      6  C   UNL d   1      45.727 -15.705  44.594  0.00  0.00     0.020 A 
ATOM      7  C   UNL d   1      44.980 -15.452  44.844  0.00  0.00     0.004 A 
ATOM      8  C   UNL d   1      44.826 -14.647  44.944  0.00  0.00     0.024 A 
ATOM      9  C   UNL d   1      45.421 -14.091  44.794  0.00  0.00     0.094 A 
ATOM     10  C   UNL d   1      46.168 -14.344  44.544  0.00  0.00     0.024 A 
ATOM     11  C   UNL d   1      46.318 -15.152  44.445  0.00  0.00     0.004 A 
BRANCH   9  12
ATOM     12  O   UNL d   1      45.270 -13.291  44.893  0.00  0.00    -0.328 OA
ATOM     13  C   UNL d   1      45.893 -12.758  44.955  0.00  0.00     0.181 C 
ENDBRANCH   9  12
ENDBRANCH   5   6
BRANCH   1  14
ATOM     14  C   UNL d   1      46.396 -18.558  43.661  0.00  0.00     0.231 C 
ATOM     15  O   UNL d   1      46.552 -19.133  44.136  0.00  0.00    -0.643 OA
ATOM     16  O   UNL d   1      46.414 -18.671  42.916  0.00  0.00    -0.643 OA
ENDBRANCH   1  14
TORSDOF 3
ENDMDL
MODEL 2
REMARK VINA RESULT:      11.6      0.911      4.164
REMARK  3 active torsions:
REMARK  status: ('A' for Active; 'I' for Inactive)
REMARK    1  A    between atoms: C_6  and  C_1 
REMARK    2  A    between atoms: C_7  and  C_5 
REMARK    3  A    between atoms: O_15  and  C_12 
ROOT
ATOM      1  C   UNL d   1      45.672 -15.184  44.425  0.00  0.00     0.169 A 
ATOM      2  C   UNL d   1      46.056 -15.486  43.839  0.00  0.00     0.048 A 
ATOM      3  N   UNL d   1      45.463 -16.385  44.909  0.00  0.00    -0.148 NA
ATOM      4  N   UNL d   1      45.379 -15.634  44.954  0.00  0.00    -0.142 NA
ATOM      5  C   UNL d   1      45.847 -16.688  44.323  0.00  0.00     0.105 A 
ENDROOT
BRANCH   5   6
ATOM      6  C   UNL d   1      46.046 -17.449  44.092  0.00  0.00     0.020 A 
ATOM      7  C   UNL d   1      46.222 -18.022  44.663  0.00  0.00     0.004 A 
ATOM      8  C   UNL d   1      46.422 -18.789  44.432  0.00  0.00     0.024 A 
ATOM      9  C   UNL d   1      46.448 -18.986  43.629  0.00  0.00     0.094 A 
ATOM     10  C   UNL d   1      46.272 -18.413  43.058  0.00  0.00     0.024 A 
ATOM     11  C   UNL d   1      46.071 -17.644  43.293  0.00  0.00     0.004 A 
BRANCH   9  12
ATOM     12  O   UNL d   1      46.647 -19.747  43.398  0.00  0.00    -0.328 OA
ATOM     13  C   UNL d   1      46.058 -20.283  43.192  0.00  0.00     0.181 C 
ENDBRANCH   9  12
ENDBRANCH   5   6
BRANCH   1  14
ATOM     14  C   UNL d   1      45.588 -14.431  44.469  0.00  0.00     0.231 C 
ATOM     15  O   UNL d   1      46.205 -13.984  44.495  0.00  0.00    -0.643 OA
ATOM     16  O   UNL d   1      44.901 -14.123  44.489  0.00  0.00    -0.643 OA
ENDBRANCH   1  14
TORSDOF 3
ENDMDL
