MODEL 1
REMARK VINA RESULT:      -6.2      0.000      0.000
REMARK  5 active torsions:
REMARK  status: ('A' for Active; 'I' for Inactive)
REMARK    1  A    between atoms: N_2  and  S_1 
REMARK    2  A    between atoms: C_4  and  S_1 
REMARK    3  A    between atoms: C_3  and  N_2 
REMARK    4  A    between atoms: N_7  and  C_3 
REMARK    5  A    between atoms: C_15  and  N_7 
ROOT
ATOM      1  S   UNL d   1     -41.772-122.660 -51.053  0.00  0.00     0.287 S 
ATOM      2  O   UNL d   1     -41.261-122.031 -50.862  0.00  0.00    -0.198 OA
ATOM      3  O   UNL d   1     -42.280-123.287 -51.223  0.00  0.00    -0.198 OA
ENDROOT
BRANCH   1   4
ATOM      4  N   UNL d   1     -41.661-122.518 -51.859  0.00  0.00    -0.128 NA
BRANCH   4   5
ATOM      5  C   UNL d   1     -41.302-122.727 -52.586  0.00  0.00     0.232 C 
ATOM      6  S   UNL d   1     -41.123-123.511 -52.742  0.00  0.00    -0.036 SA
BRANCH   5   7
ATOM      7  N   UNL d   1     -41.133-122.136 -53.137  0.00  0.00    -0.217 NA
BRANCH   7   8
ATOM      8  C   UNL d   1     -41.487-122.162 -53.883  0.00  0.00     0.084 A 
ATOM      9  C   UNL d   1     -41.155-122.622 -54.476  0.00  0.00     0.019 A 
ATOM     10  C   UNL d   1     -41.503-122.650 -55.217  0.00  0.00     0.002 A 
ATOM     11  C   UNL d   1     -42.184-122.221 -55.371  0.00  0.00     0.000 A 
ATOM     12  C   UNL d   1     -42.520-121.757 -54.776  0.00  0.00     0.002 A 
ATOM     13  C   UNL d   1     -42.172-121.728 -54.032  0.00  0.00     0.019 A 
ENDBRANCH   7   8
ENDBRANCH   5   7
ENDBRANCH   4   5
ENDBRANCH   1   4
BRANCH   1  14
ATOM     14  C   UNL d   1     -41.883-122.804 -50.241  0.00  0.00     0.105 A 
ATOM     15  C   UNL d   1     -42.613-122.620 -49.882  0.00  0.00     0.014 A 
ATOM     16  C   UNL d   1     -42.723-122.761 -49.082  0.00  0.00     0.012 A 
ATOM     17  C   UNL d   1     -42.112-123.085 -48.631  0.00  0.00     0.058 A 
ATOM     18  C   UNL d   1     -41.387-123.269 -48.982  0.00  0.00     0.012 A 
ATOM     19 CL   UNL d   1     -42.222-123.227 -47.830  0.00  0.00    -0.082 Cl
ATOM     20  C   UNL d   1     -41.276-123.127 -49.788  0.00  0.00     0.014 A 
ENDBRANCH   1  14
TORSDOF 5
ENDMDL
MODEL 2
REMARK VINA RESULT:      -6.1      2.038      4.828
REMARK  5 active torsions:
REMARK  status: ('A' for Active; 'I' for Inactive)
REMARK    1  A    between atoms: N_2  and  S_1 
REMARK    2  A    between atoms: C_4  and  S_1 
REMARK    3  A    between atoms: C_3  and  N_2 
REMARK    4  A    between atoms: N_7  and  C_3 
REMARK    5  A    between atoms: C_15  and  N_7 
ROOT
ATOM      1  S   UNL d   1     -41.514-122.682 -52.898  0.00  0.00     0.287 S 
ATOM      2  O   UNL d   1     -41.807-123.448 -53.048  0.00  0.00    -0.198 OA
ATOM      3  O   UNL d   1     -41.228-121.919 -52.769  0.00  0.00    -0.198 OA
ENDROOT
BRANCH   1   4
ATOM      4  N   UNL d   1     -41.351-122.887 -52.115  0.00  0.00    -0.128 NA
BRANCH   4   5
ATOM      5  C   UNL d   1     -41.496-122.784 -51.298  0.00  0.00     0.232 C 
ATOM      6  S   UNL d   1     -41.123-122.178 -50.890  0.00  0.00    -0.036 SA
BRANCH   5   7
ATOM      7  N   UNL d   1     -42.014-123.297 -50.912  0.00  0.00    -0.217 NA
BRANCH   7   8
ATOM      8  C   UNL d   1     -42.032-123.312 -50.086  0.00  0.00     0.084 A 
ATOM      9  C   UNL d   1     -42.612-122.896 -49.681  0.00  0.00     0.019 A 
ATOM     10  C   UNL d   1     -42.632-122.909 -48.863  0.00  0.00     0.002 A 
ATOM     11  C   UNL d   1     -42.074-123.338 -48.442  0.00  0.00     0.000 A 
ATOM     12  C   UNL d   1     -41.489-123.758 -48.846  0.00  0.00     0.002 A 
ATOM     13  C   UNL d   1     -41.467-123.746 -49.668  0.00  0.00     0.019 A 
ENDBRANCH   7   8
ENDBRANCH   5   7
ENDBRANCH   4   5
ENDBRANCH   1   4
BRANCH   1  14
ATOM     14  C   UNL d   1     -41.679-122.476 -53.688  0.00  0.00     0.105 A 
ATOM     15  C   UNL d   1     -41.270-122.851 -54.310  0.00  0.00     0.014 A 
ATOM     16  C   UNL d   1     -41.433-122.647 -55.088  0.00  0.00     0.012 A 
ATOM     17  C   UNL d   1     -42.000-122.072 -55.256  0.00  0.00     0.058 A 
ATOM     18  C   UNL d   1     -42.408-121.697 -54.641  0.00  0.00     0.012 A 
ATOM     19 CL   UNL d   1     -42.162-121.868 -56.033  0.00  0.00    -0.082 Cl
ATOM     20  C   UNL d   1     -42.245-121.902 -53.859  0.00  0.00     0.014 A 
ENDBRANCH   1  14
TORSDOF 5
ENDMDL
