MODEL 1
REMARK VINA RESULT:      77.3      0.000      0.000
REMARK  6 active torsions:
REMARK  status: ('A' for Active; 'I' for Inactive)
REMARK    1  A    between atoms: C_9  and  N_1 
REMARK    2  A    between atoms: C_8  and  C_3 
REMARK       I    between atoms: N_12  and  C_8 
REMARK    3  A    between atoms: C_17  and  C_9 
REMARK    4  A    between atoms: C_23  and  N_12 
REMARK    5  A    between atoms: C_13  and  C_23 
REMARK    6  A    between atoms: C_20  and  C_17 
ROOT
ATOM      1  N   UNL d   1      45.094 -16.960  38.558  0.00  0.00    -0.273 N 
ATOM      2  C   UNL d   1      44.411 -17.263  38.222  0.00  0.00     0.177 A 
ATOM      3  C   UNL d   1      44.179 -16.756  37.611  0.00  0.00     0.115 A 
ATOM      4  C   UNL d   1      45.295 -16.263  38.162  0.00  0.00     0.167 A 
ATOM      5  C   UNL d   1      44.729 -16.137  37.575  0.00  0.00     0.123 A 
ATOM      6  N   UNL d   1      45.916 -15.731  38.258  0.00  0.00    -0.225 NA
ATOM      7  N   UNL d   1      44.782 -15.479  37.084  0.00  0.00    -0.241 NA
ATOM      8  C   UNL d   1      45.970 -15.071  37.766  0.00  0.00     0.101 A 
ATOM      9  C   UNL d   1      45.403 -14.946  37.180  0.00  0.00     0.099 A 
ATOM     10  N   UNL d   1      44.024 -17.953  38.454  0.00  0.00    -0.128 N 
ATOM     11  C   UNL d   1      46.591 -14.538  37.862  0.00  0.00     0.021 A 
ATOM     12  C   UNL d   1      45.457 -14.286  36.688  0.00  0.00     0.021 A 
ATOM     13  C   UNL d   1      46.646 -13.876  37.369  0.00  0.00     0.002 A 
ATOM     14  C   UNL d   1      46.080 -13.750  36.783  0.00  0.00     0.002 A 
ENDROOT
BRANCH   1  15
ATOM     15  C   UNL d   1      45.517 -17.289  39.188  0.00  0.00     0.083 C 
BRANCH  15  16
ATOM     16  C   UNL d   1      45.121 -17.506  39.880  0.00  0.00     0.021 C 
BRANCH  16  17
ATOM     17  C   UNL d   1      45.509 -17.975  40.437  0.00  0.00     0.029 A 
ATOM     18  C   UNL d   1      45.165 -18.096  41.170  0.00  0.00     0.140 A 
ATOM     19  F   UNL d   1      44.445 -17.679  41.174  0.00  0.00    -0.204 F 
ATOM     20  C   UNL d   1      45.540 -18.557  41.727  0.00  0.00     0.030 A 
ATOM     21  C   UNL d   1      46.273 -18.904  41.547  0.00  0.00     0.002 A 
ATOM     22  C   UNL d   1      46.612 -18.779  40.810  0.00  0.00     0.000 A 
ATOM     23  C   UNL d   1      46.229 -18.315  40.257  0.00  0.00     0.002 A 
ENDBRANCH  16  17
ENDBRANCH  15  16
ENDBRANCH   1  15
BRANCH   3  24
ATOM     24  C   UNL d   1      43.519 -16.845  37.120  0.00  0.00     0.284 C 
ATOM     25  N   UNL d   1      42.971 -16.231  37.066  0.00  0.00    -0.204 NA
ATOM     26  O   UNL d   1      43.409 -17.538  36.689  0.00  0.00    -0.265 OA
BRANCH  25  27
ATOM     27  C   UNL d   1      42.304 -16.319  36.571  0.00  0.00     0.127 C 
BRANCH  27  28
ATOM     28  C   UNL d   1      41.703 -15.763  36.589  0.00  0.00     0.119 A 
ATOM     29  O   UNL d   1      41.769 -14.992  36.871  0.00  0.00    -0.304 OA
ATOM     30  C   UNL d   1      41.033 -14.628  36.786  0.00  0.00     0.123 A 
ATOM     31  C   UNL d   1      40.516 -15.189  36.448  0.00  0.00     0.029 A 
ATOM     32  C   UNL d   1      40.928 -15.875  36.331  0.00  0.00     0.028 A 
ENDBRANCH  27  28
ENDBRANCH  25  27
ENDBRANCH   3  24
TORSDOF 6
ENDMDL
MODEL 2
REMARK VINA RESULT:      79.9      4.456      6.028
REMARK  6 active torsions:
REMARK  status: ('A' for Active; 'I' for Inactive)
REMARK    1  A    between atoms: C_9  and  N_1 
REMARK    2  A    between atoms: C_8  and  C_3 
REMARK       I    between atoms: N_12  and  C_8 
REMARK    3  A    between atoms: C_17  and  C_9 
REMARK    4  A    between atoms: C_23  and  N_12 
REMARK    5  A    between atoms: C_13  and  C_23 
REMARK    6  A    between atoms: C_20  and  C_17 
ROOT
ATOM      1  N   UNL d   1      46.511 -18.629  43.618  0.00  0.00    -0.273 N 
ATOM      2  C   UNL d   1      46.374 -18.005  44.132  0.00  0.00     0.177 A 
ATOM      3  C   UNL d   1      46.271 -17.319  43.682  0.00  0.00     0.115 A 
ATOM      4  C   UNL d   1      46.494 -18.339  42.844  0.00  0.00     0.167 A 
ATOM      5  C   UNL d   1      46.346 -17.529  42.883  0.00  0.00     0.123 A 
ATOM      6  N   UNL d   1      46.594 -18.706  42.113  0.00  0.00    -0.225 NA
ATOM      7  N   UNL d   1      46.298 -17.083  42.193  0.00  0.00    -0.241 NA
ATOM      8  C   UNL d   1      46.546 -18.260  41.422  0.00  0.00     0.101 A 
ATOM      9  C   UNL d   1      46.398 -17.450  41.461  0.00  0.00     0.099 A 
ATOM     10  N   UNL d   1      46.345 -18.055  44.955  0.00  0.00    -0.128 N 
ATOM     11  C   UNL d   1      46.646 -18.627  40.690  0.00  0.00     0.021 A 
ATOM     12  C   UNL d   1      46.350 -17.004  40.770  0.00  0.00     0.021 A 
ATOM     13  C   UNL d   1      46.598 -18.181  39.995  0.00  0.00     0.002 A 
ATOM     14  C   UNL d   1      46.450 -17.370  40.035  0.00  0.00     0.002 A 
ENDROOT
BRANCH   1  15
ATOM     15  C   UNL d   1      46.643 -19.417  43.829  0.00  0.00     0.083 C 
BRANCH  15  16
ATOM     16  C   UNL d   1      46.176 -20.015  43.500  0.00  0.00     0.021 C 
BRANCH  16  17
ATOM     17  C   UNL d   1      45.404 -20.118  43.770  0.00  0.00     0.029 A 
ATOM     18  C   UNL d   1      45.269 -20.226  44.571  0.00  0.00     0.140 A 
ATOM     19  F   UNL d   1      46.010 -20.202  44.949  0.00  0.00    -0.204 F 
ATOM     20  C   UNL d   1      44.510 -20.329  44.848  0.00  0.00     0.030 A 
ATOM     21  C   UNL d   1      43.873 -20.325  44.313  0.00  0.00     0.002 A 
ATOM     22  C   UNL d   1      44.017 -20.217  43.512  0.00  0.00     0.000 A 
ATOM     23  C   UNL d   1      44.781 -20.114  43.243  0.00  0.00     0.002 A 
ENDBRANCH  16  17
ENDBRANCH  15  16
ENDBRANCH   1  15
BRANCH   3  24
ATOM     24  C   UNL d   1      46.121 -16.558  43.969  0.00  0.00     0.284 C 
ATOM     25  N   UNL d   1      46.107 -15.924  43.443  0.00  0.00    -0.204 NA
ATOM     26  O   UNL d   1      45.986 -16.434  44.772  0.00  0.00    -0.265 OA
BRANCH  25  27
ATOM     27  C   UNL d   1      45.955 -15.154  43.731  0.00  0.00     0.127 C 
BRANCH  27  28
ATOM     28  C   UNL d   1      46.092 -14.502  43.254  0.00  0.00     0.119 A 
ATOM     29  O   UNL d   1      46.629 -14.466  42.631  0.00  0.00    -0.304 OA
ATOM     30  C   UNL d   1      46.587 -13.710  42.305  0.00  0.00     0.123 A 
ATOM     31  C   UNL d   1      46.016 -13.284  42.739  0.00  0.00     0.029 A 
ATOM     32  C   UNL d   1      45.719 -13.769  43.313  0.00  0.00     0.028 A 
ENDBRANCH  27  28
ENDBRANCH  25  27
ENDBRANCH   3  24
TORSDOF 6
ENDMDL
