MODEL 1
REMARK VINA RESULT:      -7.7      0.000      0.000
REMARK  3 active torsions:
REMARK  status: ('A' for Active; 'I' for Inactive)
REMARK    1  A    between atoms: N_4  and  C_1 
REMARK       I    between atoms: C_8  and  N_4 
REMARK    2  A    between atoms: C_16  and  C_8 
REMARK       I    between atoms: C_9  and  N_10 
REMARK    3  A    between atoms: N_10  and  C_11 
ROOT
ATOM      1  C   UNL d   1     -46.382  12.198  23.432  0.00  0.00     0.197 A 
ATOM      2  N   UNL d   1     -46.028  12.914  23.453  0.00  0.00    -0.221 NA
ATOM      3  S   UNL d   1     -47.115  12.254  23.134  0.00  0.00    -0.047 SA
ATOM      4  C   UNL d   1     -47.254  13.017  22.953  0.00  0.00     0.051 A 
ATOM      5  C   UNL d   1     -46.570  13.433  23.154  0.00  0.00     0.090 A 
ATOM      6  C   UNL d   1     -47.892  13.421  22.635  0.00  0.00     0.027 A 
ATOM      7  C   UNL d   1     -47.861  14.229  22.513  0.00  0.00     0.085 A 
ATOM      8  C   UNL d   1     -46.520  14.254  23.037  0.00  0.00     0.021 A 
ATOM      9  C   UNL d   1     -47.177  14.645  22.714  0.00  0.00     0.021 A 
ENDROOT
BRANCH   1  10
ATOM     10  N   UNL d   1     -46.008  11.504  23.694  0.00  0.00    -0.183 NA
ATOM     11  C   UNL d   1     -45.272  11.254  23.402  0.00  0.00     0.281 C 
ATOM     12  O   UNL d   1     -44.900  11.723  22.825  0.00  0.00    -0.265 OA
BRANCH  11  13
ATOM     13  C   UNL d   1     -44.929  10.580  23.670  0.00  0.00     0.063 C 
ATOM     14  C   UNL d   1     -44.139  10.400  23.484  0.00  0.00     0.005 C 
ENDBRANCH  11  13
ENDBRANCH   1  10
BRANCH   7  15
ATOM     15  N   UNL d   1     -48.511  14.658  22.186  0.00  0.00    -0.208 NA
ATOM     16  C   UNL d   1     -49.096  14.928  22.693  0.00  0.00     0.279 C 
ATOM     17  O   UNL d   1     -49.053  14.785  23.511  0.00  0.00    -0.265 OA
ATOM     18  C   UNL d   1     -49.749  15.352  22.405  0.00  0.00     0.068 C 
ENDBRANCH   7  15
TORSDOF 3
ENDMDL
MODEL 2
REMARK VINA RESULT:      -6.9      1.561      4.367
REMARK  3 active torsions:
REMARK  status: ('A' for Active; 'I' for Inactive)
REMARK    1  A    between atoms: N_4  and  C_1 
REMARK       I    between atoms: C_8  and  N_4 
REMARK    2  A    between atoms: C_16  and  C_8 
REMARK       I    between atoms: C_9  and  N_10 
REMARK    3  A    between atoms: N_10  and  C_11 
ROOT
ATOM      1  C   UNL d   1     -48.894  13.939  22.868  0.00  0.00     0.197 A 
ATOM      2  N   UNL d   1     -48.689  13.261  23.237  0.00  0.00    -0.221 NA
ATOM      3  S   UNL d   1     -48.257  14.303  22.569  0.00  0.00    -0.047 SA
ATOM      4  C   UNL d   1     -47.614  13.863  22.740  0.00  0.00     0.051 A 
ATOM      5  C   UNL d   1     -47.886  13.208  23.161  0.00  0.00     0.090 A 
ATOM      6  C   UNL d   1     -46.813  13.941  22.588  0.00  0.00     0.027 A 
ATOM      7  C   UNL d   1     -46.279  13.377  22.845  0.00  0.00     0.085 A 
ATOM      8  C   UNL d   1     -47.359  12.625  23.431  0.00  0.00     0.021 A 
ATOM      9  C   UNL d   1     -46.551  12.722  23.266  0.00  0.00     0.021 A 
ENDROOT
BRANCH   1  10
ATOM     10  N   UNL d   1     -49.681  14.203  22.819  0.00  0.00    -0.183 NA
ATOM     11  C   UNL d   1     -49.954  14.874  23.225  0.00  0.00     0.281 C 
ATOM     12  O   UNL d   1     -49.413  15.292  23.698  0.00  0.00    -0.265 OA
BRANCH  11  13
ATOM     13  C   UNL d   1     -50.717  15.111  23.164  0.00  0.00     0.063 C 
ATOM     14  C   UNL d   1     -51.017  15.717  23.648  0.00  0.00     0.005 C 
ENDBRANCH  11  13
ENDBRANCH   1  10
BRANCH   7  15
ATOM     15  N   UNL d   1     -45.451  13.445  22.695  0.00  0.00    -0.208 NA
ATOM     16  C   UNL d   1     -45.150  13.111  22.010  0.00  0.00     0.279 C 
ATOM     17  O   UNL d   1     -45.645  12.714  21.474  0.00  0.00    -0.265 OA
ATOM     18  C   UNL d   1     -44.340  13.158  21.831  0.00  0.00     0.068 C 
ENDBRANCH   7  15
TORSDOF 3
ENDMDL
MODEL 3
REMARK VINA RESULT:      -6.8      1.943      3.780
REMARK  3 active torsions:
REMARK  status: ('A' for Active; 'I' for Inactive)
REMARK    1  A    between atoms: N_4  and  C_1 
REMARK       I    between atoms: C_8  and  N_4 
REMARK    2  A    between atoms: C_16  and  C_8 
REMARK       I    between atoms: C_9  and  N_10 
REMARK    3  A    between atoms: N_10  and  C_11 
ROOT
ATOM      1  C   UNL d   1     -48.348  12.689  23.435  0.00  0.00     0.197 A 
ATOM      2  N   UNL d   1     -48.208  13.434  23.186  0.00  0.00    -0.221 NA
ATOM      3  S   UNL d   1     -47.686  12.253  23.413  0.00  0.00    -0.047 SA
ATOM      4  C   UNL d   1     -47.092  12.714  23.146  0.00  0.00     0.051 A 
ATOM      5  C   UNL d   1     -47.421  13.457  23.003  0.00  0.00     0.090 A 
ATOM      6  C   UNL d   1     -46.295  12.591  23.002  0.00  0.00     0.027 A 
ATOM      7  C   UNL d   1     -45.820  13.194  22.720  0.00  0.00     0.085 A 
ATOM      8  C   UNL d   1     -46.954  14.082  22.716  0.00  0.00     0.021 A 
ATOM      9  C   UNL d   1     -46.149  13.937  22.577  0.00  0.00     0.021 A 
ENDROOT
BRANCH   1  10
ATOM     10  N   UNL d   1     -49.099  12.430  23.680  0.00  0.00    -0.183 NA
ATOM     11  C   UNL d   1     -49.648  12.091  23.156  0.00  0.00     0.281 C 
ATOM     12  O   UNL d   1     -49.430  12.010  22.359  0.00  0.00    -0.265 OA
BRANCH  11  13
ATOM     13  C   UNL d   1     -50.368  11.849  23.414  0.00  0.00     0.063 C 
ATOM     14  C   UNL d   1     -51.064  12.199  23.126  0.00  0.00     0.005 C 
ENDBRANCH  11  13
ENDBRANCH   1  10
BRANCH   7  15
ATOM     15  N   UNL d   1     -44.997  13.081  22.568  0.00  0.00    -0.208 NA
ATOM     16  C   UNL d   1     -44.761  12.915  21.801  0.00  0.00     0.279 C 
ATOM     17  O   UNL d   1     -45.316  12.859  21.185  0.00  0.00    -0.265 OA
ATOM     18  C   UNL d   1     -43.959  12.799  21.617  0.00  0.00     0.068 C 
ENDBRANCH   7  15
TORSDOF 3
ENDMDL
MODEL 4
REMARK VINA RESULT:      -6.7      1.819      2.135
REMARK  3 active torsions:
REMARK  status: ('A' for Active; 'I' for Inactive)
REMARK    1  A    between atoms: N_4  and  C_1 
REMARK       I    between atoms: C_8  and  N_4 
REMARK    2  A    between atoms: C_16  and  C_8 
REMARK       I    between atoms: C_9  and  N_10 
REMARK    3  A    between atoms: N_10  and  C_11 
ROOT
ATOM      1  C   UNL d   1     -48.291  11.807  23.176  0.00  0.00     0.197 A 
ATOM      2  N   UNL d   1     -48.439  12.051  22.430  0.00  0.00    -0.221 NA
ATOM      3  S   UNL d   1     -48.744  12.197  23.697  0.00  0.00    -0.047 SA
ATOM      4  C   UNL d   1     -49.201  12.712  23.294  0.00  0.00     0.051 A 
ATOM      5  C   UNL d   1     -49.009  12.620  22.497  0.00  0.00     0.090 A 
ATOM      6  C   UNL d   1     -49.770  13.259  23.511  0.00  0.00     0.027 A 
ATOM      7  C   UNL d   1     -50.151  13.716  22.950  0.00  0.00     0.085 A 
ATOM      8  C   UNL d   1     -49.385  13.075  21.912  0.00  0.00     0.021 A 
ATOM      9  C   UNL d   1     -49.959  13.625  22.153  0.00  0.00     0.021 A 
ENDROOT
BRANCH   1  10
ATOM     10  N   UNL d   1     -47.732  11.218  23.353  0.00  0.00    -0.183 NA
ATOM     11  C   UNL d   1     -46.930  11.388  23.483  0.00  0.00     0.281 C 
ATOM     12  O   UNL d   1     -46.684  12.180  23.432  0.00  0.00    -0.265 OA
BRANCH  11  13
ATOM     13  C   UNL d   1     -46.407  10.805  23.654  0.00  0.00     0.063 C 
ATOM     14  C   UNL d   1     -45.592  10.961  23.698  0.00  0.00     0.005 C 
ENDBRANCH  11  13
ENDBRANCH   1  10
BRANCH   7  15
ATOM     15  N   UNL d   1     -50.740  14.284  23.160  0.00  0.00    -0.208 NA
ATOM     16  C   UNL d   1     -50.502  15.050  23.327  0.00  0.00     0.279 C 
ATOM     17  O   UNL d   1     -49.700  15.266  23.291  0.00  0.00    -0.265 OA
ATOM     18  C   UNL d   1     -51.054  15.634  23.537  0.00  0.00     0.068 C 
ENDBRANCH   7  15
TORSDOF 3
ENDMDL
MODEL 5
REMARK VINA RESULT:      -5.8      7.995      8.407
REMARK  3 active torsions:
REMARK  status: ('A' for Active; 'I' for Inactive)
REMARK    1  A    between atoms: N_4  and  C_1 
REMARK       I    between atoms: C_8  and  N_4 
REMARK    2  A    between atoms: C_16  and  C_8 
REMARK       I    between atoms: C_9  and  N_10 
REMARK    3  A    between atoms: N_10  and  C_11 
ROOT
ATOM      1  C   UNL d   1     -39.150  14.424  20.337  0.00  0.00     0.197 A 
ATOM      2  N   UNL d   1     -38.896  13.956  19.742  0.00  0.00    -0.221 NA
ATOM      3  S   UNL d   1     -39.773  14.858  20.110  0.00  0.00    -0.047 SA
ATOM      4  C   UNL d   1     -39.939  14.679  19.351  0.00  0.00     0.051 A 
ATOM      5  C   UNL d   1     -39.387  14.111  19.119  0.00  0.00     0.090 A 
ATOM      6  C   UNL d   1     -40.504  14.934  18.815  0.00  0.00     0.027 A 
ATOM      7  C   UNL d   1     -40.529  14.634  18.054  0.00  0.00     0.085 A 
ATOM      8  C   UNL d   1     -39.397  13.795  18.351  0.00  0.00     0.021 A 
ATOM      9  C   UNL d   1     -39.978  14.066  17.823  0.00  0.00     0.021 A 
ENDROOT
BRANCH   1  10
ATOM     10  N   UNL d   1     -38.790  14.433  21.086  0.00  0.00    -0.183 NA
ATOM     11  C   UNL d   1     -39.103  14.026  21.738  0.00  0.00     0.281 C 
ATOM     12  O   UNL d   1     -39.805  13.594  21.631  0.00  0.00    -0.265 OA
BRANCH  11  13
ATOM     13  C   UNL d   1     -38.739  14.049  22.453  0.00  0.00     0.063 C 
ATOM     14  C   UNL d   1     -38.818  13.422  22.993  0.00  0.00     0.005 C 
ENDBRANCH  11  13
ENDBRANCH   1  10
BRANCH   7  15
ATOM     15  N   UNL d   1     -41.106  14.888  17.493  0.00  0.00    -0.208 NA
ATOM     16  C   UNL d   1     -40.930  15.528  17.013  0.00  0.00     0.279 C 
ATOM     17  O   UNL d   1     -40.199  15.921  17.076  0.00  0.00    -0.265 OA
ATOM     18  C   UNL d   1     -41.474  15.804  16.450  0.00  0.00     0.068 C 
ENDBRANCH   7  15
TORSDOF 3
ENDMDL
MODEL 6
REMARK VINA RESULT:      -5.6      7.395      8.690
REMARK  3 active torsions:
REMARK  status: ('A' for Active; 'I' for Inactive)
REMARK    1  A    between atoms: N_4  and  C_1 
REMARK       I    between atoms: C_8  and  N_4 
REMARK    2  A    between atoms: C_16  and  C_8 
REMARK       I    between atoms: C_9  and  N_10 
REMARK    3  A    between atoms: N_10  and  C_11 
ROOT
ATOM      1  C   UNL d   1     -40.407  15.525  18.662  0.00  0.00     0.197 A 
ATOM      2  N   UNL d   1     -40.934  15.602  19.257  0.00  0.00    -0.221 NA
ATOM      3  S   UNL d   1     -39.799  15.064  18.880  0.00  0.00    -0.047 SA
ATOM      4  C   UNL d   1     -39.920  14.829  19.632  0.00  0.00     0.051 A 
ATOM      5  C   UNL d   1     -40.634  15.167  19.870  0.00  0.00     0.090 A 
ATOM      6  C   UNL d   1     -39.503  14.359  20.157  0.00  0.00     0.027 A 
ATOM      7  C   UNL d   1     -39.783  14.219  20.913  0.00  0.00     0.085 A 
ATOM      8  C   UNL d   1     -40.935  15.037  20.633  0.00  0.00     0.021 A 
ATOM      9  C   UNL d   1     -40.497  14.557  21.150  0.00  0.00     0.021 A 
ENDROOT
BRANCH   1  10
ATOM     10  N   UNL d   1     -40.508  15.890  17.922  0.00  0.00    -0.183 NA
ATOM     11  C   UNL d   1     -40.954  15.548  17.312  0.00  0.00     0.281 C 
ATOM     12  O   UNL d   1     -41.311  14.811  17.453  0.00  0.00    -0.265 OA
BRANCH  11  13
ATOM     13  C   UNL d   1     -41.039  15.918  16.605  0.00  0.00     0.063 C 
ATOM     14  C   UNL d   1     -41.769  15.922  16.209  0.00  0.00     0.005 C 
ENDBRANCH  11  13
ENDBRANCH   1  10
BRANCH   7  15
ATOM     15  N   UNL d   1     -39.363  13.736  21.463  0.00  0.00    -0.208 NA
ATOM     16  C   UNL d   1     -38.955  14.102  22.072  0.00  0.00     0.279 C 
ATOM     17  O   UNL d   1     -38.953  14.930  22.149  0.00  0.00    -0.265 OA
ATOM     18  C   UNL d   1     -38.531  13.657  22.631  0.00  0.00     0.068 C 
ENDBRANCH   7  15
TORSDOF 3
ENDMDL
MODEL 7
REMARK VINA RESULT:      -5.4      8.299      9.340
REMARK  3 active torsions:
REMARK  status: ('A' for Active; 'I' for Inactive)
REMARK    1  A    between atoms: N_4  and  C_1 
REMARK       I    between atoms: C_8  and  N_4 
REMARK    2  A    between atoms: C_16  and  C_8 
REMARK       I    between atoms: C_9  and  N_10 
REMARK    3  A    between atoms: N_10  and  C_11 
ROOT
ATOM      1  C   UNL d   1     -40.020  15.600  19.718  0.00  0.00     0.197 A 
ATOM      2  N   UNL d   1     -40.546  15.079  19.418  0.00  0.00    -0.221 NA
ATOM      3  S   UNL d   1     -39.444  15.754  19.196  0.00  0.00    -0.047 SA
ATOM      4  C   UNL d   1     -39.586  15.331  18.535  0.00  0.00     0.051 A 
ATOM      5  C   UNL d   1     -40.279  14.906  18.675  0.00  0.00     0.090 A 
ATOM      6  C   UNL d   1     -39.203  15.251  17.816  0.00  0.00     0.027 A 
ATOM      7  C   UNL d   1     -39.497  14.758  17.233  0.00  0.00     0.085 A 
ATOM      8  C   UNL d   1     -40.594  14.399  18.096  0.00  0.00     0.021 A 
ATOM      9  C   UNL d   1     -40.191  14.333  17.373  0.00  0.00     0.021 A 
ENDROOT
BRANCH   1  10
ATOM     10  N   UNL d   1     -40.092  15.922  20.482  0.00  0.00    -0.183 NA
ATOM     11  C   UNL d   1     -39.710  15.595  21.142  0.00  0.00     0.281 C 
ATOM     12  O   UNL d   1     -39.239  14.920  21.029  0.00  0.00    -0.265 OA
BRANCH  11  13
ATOM     13  C   UNL d   1     -39.793  15.922  21.870  0.00  0.00     0.063 C 
ATOM     14  C   UNL d   1     -39.230  15.785  22.466  0.00  0.00     0.005 C 
ENDBRANCH  11  13
ENDBRANCH   1  10
BRANCH   7  15
ATOM     15  N   UNL d   1     -39.113  14.667  16.487  0.00  0.00    -0.208 NA
ATOM     16  C   UNL d   1     -38.633  14.013  16.372  0.00  0.00     0.279 C 
ATOM     17  O   UNL d   1     -38.525  13.450  16.974  0.00  0.00    -0.265 OA
ATOM     18  C   UNL d   1     -38.240  13.893  15.650  0.00  0.00     0.068 C 
ENDBRANCH   7  15
TORSDOF 3
ENDMDL
MODEL 8
REMARK VINA RESULT:      -5.2      8.440      9.301
REMARK  3 active torsions:
REMARK  status: ('A' for Active; 'I' for Inactive)
REMARK    1  A    between atoms: N_4  and  C_1 
REMARK       I    between atoms: C_8  and  N_4 
REMARK    2  A    between atoms: C_16  and  C_8 
REMARK       I    between atoms: C_9  and  N_10 
REMARK    3  A    between atoms: N_10  and  C_11 
ROOT
ATOM      1  C   UNL d   1     -39.483  14.867  17.338  0.00  0.00     0.197 A 
ATOM      2  N   UNL d   1     -40.034  14.392  17.669  0.00  0.00    -0.221 NA
ATOM      3  S   UNL d   1     -39.250  15.428  17.847  0.00  0.00    -0.047 SA
ATOM      4  C   UNL d   1     -39.649  15.328  18.530  0.00  0.00     0.051 A 
ATOM      5  C   UNL d   1     -40.143  14.677  18.418  0.00  0.00     0.090 A 
ATOM      6  C   UNL d   1     -39.656  15.719  19.250  0.00  0.00     0.027 A 
ATOM      7  C   UNL d   1     -40.143  15.474  19.859  0.00  0.00     0.085 A 
ATOM      8  C   UNL d   1     -40.646  14.412  19.025  0.00  0.00     0.021 A 
ATOM      9  C   UNL d   1     -40.637  14.822  19.747  0.00  0.00     0.021 A 
ENDROOT
BRANCH   1  10
ATOM     10  N   UNL d   1     -39.210  14.763  16.560  0.00  0.00    -0.183 NA
ATOM     11  C   UNL d   1     -38.665  14.171  16.353  0.00  0.00     0.281 C 
ATOM     12  O   UNL d   1     -38.387  13.667  16.952  0.00  0.00    -0.265 OA
BRANCH  11  13
ATOM     13  C   UNL d   1     -38.414  14.089  15.595  0.00  0.00     0.063 C 
ATOM     14  C   UNL d   1     -37.940  13.445  15.370  0.00  0.00     0.005 C 
ENDBRANCH  11  13
ENDBRANCH   1  10
BRANCH   7  15
ATOM     15  N   UNL d   1     -40.160  15.868  20.605  0.00  0.00    -0.208 NA
ATOM     16  C   UNL d   1     -39.716  15.558  21.220  0.00  0.00     0.279 C 
ATOM     17  O   UNL d   1     -39.259  14.872  21.115  0.00  0.00    -0.265 OA
ATOM     18  C   UNL d   1     -39.709  15.921  21.968  0.00  0.00     0.068 C 
ENDBRANCH   7  15
TORSDOF 3
ENDMDL
