MODEL 1
REMARK VINA RESULT:      -1.6      0.000      0.000
REMARK  2 active torsions:
REMARK  status: ('A' for Active; 'I' for Inactive)
REMARK       I    between atoms: N_4  and  C_1 
REMARK    1  A    between atoms: C_5  and  C_1 
REMARK       I    between atoms: C_2  and  N_3 
REMARK    2  A    between atoms: C_6  and  C_2 
ROOT
ATOM      1  C   UNL d   1      32.969  21.087 -20.472  0.00  0.00     0.265 C 
ATOM      2  C   UNL d   1      32.988  18.427 -22.749  0.00  0.00     0.265 C 
ATOM      3  N   UNL d   1      32.885  19.191 -22.488  0.00  0.00    -0.270 N 
ATOM      4  N   UNL d   1      32.916  20.521 -21.188  0.00  0.00    -0.270 N 
ATOM      5  C   UNL d   1      33.102  19.123 -21.673  0.00  0.00     0.102 A 
ATOM      6  C   UNL d   1      33.114  19.744 -21.074  0.00  0.00     0.102 A 
ATOM      7  O   UNL d   1      33.241  20.756 -19.666  0.00  0.00    -0.267 OA
ATOM      8  O   UNL d   1      33.239  17.856 -22.241  0.00  0.00    -0.267 OA
ATOM      9  C   UNL d   1      32.580  20.491 -22.573  0.00  0.00     0.038 A 
ATOM     10  C   UNL d   1      32.697  20.806 -21.818  0.00  0.00     0.085 A 
ATOM     11  C   UNL d   1      32.644  19.870 -22.864  0.00  0.00     0.085 A 
ENDROOT
BRANCH   2  12
ATOM     12  C   UNL d   1      32.833  18.252 -23.530  0.00  0.00     0.057 A 
ATOM     13  C   UNL d   1      32.309  17.670 -23.698  0.00  0.00     0.005 A 
ATOM     14  C   UNL d   1      32.148  17.488 -24.475  0.00  0.00     0.000 A 
ATOM     15  C   UNL d   1      31.619  16.901 -24.662  0.00  0.00     0.000 C 
ATOM     16  C   UNL d   1      32.519  17.898 -25.070  0.00  0.00     0.000 A 
ATOM     17  C   UNL d   1      33.047  18.484 -24.890  0.00  0.00     0.000 A 
ATOM     18  C   UNL d   1      33.204  18.662 -24.119  0.00  0.00     0.005 A 
ENDBRANCH   2  12
BRANCH   1  19
ATOM     19  C   UNL d   1      32.741  21.961 -20.620  0.00  0.00     0.057 A 
ATOM     20  C   UNL d   1      32.181  22.383 -20.051  0.00  0.00     0.005 A 
ATOM     21  C   UNL d   1      31.954  23.252 -20.196  0.00  0.00     0.000 A 
ATOM     22  C   UNL d   1      31.394  23.695 -19.638  0.00  0.00     0.000 C 
ATOM     23  C   UNL d   1      32.290  23.698 -20.919  0.00  0.00     0.000 A 
ATOM     24  C   UNL d   1      32.856  23.265 -21.492  0.00  0.00     0.000 A 
ATOM     25  C   UNL d   1      33.083  22.394 -21.343  0.00  0.00     0.005 A 
ENDBRANCH   1  19
TORSDOF 2
ENDMDL
MODEL 2
REMARK VINA RESULT:      -1.6      1.323      1.975
REMARK  2 active torsions:
REMARK  status: ('A' for Active; 'I' for Inactive)
REMARK       I    between atoms: N_4  and  C_1 
REMARK    1  A    between atoms: C_5  and  C_1 
REMARK       I    between atoms: C_2  and  N_3 
REMARK    2  A    between atoms: C_6  and  C_2 
ROOT
ATOM      1  C   UNL d   1      33.008  21.293 -22.782  0.00  0.00     0.265 C 
ATOM      2  C   UNL d   1      32.774  18.145 -24.300  0.00  0.00     0.265 C 
ATOM      3  N   UNL d   1      32.793  18.687 -23.692  0.00  0.00    -0.270 N 
ATOM      4  N   UNL d   1      32.930  20.408 -23.004  0.00  0.00    -0.270 N 
ATOM      5  C   UNL d   1      32.894  19.413 -24.113  0.00  0.00     0.102 A 
ATOM      6  C   UNL d   1      32.957  20.210 -23.788  0.00  0.00     0.102 A 
ATOM      7  O   UNL d   1      33.112  21.908 -23.448  0.00  0.00    -0.267 OA
ATOM      8  O   UNL d   1      32.845  18.392 -25.063  0.00  0.00    -0.267 OA
ATOM      9  C   UNL d   1      32.761  19.118 -22.425  0.00  0.00     0.038 A 
ATOM     10  C   UNL d   1      32.848  19.938 -22.459  0.00  0.00     0.085 A 
ATOM     11  C   UNL d   1      32.736  18.605 -22.886  0.00  0.00     0.085 A 
ENDROOT
BRANCH   2  12
ATOM     12  C   UNL d   1      32.681  17.356 -24.124  0.00  0.00     0.057 A 
ATOM     13  C   UNL d   1      32.030  16.974 -24.393  0.00  0.00     0.005 A 
ATOM     14  C   UNL d   1      31.929  16.185 -24.221  0.00  0.00     0.000 A 
ATOM     15  C   UNL d   1      31.275  15.783 -24.486  0.00  0.00     0.000 C 
ATOM     16  C   UNL d   1      32.488  15.793 -23.781  0.00  0.00     0.000 A 
ATOM     17  C   UNL d   1      33.143  16.188 -23.513  0.00  0.00     0.000 A 
ATOM     18  C   UNL d   1      33.239  16.970 -23.685  0.00  0.00     0.005 A 
ENDBRANCH   2  12
BRANCH   1  19
ATOM     19  C   UNL d   1      32.975  21.498 -21.891  0.00  0.00     0.057 A 
ATOM     20  C   UNL d   1      32.682  22.310 -21.626  0.00  0.00     0.005 A 
ATOM     21  C   UNL d   1      32.648  22.516 -20.741  0.00  0.00     0.000 A 
ATOM     22  C   UNL d   1      32.357  23.324 -20.453  0.00  0.00     0.000 C 
ATOM     23  C   UNL d   1      32.912  21.901 -20.118  0.00  0.00     0.000 A 
ATOM     24  C   UNL d   1      33.209  21.081 -20.392  0.00  0.00     0.000 A 
ATOM     25  C   UNL d   1      33.241  20.878 -21.281  0.00  0.00     0.005 A 
ENDBRANCH   1  19
TORSDOF 2
ENDMDL
