MODEL 1
REMARK VINA RESULT:      37.1      0.000      0.000
REMARK  6 active torsions:
REMARK  status: ('A' for Active; 'I' for Inactive)
REMARK    1  A    between atoms: C_5  and  S_1 
REMARK    2  A    between atoms: N_6  and  S_1 
REMARK       I    between atoms: N_2  and  C_3 
REMARK    3  A    between atoms: C_3  and  C_14 
REMARK    4  A    between atoms: C_4  and  C_7 
REMARK    5  A    between atoms: C_23  and  N_6 
REMARK    6  A    between atoms: C_24  and  C_23 
ROOT
ATOM      1  C   UNL d   1      46.024 -19.010  41.460  0.00  0.00     0.057 A 
ATOM      2  C   UNL d   1      46.647 -18.895  40.930  0.00  0.00     0.005 A 
ATOM      3  C   UNL d   1      45.301 -18.634  41.331  0.00  0.00     0.005 A 
ATOM      4  C   UNL d   1      45.824 -18.033  40.149  0.00  0.00     0.020 A 
ATOM      5  C   UNL d   1      46.548 -18.409  40.277  0.00  0.00     0.002 A 
ATOM      6  C   UNL d   1      45.201 -18.145  40.675  0.00  0.00     0.002 A 
ENDROOT
BRANCH   4   7
ATOM      7  C   UNL d   1      45.724 -17.544  39.493  0.00  0.00     0.112 C 
BRANCH   7   8
ATOM      8  N   UNL d   1      44.969 -17.330  39.253  0.00  0.00    -0.157 NA
BRANCH   8   9
ATOM      9  S   UNL d   1      44.872 -16.857  38.572  0.00  0.00     0.285 S 
ATOM     10  O   UNL d   1      45.377 -17.374  38.151  0.00  0.00    -0.198 OA
ATOM     11  O   UNL d   1      44.377 -16.350  38.991  0.00  0.00    -0.198 OA
BRANCH   9  12
ATOM     12  C   UNL d   1      44.784 -16.396  37.895  0.00  0.00     0.105 A 
ATOM     13  C   UNL d   1      45.337 -15.820  37.712  0.00  0.00     0.017 A 
ATOM     14  C   UNL d   1      45.249 -15.358  37.034  0.00  0.00     0.072 A 
ATOM     15  C   UNL d   1      44.596 -15.481  36.537  0.00  0.00     0.004 A 
ATOM     16  C   UNL d   1      44.041 -16.058  36.720  0.00  0.00     0.001 A 
ATOM     17  C   UNL d   1      44.138 -16.514  37.399  0.00  0.00     0.013 A 
BRANCH  14  18
ATOM     18  C   UNL d   1      45.801 -14.780  36.847  0.00  0.00     0.419 C 
ATOM     19  F   UNL d   1      46.319 -15.361  36.569  0.00  0.00    -0.166 F 
ATOM     20  F   UNL d   1      45.285 -14.193  37.125  0.00  0.00    -0.166 F 
ATOM     21  F   UNL d   1      46.360 -14.194  36.659  0.00  0.00    -0.166 F 
ENDBRANCH  14  18
ENDBRANCH   9  12
ENDBRANCH   8   9
ENDBRANCH   7   8
ENDBRANCH   4   7
BRANCH   1  22
ATOM     22  C   UNL d   1      46.124 -19.506  42.126  0.00  0.00     0.265 C 
ATOM     23  N   UNL d   1      46.220 -19.171  42.878  0.00  0.00    -0.268 N 
ATOM     24  C   UNL d   1      46.217 -18.350  42.968  0.00  0.00     0.108 A 
ATOM     25  C   UNL d   1      46.319 -19.662  43.533  0.00  0.00     0.108 A 
ATOM     26  C   UNL d   1      46.313 -18.018  43.724  0.00  0.00     0.118 A 
ATOM     27  C   UNL d   1      46.310 -17.193  43.816  0.00  0.00     0.028 C 
ATOM     28  O   UNL d   1      46.412 -18.509  44.379  0.00  0.00    -0.304 OA
ATOM     29  C   UNL d   1      46.416 -19.331  44.293  0.00  0.00     0.118 A 
ATOM     30  C   UNL d   1      46.516 -19.821  44.954  0.00  0.00     0.028 C 
ATOM     31  O   UNL d   1      46.127 -20.329  42.031  0.00  0.00    -0.267 OA
ENDBRANCH   1  22
TORSDOF 6
ENDMDL
MODEL 2
REMARK VINA RESULT:      39.6      0.988      1.422
REMARK  6 active torsions:
REMARK  status: ('A' for Active; 'I' for Inactive)
REMARK    1  A    between atoms: C_5  and  S_1 
REMARK    2  A    between atoms: N_6  and  S_1 
REMARK       I    between atoms: N_2  and  C_3 
REMARK    3  A    between atoms: C_3  and  C_14 
REMARK    4  A    between atoms: C_4  and  C_7 
REMARK    5  A    between atoms: C_23  and  N_6 
REMARK    6  A    between atoms: C_24  and  C_23 
ROOT
ATOM      1  C   UNL d   1      46.008 -18.999  41.352  0.00  0.00     0.057 A 
ATOM      2  C   UNL d   1      46.646 -18.778  40.877  0.00  0.00     0.005 A 
ATOM      3  C   UNL d   1      45.247 -18.739  41.163  0.00  0.00     0.005 A 
ATOM      4  C   UNL d   1      45.765 -18.042  40.033  0.00  0.00     0.020 A 
ATOM      5  C   UNL d   1      46.526 -18.301  40.221  0.00  0.00     0.002 A 
ATOM      6  C   UNL d   1      45.126 -18.260  40.504  0.00  0.00     0.002 A 
ENDROOT
BRANCH   4   7
ATOM      7  C   UNL d   1      45.643 -17.563  39.373  0.00  0.00     0.112 C 
BRANCH   7   8
ATOM      8  N   UNL d   1      44.891 -17.285  39.203  0.00  0.00    -0.157 NA
BRANCH   8   9
ATOM      9  S   UNL d   1      44.775 -16.793  38.538  0.00  0.00     0.285 S 
ATOM     10  O   UNL d   1      44.214 -16.350  38.972  0.00  0.00    -0.198 OA
ATOM     11  O   UNL d   1      45.328 -17.232  38.114  0.00  0.00    -0.198 OA
BRANCH   9  12
ATOM     12  C   UNL d   1      44.654 -16.303  37.887  0.00  0.00     0.105 A 
ATOM     13  C   UNL d   1      43.898 -16.186  37.593  0.00  0.00     0.017 A 
ATOM     14  C   UNL d   1      43.776 -15.694  36.941  0.00  0.00     0.072 A 
ATOM     15  C   UNL d   1      44.424 -15.320  36.585  0.00  0.00     0.004 A 
ATOM     16  C   UNL d   1      45.181 -15.437  36.879  0.00  0.00     0.001 A 
ATOM     17  C   UNL d   1      45.293 -15.928  37.529  0.00  0.00     0.013 A 
BRANCH  14  18
ATOM     18  C   UNL d   1      43.020 -15.575  36.644  0.00  0.00     0.419 C 
ATOM     19  F   UNL d   1      43.028 -14.799  36.931  0.00  0.00    -0.166 F 
ATOM     20  F   UNL d   1      43.007 -16.352  36.355  0.00  0.00    -0.166 F 
ATOM     21  F   UNL d   1      42.255 -15.455  36.344  0.00  0.00    -0.166 F 
ENDBRANCH  14  18
ENDBRANCH   9  12
ENDBRANCH   8   9
ENDBRANCH   7   8
ENDBRANCH   4   7
BRANCH   1  22
ATOM     22  C   UNL d   1      46.130 -19.485  42.022  0.00  0.00     0.265 C 
ATOM     23  N   UNL d   1      46.174 -19.143  42.776  0.00  0.00    -0.268 N 
ATOM     24  C   UNL d   1      46.097 -18.326  42.864  0.00  0.00     0.108 A 
ATOM     25  C   UNL d   1      46.294 -19.624  43.434  0.00  0.00     0.108 A 
ATOM     26  C   UNL d   1      46.142 -17.986  43.622  0.00  0.00     0.118 A 
ATOM     27  C   UNL d   1      46.065 -17.165  43.711  0.00  0.00     0.028 C 
ATOM     28  O   UNL d   1      46.262 -18.467  44.281  0.00  0.00    -0.304 OA
ATOM     29  C   UNL d   1      46.340 -19.286  44.196  0.00  0.00     0.118 A 
ATOM     30  C   UNL d   1      46.460 -19.765  44.861  0.00  0.00     0.028 C 
ATOM     31  O   UNL d   1      46.206 -20.304  41.929  0.00  0.00    -0.267 OA
ENDBRANCH   1  22
TORSDOF 6
ENDMDL
