MODEL 1
REMARK VINA RESULT:      40.9      0.000      0.000
REMARK  5 active torsions:
REMARK  status: ('A' for Active; 'I' for Inactive)
REMARK    1  A    between atoms: N_2  and  C_1 
REMARK    2  A    between atoms: C_9  and  C_5 
REMARK       I    between atoms: N_6  and  C_7 
REMARK    3  A    between atoms: C_11  and  N_6 
REMARK    4  A    between atoms: C_7  and  C_10 
REMARK    5  A    between atoms: C_10  and  C_9 
ROOT
ATOM      1  N   UNL d   1     -50.611  25.338  33.357  0.00  0.00    -0.208 NA
ATOM      2  C   UNL d   1     -50.754  26.126  33.346  0.00  0.00     0.279 C 
ATOM      3  O   UNL d   1     -51.516  26.420  33.321  0.00  0.00    -0.265 OA
ENDROOT
BRANCH   2   4
ATOM      4  C   UNL d   1     -50.120  26.657  33.361  0.00  0.00     0.063 C 
BRANCH   4   5
ATOM      5  C   UNL d   1     -50.162  27.368  33.797  0.00  0.00     0.011 C 
BRANCH   5   6
ATOM      6  C   UNL d   1     -49.499  27.702  34.118  0.00  0.00     0.031 A 
ATOM      7  S   UNL d   1     -49.377  28.400  34.538  0.00  0.00    -0.064 SA
ATOM      8  C   UNL d   1     -48.591  28.436  34.715  0.00  0.00     0.156 A 
ATOM      9  C   UNL d   1     -48.222  27.779  34.415  0.00  0.00     0.031 A 
ATOM     10  C   UNL d   1     -48.769  27.321  34.047  0.00  0.00     0.009 A 
BRANCH   8  11
ATOM     11  N   UNL d   1     -48.238  29.064  35.141  0.00  0.00    -0.107 N 
ATOM     12  O   UNL d   1     -48.098  29.788  34.807  0.00  0.00    -0.531 OA
ATOM     13  O   UNL d   1     -48.028  28.927  35.937  0.00  0.00    -0.531 OA
ENDBRANCH   8  11
ENDBRANCH   5   6
ENDBRANCH   4   5
ENDBRANCH   2   4
BRANCH   1  14
ATOM     14  C   UNL d   1     -51.242  24.809  33.342  0.00  0.00     0.085 A 
ATOM     15  C   UNL d   1     -51.097  23.993  33.321  0.00  0.00     0.018 A 
ATOM     16  C   UNL d   1     -50.323  23.714  33.314  0.00  0.00     0.002 C 
ATOM     17  C   UNL d   1     -51.726  23.466  33.306  0.00  0.00     0.002 A 
ATOM     18  C   UNL d   1     -52.510  23.748  33.313  0.00  0.00     0.000 A 
ATOM     19  C   UNL d   1     -52.646  24.564  33.334  0.00  0.00     0.002 A 
ATOM     20  C   UNL d   1     -52.018  25.091  33.349  0.00  0.00     0.019 A 
ENDBRANCH   1  14
TORSDOF 5
ENDMDL
