MODEL 1
REMARK VINA RESULT:      -1.4      0.000      0.000
REMARK  4 active torsions:
REMARK  status: ('A' for Active; 'I' for Inactive)
REMARK    1  A    between atoms: S_6  and  C_1 
REMARK    2  A    between atoms: N_9  and  N_2 
REMARK    3  A    between atoms: C_12  and  S_6 
REMARK       I    between atoms: C_10  and  N_9 
REMARK    4  A    between atoms: C_11  and  C_10 
ROOT
ATOM      1  C   UNL d   1      58.309  -0.738  30.238  0.00  0.00     0.146 A 
ATOM      2  N   UNL d   1      59.248  -0.400  29.341  0.00  0.00    -0.188 N 
ATOM      3  C   UNL d   1      58.735  -0.108  29.919  0.00  0.00     0.199 A 
ATOM      4  C   UNL d   1      59.141  -1.221  29.299  0.00  0.00     0.184 A 
ATOM      5  C   UNL d   1      58.562  -1.431  29.852  0.00  0.00     0.131 A 
ATOM      6  N   UNL d   1      59.491  -1.803  28.835  0.00  0.00    -0.224 NA
ATOM      7  N   UNL d   1      58.339  -2.216  29.936  0.00  0.00    -0.240 NA
ATOM      8  C   UNL d   1      59.265  -2.593  28.920  0.00  0.00     0.101 A 
ATOM      9  C   UNL d   1      58.685  -2.791  29.477  0.00  0.00     0.099 A 
ATOM     10  N   UNL d   1      58.663   0.682  30.137  0.00  0.00    -0.126 N 
ATOM     11  C   UNL d   1      59.615  -3.175  28.455  0.00  0.00     0.021 A 
ATOM     12  C   UNL d   1      58.456  -3.583  29.564  0.00  0.00     0.021 A 
ATOM     13  C   UNL d   1      58.809  -4.164  29.097  0.00  0.00     0.002 A 
ATOM     14  C   UNL d   1      59.389  -3.965  28.540  0.00  0.00     0.002 A 
ENDROOT
BRANCH   1  15
ATOM     15  S   UNL d   1      57.745  -0.697  30.823  0.00  0.00     0.214 S 
ATOM     16  O   UNL d   1      58.152  -0.858  31.528  0.00  0.00    -0.217 OA
ATOM     17  O   UNL d   1      57.339  -0.538  30.126  0.00  0.00    -0.217 OA
BRANCH  15  18
ATOM     18  C   UNL d   1      57.163  -0.653  31.409  0.00  0.00     0.088 A 
ATOM     19  C   UNL d   1      56.767  -1.290  31.754  0.00  0.00     0.011 A 
ATOM     20  C   UNL d   1      56.199  -1.156  32.333  0.00  0.00     0.001 A 
ATOM     21  C   UNL d   1      56.025  -0.387  32.570  0.00  0.00     0.000 A 
ATOM     22  C   UNL d   1      56.418   0.249  32.226  0.00  0.00     0.001 A 
ATOM     23  C   UNL d   1      55.457  -0.253  33.149  0.00  0.00     0.000 C 
ATOM     24  C   UNL d   1      56.994   0.119  31.639  0.00  0.00     0.011 A 
ENDBRANCH  15  18
ENDBRANCH   1  15
BRANCH   2  25
ATOM     25  N   UNL d   1      59.774   0.034  28.884  0.00  0.00    -0.120 NA
ATOM     26  C   UNL d   1      60.512   0.247  29.189  0.00  0.00     0.295 C 
ATOM     27  O   UNL d   1      61.032   0.680  28.729  0.00  0.00    -0.264 OA
BRANCH  26  28
ATOM     28  C   UNL d   1      60.723   0.023  29.955  0.00  0.00     0.059 A 
ATOM     29  C   UNL d   1      61.110  -0.499  30.467  0.00  0.00     0.005 A 
ATOM     30  C   UNL d   1      60.704   0.152  30.769  0.00  0.00     0.005 A 
ENDBRANCH  26  28
ENDBRANCH   2  25
TORSDOF 4
ENDMDL
