MODEL 1
REMARK VINA RESULT:      -9.5      0.000      0.000
REMARK  5 active torsions:
REMARK  status: ('A' for Active; 'I' for Inactive)
REMARK    1  A    between atoms: C_6  and  C_1 
REMARK    2  A    between atoms: C_7  and  C_5 
REMARK       I    between atoms: N_13  and  C_6 
REMARK    3  A    between atoms: C_8  and  C_12 
REMARK    4  A    between atoms: N_9  and  N_13 
REMARK    5  A    between atoms: C_12  and  N_9 
ROOT
ATOM      1  C   UNL d   1      50.333  34.216  52.607  0.00  0.00     0.164 A 
ATOM      2  C   UNL d   1      51.082  34.499  52.395  0.00  0.00     0.047 A 
ATOM      3  N   UNL d   1      50.939  33.292  53.503  0.00  0.00    -0.148 NA
ATOM      4  N   UNL d   1      50.258  33.614  53.160  0.00  0.00    -0.143 NA
ATOM      5  C   UNL d   1      51.688  33.575  53.292  0.00  0.00     0.105 A 
ENDROOT
BRANCH   1   6
ATOM      6  C   UNL d   1      49.659  34.545  52.257  0.00  0.00     0.316 C 
ATOM      7  N   UNL d   1      49.026  35.128  52.718  0.00  0.00    -0.104 NA
ATOM      8  O   UNL d   1      49.494  34.379  51.463  0.00  0.00    -0.262 OA
BRANCH   7   9
ATOM      9  N   UNL d   1      48.180  35.586  52.408  0.00  0.00    -0.143 NA
BRANCH   9  10
ATOM     10  C   UNL d   1      47.739  36.104  52.943  0.00  0.00     0.129 C 
BRANCH  10  11
ATOM     11  C   UNL d   1      46.917  36.324  52.758  0.00  0.00     0.050 A 
ATOM     12  S   UNL d   1      46.442  36.517  53.317  0.00  0.00    -0.085 SA
ATOM     13  C   UNL d   1      45.724  36.709  53.155  0.00  0.00     0.035 A 
ATOM     14  C   UNL d   1      45.480  36.707  52.435  0.00  0.00     0.007 A 
ATOM     15  C   UNL d   1      46.673  36.322  52.039  0.00  0.00     0.009 A 
ENDBRANCH  10  11
ENDBRANCH   9  10
ENDBRANCH   7   9
ENDBRANCH   1   6
BRANCH   5  16
ATOM     16  C   UNL d   1      52.463  33.396  53.509  0.00  0.00     0.019 A 
ATOM     17  C   UNL d   1      52.813  33.801  54.135  0.00  0.00     0.002 A 
ATOM     18  C   UNL d   1      53.592  33.624  54.356  0.00  0.00     0.000 A 
ATOM     19  C   UNL d   1      53.946  34.026  54.981  0.00  0.00     0.000 A 
ATOM     20  C   UNL d   1      54.015  33.038  53.944  0.00  0.00     0.000 A 
ATOM     21  C   UNL d   1      54.717  33.851  55.200  0.00  0.00     0.000 A 
ATOM     22  C   UNL d   1      55.146  33.268  54.794  0.00  0.00     0.000 A 
ATOM     23  C   UNL d   1      54.795  32.863  54.168  0.00  0.00     0.000 A 
ATOM     24  C   UNL d   1      53.657  32.643  53.325  0.00  0.00     0.000 A 
ATOM     25  C   UNL d   1      52.881  32.823  53.108  0.00  0.00     0.002 A 
ENDBRANCH   5  16
TORSDOF 5
ENDMDL
MODEL 2
REMARK VINA RESULT:      -9.1      1.268      1.888
REMARK  5 active torsions:
REMARK  status: ('A' for Active; 'I' for Inactive)
REMARK    1  A    between atoms: C_6  and  C_1 
REMARK    2  A    between atoms: C_7  and  C_5 
REMARK       I    between atoms: N_13  and  C_6 
REMARK    3  A    between atoms: C_8  and  C_12 
REMARK    4  A    between atoms: N_9  and  N_13 
REMARK    5  A    between atoms: C_12  and  N_9 
ROOT
ATOM      1  C   UNL d   1      50.539  34.137  52.579  0.00  0.00     0.164 A 
ATOM      2  C   UNL d   1      50.483  33.384  52.919  0.00  0.00     0.047 A 
ATOM      3  N   UNL d   1      51.957  34.015  52.551  0.00  0.00    -0.148 NA
ATOM      4  N   UNL d   1      51.273  34.455  52.394  0.00  0.00    -0.143 NA
ATOM      5  C   UNL d   1      51.901  33.263  52.892  0.00  0.00     0.105 A 
ENDROOT
BRANCH   1   6
ATOM      6  C   UNL d   1      49.850  34.567  52.425  0.00  0.00     0.316 C 
ATOM      7  N   UNL d   1      49.403  35.144  53.074  0.00  0.00    -0.104 NA
ATOM      8  O   UNL d   1      49.501  34.518  51.676  0.00  0.00    -0.262 OA
BRANCH   7   9
ATOM      9  N   UNL d   1      48.570  35.714  53.011  0.00  0.00    -0.143 NA
BRANCH   9  10
ATOM     10  C   UNL d   1      48.200  36.031  53.726  0.00  0.00     0.129 C 
BRANCH  10  11
ATOM     11  C   UNL d   1      47.365  36.278  53.711  0.00  0.00     0.050 A 
ATOM     12  S   UNL d   1      46.973  36.326  54.358  0.00  0.00    -0.085 SA
ATOM     13  C   UNL d   1      46.243  36.542  54.345  0.00  0.00     0.035 A 
ATOM     14  C   UNL d   1      45.906  36.709  53.685  0.00  0.00     0.007 A 
ATOM     15  C   UNL d   1      47.027  36.445  53.051  0.00  0.00     0.009 A 
ENDBRANCH  10  11
ENDBRANCH   9  10
ENDBRANCH   7   9
ENDBRANCH   1   6
BRANCH   5  16
ATOM     16  C   UNL d   1      52.441  32.683  53.120  0.00  0.00     0.019 A 
ATOM     17  C   UNL d   1      52.302  31.895  52.920  0.00  0.00     0.002 A 
ATOM     18  C   UNL d   1      52.842  31.311  53.148  0.00  0.00     0.000 A 
ATOM     19  C   UNL d   1      52.707  30.523  52.950  0.00  0.00     0.000 A 
ATOM     20  C   UNL d   1      53.522  31.522  53.578  0.00  0.00     0.000 A 
ATOM     21  C   UNL d   1      53.243  29.943  53.176  0.00  0.00     0.000 A 
ATOM     22  C   UNL d   1      53.923  30.146  53.605  0.00  0.00     0.000 A 
ATOM     23  C   UNL d   1      54.063  30.933  53.805  0.00  0.00     0.000 A 
ATOM     24  C   UNL d   1      53.650  32.305  53.771  0.00  0.00     0.000 A 
ATOM     25  C   UNL d   1      53.109  32.885  53.541  0.00  0.00     0.002 A 
ENDBRANCH   5  16
TORSDOF 5
ENDMDL
MODEL 3
REMARK VINA RESULT:      -7.7      2.654      6.604
REMARK  5 active torsions:
REMARK  status: ('A' for Active; 'I' for Inactive)
REMARK    1  A    between atoms: C_6  and  C_1 
REMARK    2  A    between atoms: C_7  and  C_5 
REMARK       I    between atoms: N_13  and  C_6 
REMARK    3  A    between atoms: C_8  and  C_12 
REMARK    4  A    between atoms: N_9  and  N_13 
REMARK    5  A    between atoms: C_12  and  N_9 
ROOT
ATOM      1  C   UNL d   1      51.252  33.751  52.815  0.00  0.00     0.164 A 
ATOM      2  C   UNL d   1      50.574  33.817  53.286  0.00  0.00     0.047 A 
ATOM      3  N   UNL d   1      50.609  34.501  51.790  0.00  0.00    -0.148 NA
ATOM      4  N   UNL d   1      51.273  34.091  52.068  0.00  0.00    -0.143 NA
ATOM      5  C   UNL d   1      49.931  34.568  52.261  0.00  0.00     0.105 A 
ENDROOT
BRANCH   1   6
ATOM      6  C   UNL d   1      51.909  33.339  53.102  0.00  0.00     0.316 C 
ATOM      7  N   UNL d   1      52.153  32.433  52.833  0.00  0.00    -0.104 NA
ATOM      8  O   UNL d   1      52.405  33.705  53.655  0.00  0.00    -0.262 OA
BRANCH   7   9
ATOM      9  N   UNL d   1      52.918  31.830  53.106  0.00  0.00    -0.143 NA
BRANCH   9  10
ATOM     10  C   UNL d   1      52.951  31.010  52.832  0.00  0.00     0.129 C 
BRANCH  10  11
ATOM     11  C   UNL d   1      53.173  30.375  53.385  0.00  0.00     0.050 A 
ATOM     12  S   UNL d   1      52.772  29.731  53.402  0.00  0.00    -0.085 SA
ATOM     13  C   UNL d   1      52.966  29.176  53.885  0.00  0.00     0.035 A 
ATOM     14  C   UNL d   1      53.560  29.265  54.351  0.00  0.00     0.007 A 
ATOM     15  C   UNL d   1      53.767  30.463  53.850  0.00  0.00     0.009 A 
ENDBRANCH  10  11
ENDBRANCH   9  10
ENDBRANCH   7   9
ENDBRANCH   1   6
BRANCH   5  16
ATOM     16  C   UNL d   1      49.192  34.921  52.173  0.00  0.00     0.019 A 
ATOM     17  C   UNL d   1      48.899  35.406  52.772  0.00  0.00     0.002 A 
ATOM     18  C   UNL d   1      48.157  35.763  52.688  0.00  0.00     0.000 A 
ATOM     19  C   UNL d   1      47.861  36.248  53.283  0.00  0.00     0.000 A 
ATOM     20  C   UNL d   1      47.710  35.629  51.999  0.00  0.00     0.000 A 
ATOM     21  C   UNL d   1      47.125  36.602  53.200  0.00  0.00     0.000 A 
ATOM     22  C   UNL d   1      46.673  36.473  52.516  0.00  0.00     0.000 A 
ATOM     23  C   UNL d   1      46.965  35.988  51.917  0.00  0.00     0.000 A 
ATOM     24  C   UNL d   1      48.010  35.146  51.413  0.00  0.00     0.000 A 
ATOM     25  C   UNL d   1      48.750  34.793  51.501  0.00  0.00     0.002 A 
ENDBRANCH   5  16
TORSDOF 5
ENDMDL
MODEL 4
REMARK VINA RESULT:      -7.4      1.858      6.772
REMARK  5 active torsions:
REMARK  status: ('A' for Active; 'I' for Inactive)
REMARK    1  A    between atoms: C_6  and  C_1 
REMARK    2  A    between atoms: C_7  and  C_5 
REMARK       I    between atoms: N_13  and  C_6 
REMARK    3  A    between atoms: C_8  and  C_12 
REMARK    4  A    between atoms: N_9  and  N_13 
REMARK    5  A    between atoms: C_12  and  N_9 
ROOT
ATOM      1  C   UNL d   1      50.362  34.553  52.646  0.00  0.00     0.164 A 
ATOM      2  C   UNL d   1      49.771  34.501  52.069  0.00  0.00     0.047 A 
ATOM      3  N   UNL d   1      49.525  35.405  53.421  0.00  0.00    -0.148 NA
ATOM      4  N   UNL d   1      50.242  35.004  53.323  0.00  0.00    -0.143 NA
ATOM      5  C   UNL d   1      48.934  35.352  52.843  0.00  0.00     0.105 A 
ENDROOT
BRANCH   1   6
ATOM      6  C   UNL d   1      51.075  34.149  52.538  0.00  0.00     0.316 C 
ATOM      7  N   UNL d   1      51.615  33.778  53.263  0.00  0.00    -0.104 NA
ATOM      8  O   UNL d   1      51.367  34.041  51.771  0.00  0.00    -0.262 OA
BRANCH   7   9
ATOM      9  N   UNL d   1      52.490  33.272  53.262  0.00  0.00    -0.143 NA
BRANCH   9  10
ATOM     10  C   UNL d   1      52.801  32.930  53.994  0.00  0.00     0.129 C 
BRANCH  10  11
ATOM     11  C   UNL d   1      53.636  33.048  54.210  0.00  0.00     0.050 A 
ATOM     12  S   UNL d   1      53.819  33.257  54.915  0.00  0.00    -0.085 SA
ATOM     13  C   UNL d   1      54.549  33.360  55.104  0.00  0.00     0.035 A 
ATOM     14  C   UNL d   1      55.096  33.255  54.586  0.00  0.00     0.007 A 
ATOM     15  C   UNL d   1      54.183  32.944  53.692  0.00  0.00     0.009 A 
ENDBRANCH  10  11
ENDBRANCH   9  10
ENDBRANCH   7   9
ENDBRANCH   1   6
BRANCH   5  16
ATOM     16  C   UNL d   1      48.175  35.663  52.753  0.00  0.00     0.019 A 
ATOM     17  C   UNL d   1      47.714  35.429  52.111  0.00  0.00     0.002 A 
ATOM     18  C   UNL d   1      46.951  35.739  52.017  0.00  0.00     0.000 A 
ATOM     19  C   UNL d   1      46.487  35.509  51.378  0.00  0.00     0.000 A 
ATOM     20  C   UNL d   1      46.657  36.285  52.572  0.00  0.00     0.000 A 
ATOM     21  C   UNL d   1      45.731  35.816  51.285  0.00  0.00     0.000 A 
ATOM     22  C   UNL d   1      45.430  36.361  51.834  0.00  0.00     0.000 A 
ATOM     23  C   UNL d   1      45.892  36.595  52.475  0.00  0.00     0.000 A 
ATOM     24  C   UNL d   1      47.123  36.510  53.203  0.00  0.00     0.000 A 
ATOM     25  C   UNL d   1      47.882  36.198  53.293  0.00  0.00     0.002 A 
ENDBRANCH   5  16
TORSDOF 5
ENDMDL
MODEL 5
REMARK VINA RESULT:      -6.7      1.385      2.091
REMARK  5 active torsions:
REMARK  status: ('A' for Active; 'I' for Inactive)
REMARK    1  A    between atoms: C_6  and  C_1 
REMARK    2  A    between atoms: C_7  and  C_5 
REMARK       I    between atoms: N_13  and  C_6 
REMARK    3  A    between atoms: C_8  and  C_12 
REMARK    4  A    between atoms: N_9  and  N_13 
REMARK    5  A    between atoms: C_12  and  N_9 
ROOT
ATOM      1  C   UNL d   1      49.125  35.239  52.833  0.00  0.00     0.164 A 
ATOM      2  C   UNL d   1      49.684  35.356  53.433  0.00  0.00     0.047 A 
ATOM      3  N   UNL d   1      50.001  34.311  52.203  0.00  0.00    -0.148 NA
ATOM      4  N   UNL d   1      49.280  34.718  52.217  0.00  0.00    -0.143 NA
ATOM      5  C   UNL d   1      50.560  34.428  52.803  0.00  0.00     0.105 A 
ENDROOT
BRANCH   1   6
ATOM      6  C   UNL d   1      48.408  35.651  52.857  0.00  0.00     0.316 C 
ATOM      7  N   UNL d   1      47.956  35.925  53.678  0.00  0.00    -0.104 NA
ATOM      8  O   UNL d   1      48.034  35.853  52.146  0.00  0.00    -0.262 OA
BRANCH   7   9
ATOM      9  N   UNL d   1      47.091  36.424  53.839  0.00  0.00    -0.143 NA
BRANCH   9  10
ATOM     10  C   UNL d   1      46.669  36.340  54.589  0.00  0.00     0.129 C 
BRANCH  10  11
ATOM     11  C   UNL d   1      45.813  36.176  54.592  0.00  0.00     0.050 A 
ATOM     12  S   UNL d   1      45.558  35.500  54.822  0.00  0.00    -0.085 SA
ATOM     13  C   UNL d   1      44.811  35.357  54.824  0.00  0.00     0.035 A 
ATOM     14  C   UNL d   1      44.319  35.890  54.597  0.00  0.00     0.007 A 
ATOM     15  C   UNL d   1      45.321  36.709  54.365  0.00  0.00     0.009 A 
ENDBRANCH  10  11
ENDBRANCH   9  10
ENDBRANCH   7   9
ENDBRANCH   1   6
BRANCH   5  16
ATOM     16  C   UNL d   1      51.311  34.131  52.968  0.00  0.00     0.019 A 
ATOM     17  C   UNL d   1      51.458  33.325  52.879  0.00  0.00     0.002 A 
ATOM     18  C   UNL d   1      52.212  33.023  53.044  0.00  0.00     0.000 A 
ATOM     19  C   UNL d   1      52.363  32.219  52.957  0.00  0.00     0.000 A 
ATOM     20  C   UNL d   1      52.815  33.536  53.298  0.00  0.00     0.000 A 
ATOM     21  C   UNL d   1      53.110  31.920  53.120  0.00  0.00     0.000 A 
ATOM     22  C   UNL d   1      53.717  32.425  53.374  0.00  0.00     0.000 A 
ATOM     23  C   UNL d   1      53.570  33.231  53.463  0.00  0.00     0.000 A 
ATOM     24  C   UNL d   1      52.658  34.333  53.383  0.00  0.00     0.000 A 
ATOM     25  C   UNL d   1      51.905  34.629  53.217  0.00  0.00     0.002 A 
ENDBRANCH   5  16
TORSDOF 5
ENDMDL
