MODEL 1
REMARK VINA RESULT:      24.2      0.000      0.000
REMARK  3 active torsions:
REMARK  status: ('A' for Active; 'I' for Inactive)
REMARK    1  A    between atoms: N_6  and  C_2 
REMARK    2  A    between atoms: C_7  and  C_5 
REMARK    3  A    between atoms: C_9  and  C_7 
ROOT
ATOM      1  N   UNL d   1      14.632  12.052  -2.100  0.00  0.00    -0.183 NA
ATOM      2  C   UNL d   1      14.022  12.591  -2.215  0.00  0.00     0.183 A 
ATOM      3  S   UNL d   1      13.972  13.066  -1.547  0.00  0.00    -0.045 SA
ATOM      4  C   UNL d   1      14.960  12.194  -1.360  0.00  0.00     0.287 A 
ATOM      5  C   UNL d   1      14.554  12.822  -1.012  0.00  0.00     0.090 A 
ATOM      6  O   UNL d   1      15.588  11.779  -1.022  0.00  0.00    -0.265 OA
ENDROOT
BRANCH   5   7
ATOM      7  C   UNL d   1      14.703  13.147  -0.269  0.00  0.00     0.011 C 
BRANCH   7   8
ATOM      8  C   UNL d   1      15.015  13.904  -0.204  0.00  0.00     0.001 A 
ATOM      9  C   UNL d   1      14.511  14.561  -0.262  0.00  0.00     0.001 A 
ATOM     10  C   UNL d   1      14.823  15.322  -0.197  0.00  0.00     0.011 A 
ATOM     11  C   UNL d   1      15.633  15.430  -0.074  0.00  0.00     0.058 A 
ATOM     12  C   UNL d   1      16.131  14.777  -0.017  0.00  0.00     0.011 A 
ATOM     13 CL   UNL d   1      15.903  16.208  -0.015  0.00  0.00    -0.082 Cl
ATOM     14  C   UNL d   1      15.832  14.017  -0.080  0.00  0.00     0.001 A 
ENDBRANCH   7   8
ENDBRANCH   5   7
BRANCH   2  15
ATOM     15  N   UNL d   1      13.610  12.547  -2.934  0.00  0.00    -0.280 N 
ATOM     16  C   UNL d   1      13.553  13.207  -3.422  0.00  0.00     0.109 A 
ATOM     17  C   UNL d   1      13.139  13.159  -4.143  0.00  0.00     0.142 A 
ATOM     18  O   UNL d   1      12.789  12.447  -4.361  0.00  0.00    -0.300 OA
ATOM     19  C   UNL d   1      12.846  11.779  -3.867  0.00  0.00     0.142 A 
ATOM     20  C   UNL d   1      13.256  11.834  -3.159  0.00  0.00     0.109 A 
ENDBRANCH   2  15
TORSDOF 3
ENDMDL
MODEL 2
REMARK VINA RESULT:      25.2      2.226      3.969
REMARK  3 active torsions:
REMARK  status: ('A' for Active; 'I' for Inactive)
REMARK    1  A    between atoms: N_6  and  C_2 
REMARK    2  A    between atoms: C_7  and  C_5 
REMARK    3  A    between atoms: C_9  and  C_7 
ROOT
ATOM      1  N   UNL d   1      15.203  13.415  -0.332  0.00  0.00    -0.183 NA
ATOM      2  C   UNL d   1      14.854  13.849  -0.936  0.00  0.00     0.183 A 
ATOM      3  S   UNL d   1      14.508  13.321  -1.462  0.00  0.00    -0.045 SA
ATOM      4  C   UNL d   1      15.073  12.618  -0.484  0.00  0.00     0.287 A 
ATOM      5  C   UNL d   1      14.642  12.554  -1.184  0.00  0.00     0.090 A 
ATOM      6  O   UNL d   1      15.330  11.989  -0.016  0.00  0.00    -0.265 OA
ENDROOT
BRANCH   5   7
ATOM      7  C   UNL d   1      14.392  11.853  -1.540  0.00  0.00     0.011 C 
BRANCH   7   8
ATOM      8  C   UNL d   1      13.988  11.876  -2.256  0.00  0.00     0.001 A 
ATOM      9  C   UNL d   1      14.410  11.995  -2.960  0.00  0.00     0.001 A 
ATOM     10  C   UNL d   1      14.006  12.018  -3.679  0.00  0.00     0.011 A 
ATOM     11  C   UNL d   1      13.186  11.922  -3.697  0.00  0.00     0.058 A 
ATOM     12  C   UNL d   1      12.769  11.803  -2.997  0.00  0.00     0.011 A 
ATOM     13 CL   UNL d   1      12.821  11.951  -4.438  0.00  0.00    -0.082 Cl
ATOM     14  C   UNL d   1      13.160  11.779  -2.278  0.00  0.00     0.001 A 
ENDBRANCH   7   8
ENDBRANCH   5   7
BRANCH   2  15
ATOM     15  N   UNL d   1      14.919  14.676  -0.894  0.00  0.00    -0.280 N 
ATOM     16  C   UNL d   1      14.759  15.140  -1.554  0.00  0.00     0.109 A 
ATOM     17  C   UNL d   1      14.825  15.969  -1.507  0.00  0.00     0.142 A 
ATOM     18  O   UNL d   1      15.050  16.317  -0.797  0.00  0.00    -0.300 OA
ATOM     19  C   UNL d   1      15.212  15.847  -0.128  0.00  0.00     0.142 A 
ATOM     20  C   UNL d   1      15.145  15.031  -0.182  0.00  0.00     0.109 A 
ENDBRANCH   2  15
TORSDOF 3
ENDMDL
