MODEL 1
REMARK VINA RESULT:       2.3      0.000      0.000
REMARK  5 active torsions:
REMARK  status: ('A' for Active; 'I' for Inactive)
REMARK    1  A    between atoms: C_12  and  C_3 
REMARK    2  A    between atoms: C_14  and  N_5 
REMARK    3  A    between atoms: C_11  and  C_6 
REMARK    4  A    between atoms: O_25  and  C_12 
REMARK    5  A    between atoms: C_24  and  C_14 
ROOT
ATOM      1  C   UNL d   1      30.553  17.570 -24.561  0.00  0.00     0.080 A 
ATOM      2  C   UNL d   1      30.237  16.825 -24.385  0.00  0.00     0.267 A 
ATOM      3  C   UNL d   1      31.656  18.488 -24.565  0.00  0.00     0.106 A 
ATOM      4  C   UNL d   1      30.077  18.152 -24.917  0.00  0.00     0.108 A 
ATOM      5  N   UNL d   1      29.442  16.660 -24.564  0.00  0.00    -0.271 N 
ATOM      6  C   UNL d   1      31.340  17.744 -24.388  0.00  0.00     0.015 A 
ATOM      7  C   UNL d   1      31.181  19.062 -24.916  0.00  0.00     0.208 A 
ATOM      8  O   UNL d   1      30.383  18.900 -25.097  0.00  0.00    -0.288 OA
ATOM      9  C   UNL d   1      29.287  17.987 -25.094  0.00  0.00     0.043 A 
ATOM     10  C   UNL d   1      28.966  17.242 -24.919  0.00  0.00     0.069 A 
ATOM     11  O   UNL d   1      30.709  16.248 -24.033  0.00  0.00    -0.267 OA
ATOM     12  N   UNL d   1      31.493  19.810 -25.094  0.00  0.00    -0.121 N 
ATOM     13  C   UNL d   1      28.180  17.080 -25.096  0.00  0.00     0.019 C 
ENDROOT
BRANCH   6  14
ATOM     14  C   UNL d   1      31.816  17.170 -24.037  0.00  0.00     0.001 A 
ATOM     15  C   UNL d   1      31.919  17.173 -23.217  0.00  0.00     0.012 A 
ATOM     16  C   UNL d   1      32.395  16.599 -22.864  0.00  0.00     0.068 A 
ATOM     17 CL   UNL d   1      32.499  16.600 -22.049  0.00  0.00    -0.082 Cl
ATOM     18  C   UNL d   1      32.765  16.027 -23.324  0.00  0.00     0.068 A 
ATOM     19  C   UNL d   1      32.655  16.032 -24.152  0.00  0.00     0.012 A 
ATOM     20 CL   UNL d   1      33.241  15.453 -22.976  0.00  0.00    -0.082 Cl
ATOM     21  C   UNL d   1      32.178  16.607 -24.501  0.00  0.00     0.001 A 
ENDBRANCH   6  14
BRANCH   3  22
ATOM     22  C   UNL d   1      32.437  18.656 -24.391  0.00  0.00     0.299 C 
ATOM     23  O   UNL d   1      33.042  18.342 -24.855  0.00  0.00    -0.259 OA
BRANCH  22  24
ATOM     24  O   UNL d   1      32.626  19.140 -23.753  0.00  0.00    -0.296 OA
ATOM     25  C   UNL d   1      33.223  19.709 -23.821  0.00  0.00     0.185 C 
ENDBRANCH  22  24
ENDBRANCH   3  22
BRANCH   5  26
ATOM     26  C   UNL d   1      29.123  15.927 -24.393  0.00  0.00     0.108 C 
BRANCH  26  27
ATOM     27  C   UNL d   1      28.641  15.827 -23.735  0.00  0.00     0.118 A 
ATOM     28  O   UNL d   1      27.869  16.078 -23.659  0.00  0.00    -0.304 OA
ATOM     29  C   UNL d   1      27.598  15.864 -22.913  0.00  0.00     0.123 A 
ATOM     30  C   UNL d   1      28.209  15.475 -22.517  0.00  0.00     0.029 A 
ATOM     31  C   UNL d   1      28.857  15.454 -23.031  0.00  0.00     0.028 A 
ENDBRANCH  26  27
ENDBRANCH   5  26
TORSDOF 5
ENDMDL
