MODEL 1
REMARK VINA RESULT:      90.2      0.000      0.000
REMARK  4 active torsions:
REMARK  status: ('A' for Active; 'I' for Inactive)
REMARK    1  A    between atoms: N_10  and  C_3 
REMARK    2  A    between atoms: C_11  and  C_5 
REMARK    3  A    between atoms: C_13  and  N_10 
REMARK    4  A    between atoms: C_15  and  C_13 
ROOT
ATOM      1  N   UNL d   1     -56.706-100.098 -43.304  0.00  0.00    -0.195 N 
ATOM      2  C   UNL d   1     -57.066 -99.865 -44.025  0.00  0.00     0.167 A 
ATOM      3  C   UNL d   1     -55.974-100.482 -43.318  0.00  0.00     0.167 A 
ATOM      4  N   UNL d   1     -57.805 -99.563 -42.583  0.00  0.00    -0.163 NA
ATOM      5  C   UNL d   1     -57.781 -99.490 -44.013  0.00  0.00     0.055 A 
ATOM      6  N   UNL d   1     -56.681-100.024 -44.734  0.00  0.00    -0.227 NA
ATOM      7  C   UNL d   1     -55.606-100.632 -44.026  0.00  0.00     0.054 A 
ATOM      8  C   UNL d   1     -58.160 -99.334 -43.293  0.00  0.00     0.104 A 
ATOM      9  C   UNL d   1     -55.959-100.403 -44.751  0.00  0.00     0.086 A 
ATOM     10  C   UNL d   1     -54.903-100.991 -44.212  0.00  0.00     0.005 A 
ATOM     11  C   UNL d   1     -58.884 -98.953 -43.289  0.00  0.00     0.023 C 
ATOM     12  C   UNL d   1     -55.465-100.625 -45.366  0.00  0.00     0.019 A 
ATOM     13  C   UNL d   1     -54.804-100.994 -45.024  0.00  0.00     0.002 A 
ENDROOT
BRANCH   3  14
ATOM     14  N   UNL d   1     -55.607-100.719 -42.592  0.00  0.00    -0.224 NA
BRANCH  14  15
ATOM     15  C   UNL d   1     -54.885-101.036 -42.288  0.00  0.00     0.120 C 
BRANCH  15  16
ATOM     16  C   UNL d   1     -54.878-101.429 -41.552  0.00  0.00     0.101 A 
ATOM     17  N   UNL d   1     -54.917-102.276 -41.526  0.00  0.00    -0.242 NA
ATOM     18  C   UNL d   1     -54.911-102.676 -40.785  0.00  0.00     0.099 A 
ATOM     19  C   UNL d   1     -54.866-102.230 -40.068  0.00  0.00     0.021 A 
ATOM     20  C   UNL d   1     -54.827-101.384 -40.094  0.00  0.00     0.003 A 
ATOM     21  C   UNL d   1     -54.834-100.989 -40.843  0.00  0.00     0.021 A 
ENDBRANCH  15  16
ENDBRANCH  14  15
ENDBRANCH   3  14
BRANCH   5  22
ATOM     22  C   UNL d   1     -58.133 -99.261 -44.718  0.00  0.00     0.004 A 
ATOM     23  C   UNL d   1     -57.708 -99.276 -45.416  0.00  0.00     0.000 A 
ATOM     24  C   UNL d   1     -58.064 -99.046 -46.130  0.00  0.00     0.000 A 
ATOM     25  C   UNL d   1     -58.838 -98.805 -46.131  0.00  0.00     0.000 A 
ATOM     26  C   UNL d   1     -59.271 -98.788 -45.429  0.00  0.00     0.000 A 
ATOM     27  C   UNL d   1     -58.917 -99.016 -44.728  0.00  0.00     0.000 A 
ENDBRANCH   5  22
TORSDOF 4
ENDMDL
