MODEL 1
REMARK VINA RESULT:      69.5      0.000      0.000
REMARK  3 active torsions:
REMARK  status: ('A' for Active; 'I' for Inactive)
REMARK    1  A    between atoms: N_3  and  S_1 
REMARK    2  A    between atoms: C_9  and  S_1 
REMARK    3  A    between atoms: C_2  and  N_3 
ROOT
ATOM      1  C   UNL d   1     -54.749-100.839 -40.956  0.00  0.00     0.157 A 
ATOM      2  C   UNL d   1     -54.748-100.068 -40.676  0.00  0.00     0.102 A 
ATOM      3  C   UNL d   1     -54.740 -99.933 -39.862  0.00  0.00     0.110 A 
ATOM      4  C   UNL d   1     -54.734-100.570 -39.329  0.00  0.00     0.207 A 
ATOM      5  C   UNL d   1     -54.743-101.465 -40.444  0.00  0.00     0.035 A 
ATOM      6  C   UNL d   1     -54.736-101.330 -39.631  0.00  0.00     0.042 A 
ATOM      7 CL   UNL d   1     -54.754 -99.429 -41.190  0.00  0.00    -0.079 Cl
ATOM      8 CL   UNL d   1     -54.739 -99.159 -39.562  0.00  0.00    -0.078 Cl
ATOM      9  O   UNL d   1     -54.727-100.435 -38.515  0.00  0.00    -0.286 OA
ATOM     10  C   UNL d   1     -54.745-102.236 -40.725  0.00  0.00     0.003 A 
ATOM     11  C   UNL d   1     -54.730-101.967 -39.097  0.00  0.00     0.003 A 
ATOM     12  C   UNL d   1     -54.731-102.741 -39.397  0.00  0.00     0.000 A 
ATOM     13  C   UNL d   1     -54.739-102.876 -40.211  0.00  0.00     0.000 A 
ENDROOT
BRANCH   1  14
ATOM     14  N   UNL d   1     -54.757-100.974 -41.770  0.00  0.00    -0.316 NA
BRANCH  14  15
ATOM     15  S   UNL d   1     -54.764-101.109 -42.584  0.00  0.00     0.327 S 
ATOM     16  O   UNL d   1     -54.731-101.908 -42.452  0.00  0.00    -0.186 OA
ATOM     17  O   UNL d   1     -54.799-100.295 -42.714  0.00  0.00    -0.186 OA
BRANCH  15  18
ATOM     18  C   UNL d   1     -54.772-101.243 -43.393  0.00  0.00     0.116 A 
ATOM     19  C   UNL d   1     -54.794-102.002 -43.686  0.00  0.00     0.014 A 
ATOM     20  C   UNL d   1     -54.802-102.136 -44.500  0.00  0.00     0.001 A 
ATOM     21  C   UNL d   1     -54.787-101.498 -45.023  0.00  0.00     0.000 A 
ATOM     22  C   UNL d   1     -54.764-100.726 -44.734  0.00  0.00     0.001 A 
ATOM     23  C   UNL d   1     -54.795-101.653 -45.839  0.00  0.00     0.000 C 
ATOM     24  C   UNL d   1     -54.756-100.590 -43.911  0.00  0.00     0.014 A 
ENDBRANCH  15  18
ENDBRANCH  14  15
ENDBRANCH   1  14
TORSDOF 3
ENDMDL
MODEL 2
REMARK VINA RESULT:      71.5      1.116      1.505
REMARK  3 active torsions:
REMARK  status: ('A' for Active; 'I' for Inactive)
REMARK    1  A    between atoms: N_3  and  S_1 
REMARK    2  A    between atoms: C_9  and  S_1 
REMARK    3  A    between atoms: C_2  and  N_3 
ROOT
ATOM      1  C   UNL d   1     -54.827-100.827 -39.456  0.00  0.00     0.157 A 
ATOM      2  C   UNL d   1     -54.877-100.056 -39.179  0.00  0.00     0.102 A 
ATOM      3  C   UNL d   1     -54.895 -99.918 -38.366  0.00  0.00     0.110 A 
ATOM      4  C   UNL d   1     -54.864-100.551 -37.830  0.00  0.00     0.207 A 
ATOM      5  C   UNL d   1     -54.796-101.450 -38.940  0.00  0.00     0.035 A 
ATOM      6  C   UNL d   1     -54.815-101.311 -38.127  0.00  0.00     0.042 A 
ATOM      7 CL   UNL d   1     -54.909 -99.420 -39.697  0.00  0.00    -0.079 Cl
ATOM      8 CL   UNL d   1     -54.946 -99.144 -38.071  0.00  0.00    -0.078 Cl
ATOM      9  O   UNL d   1     -54.883-100.413 -37.016  0.00  0.00    -0.286 OA
ATOM     10  C   UNL d   1     -54.746-102.221 -39.217  0.00  0.00     0.003 A 
ATOM     11  C   UNL d   1     -54.783-101.944 -37.591  0.00  0.00     0.003 A 
ATOM     12  C   UNL d   1     -54.733-102.718 -37.886  0.00  0.00     0.000 A 
ATOM     13  C   UNL d   1     -54.714-102.857 -38.699  0.00  0.00     0.000 A 
ENDROOT
BRANCH   1  14
ATOM     14  N   UNL d   1     -54.808-100.966 -40.269  0.00  0.00    -0.316 NA
BRANCH  14  15
ATOM     15  S   UNL d   1     -54.790-101.104 -41.082  0.00  0.00     0.327 S 
ATOM     16  O   UNL d   1     -54.860-101.901 -40.948  0.00  0.00    -0.186 OA
ATOM     17  O   UNL d   1     -54.718-100.292 -41.213  0.00  0.00    -0.186 OA
BRANCH  15  18
ATOM     18  C   UNL d   1     -54.771-101.241 -41.890  0.00  0.00     0.116 A 
ATOM     19  C   UNL d   1     -54.749-102.001 -42.180  0.00  0.00     0.014 A 
ATOM     20  C   UNL d   1     -54.730-102.140 -42.993  0.00  0.00     0.001 A 
ATOM     21  C   UNL d   1     -54.734-101.504 -43.519  0.00  0.00     0.000 A 
ATOM     22  C   UNL d   1     -54.757-100.730 -43.233  0.00  0.00     0.001 A 
ATOM     23  C   UNL d   1     -54.715-101.662 -44.334  0.00  0.00     0.000 C 
ATOM     24  C   UNL d   1     -54.775-100.591 -42.411  0.00  0.00     0.014 A 
ENDBRANCH  15  18
ENDBRANCH  14  15
ENDBRANCH   1  14
TORSDOF 3
ENDMDL
