MODEL 1
REMARK VINA RESULT:      -8.1      0.000      0.000
REMARK  9 active torsions:
REMARK  status: ('A' for Active; 'I' for Inactive)
REMARK    1  A    between atoms: C_2  and  S_1 
REMARK    2  A    between atoms: N_3  and  S_1 
REMARK    3  A    between atoms: C_14  and  N_3 
REMARK    4  A    between atoms: C_15  and  N_3 
REMARK    5  A    between atoms: C_6  and  C_7 
REMARK    6  A    between atoms: C_7  and  C_8 
REMARK    7  A    between atoms: C_8  and  C_12 
REMARK    8  A    between atoms: C_21  and  C_14 
REMARK    9  A    between atoms: C_20  and  C_15 
ROOT
ATOM      1  C   UNL d   1      53.312  32.177  53.632  0.00  0.00     0.104 A 
ATOM      2  C   UNL d   1      52.782  32.192  52.996  0.00  0.00     0.012 A 
ATOM      3  C   UNL d   1      53.591  31.445  53.930  0.00  0.00     0.013 A 
ATOM      4  C   UNL d   1      53.338  30.749  53.592  0.00  0.00     0.001 A 
ATOM      5  C   UNL d   1      52.529  31.496  52.658  0.00  0.00     0.001 A 
ATOM      6  C   UNL d   1      52.800  30.766  52.947  0.00  0.00     0.000 A 
ATOM      7  C   UNL d   1      52.512  32.917  52.707  0.00  0.00     0.001 C 
ENDROOT
BRANCH   1   8
ATOM      8  S   UNL d   1      53.572  32.892  53.979  0.00  0.00     0.272 S 
ATOM      9  O   UNL d   1      54.143  32.973  53.384  0.00  0.00    -0.200 OA
ATOM     10  O   UNL d   1      53.006  32.812  54.568  0.00  0.00    -0.200 OA
BRANCH   8  11
ATOM     11  N   UNL d   1      53.825  33.589  54.317  0.00  0.00    -0.223 N 
BRANCH  11  12
ATOM     12  C   UNL d   1      53.265  34.173  54.545  0.00  0.00     0.137 C 
BRANCH  12  13
ATOM     13  C   UNL d   1      53.436  34.962  54.441  0.00  0.00     0.254 C 
ATOM     14  O   UNL d   1      52.883  35.537  54.641  0.00  0.00    -0.281 OA
ENDBRANCH  12  13
ENDBRANCH  11  12
BRANCH  11  15
ATOM     15  C   UNL d   1      54.635  33.727  54.439  0.00  0.00     0.137 C 
BRANCH  15  16
ATOM     16  C   UNL d   1      54.927  33.749  55.213  0.00  0.00     0.254 C 
ATOM     17  O   UNL d   1      55.708  33.984  55.338  0.00  0.00    -0.281 OA
ENDBRANCH  15  16
ENDBRANCH  11  15
ENDBRANCH   8  11
ENDBRANCH   1   8
BRANCH   4  18
ATOM     18  C   UNL d   1      53.604  30.023  53.877  0.00  0.00     0.006 C 
BRANCH  18  19
ATOM     19  C   UNL d   1      53.069  29.474  54.164  0.00  0.00     0.070 C 
BRANCH  19  20
ATOM     20  C   UNL d   1      53.312  28.841  54.627  0.00  0.00     0.211 C 
ATOM     21  O   UNL d   1      53.153  28.852  55.449  0.00  0.00    -0.644 OA
ATOM     22  O   UNL d   1      53.699  28.211  54.302  0.00  0.00    -0.644 OA
ENDBRANCH  19  20
ENDBRANCH  18  19
ENDBRANCH   4  18
TORSDOF 9
ENDMDL
MODEL 2
REMARK VINA RESULT:      -7.9      1.249      2.082
REMARK  9 active torsions:
REMARK  status: ('A' for Active; 'I' for Inactive)
REMARK    1  A    between atoms: C_2  and  S_1 
REMARK    2  A    between atoms: N_3  and  S_1 
REMARK    3  A    between atoms: C_14  and  N_3 
REMARK    4  A    between atoms: C_15  and  N_3 
REMARK    5  A    between atoms: C_6  and  C_7 
REMARK    6  A    between atoms: C_7  and  C_8 
REMARK    7  A    between atoms: C_8  and  C_12 
REMARK    8  A    between atoms: C_21  and  C_14 
REMARK    9  A    between atoms: C_20  and  C_15 
ROOT
ATOM      1  C   UNL d   1      53.439  32.843  53.591  0.00  0.00     0.104 A 
ATOM      2  C   UNL d   1      54.265  32.857  53.655  0.00  0.00     0.012 A 
ATOM      3  C   UNL d   1      53.038  32.113  53.494  0.00  0.00     0.013 A 
ATOM      4  C   UNL d   1      53.463  31.419  53.464  0.00  0.00     0.001 A 
ATOM      5  C   UNL d   1      54.690  32.164  53.625  0.00  0.00     0.001 A 
ATOM      6  C   UNL d   1      54.300  31.437  53.530  0.00  0.00     0.000 A 
ATOM      7  C   UNL d   1      54.653  33.579  53.750  0.00  0.00     0.001 C 
ENDROOT
BRANCH   1   8
ATOM      8  S   UNL d   1      53.003  33.555  53.621  0.00  0.00     0.272 S 
ATOM      9  O   UNL d   1      53.192  33.705  52.828  0.00  0.00    -0.200 OA
ATOM     10  O   UNL d   1      52.816  33.407  54.407  0.00  0.00    -0.200 OA
BRANCH   8  11
ATOM     11  N   UNL d   1      52.578  34.250  53.651  0.00  0.00    -0.223 N 
BRANCH  11  12
ATOM     12  C   UNL d   1      52.684  34.780  54.295  0.00  0.00     0.137 C 
BRANCH  12  13
ATOM     13  C   UNL d   1      52.775  35.577  54.155  0.00  0.00     0.254 C 
ATOM     14  O   UNL d   1      52.895  36.098  54.779  0.00  0.00    -0.281 OA
ENDBRANCH  12  13
ENDBRANCH  11  12
BRANCH  11  15
ATOM     15  C   UNL d   1      52.038  34.438  53.049  0.00  0.00     0.137 C 
BRANCH  15  16
ATOM     16  C   UNL d   1      51.230  34.458  53.224  0.00  0.00     0.254 C 
ATOM     17  O   UNL d   1      50.690  34.531  52.605  0.00  0.00    -0.281 OA
ENDBRANCH  15  16
ENDBRANCH  11  15
ENDBRANCH   8  11
ENDBRANCH   1   8
BRANCH   4  18
ATOM     18  C   UNL d   1      53.079  30.696  53.370  0.00  0.00     0.006 C 
BRANCH  18  19
ATOM     19  C   UNL d   1      53.379  30.024  53.728  0.00  0.00     0.070 C 
BRANCH  19  20
ATOM     20  C   UNL d   1      52.929  29.341  53.801  0.00  0.00     0.211 C 
ATOM     21  O   UNL d   1      53.075  28.822  54.442  0.00  0.00    -0.644 OA
ATOM     22  O   UNL d   1      52.351  29.163  53.265  0.00  0.00    -0.644 OA
ENDBRANCH  19  20
ENDBRANCH  18  19
ENDBRANCH   4  18
TORSDOF 9
ENDMDL
MODEL 3
REMARK VINA RESULT:      -7.9      1.247      1.958
REMARK  9 active torsions:
REMARK  status: ('A' for Active; 'I' for Inactive)
REMARK    1  A    between atoms: C_2  and  S_1 
REMARK    2  A    between atoms: N_3  and  S_1 
REMARK    3  A    between atoms: C_14  and  N_3 
REMARK    4  A    between atoms: C_15  and  N_3 
REMARK    5  A    between atoms: C_6  and  C_7 
REMARK    6  A    between atoms: C_7  and  C_8 
REMARK    7  A    between atoms: C_8  and  C_12 
REMARK    8  A    between atoms: C_21  and  C_14 
REMARK    9  A    between atoms: C_20  and  C_15 
ROOT
ATOM      1  C   UNL d   1      53.439  32.836  53.591  0.00  0.00     0.104 A 
ATOM      2  C   UNL d   1      54.266  32.852  53.637  0.00  0.00     0.012 A 
ATOM      3  C   UNL d   1      53.037  32.105  53.504  0.00  0.00     0.013 A 
ATOM      4  C   UNL d   1      53.462  31.412  53.465  0.00  0.00     0.001 A 
ATOM      5  C   UNL d   1      54.691  32.159  53.598  0.00  0.00     0.001 A 
ATOM      6  C   UNL d   1      54.301  31.431  53.512  0.00  0.00     0.000 A 
ATOM      7  C   UNL d   1      54.656  33.575  53.722  0.00  0.00     0.001 C 
ENDROOT
BRANCH   1   8
ATOM      8  S   UNL d   1      53.003  33.548  53.631  0.00  0.00     0.272 S 
ATOM      9  O   UNL d   1      52.827  33.395  54.426  0.00  0.00    -0.200 OA
ATOM     10  O   UNL d   1      53.176  33.699  52.842  0.00  0.00    -0.200 OA
BRANCH   8  11
ATOM     11  N   UNL d   1      52.577  34.242  53.670  0.00  0.00    -0.223 N 
BRANCH  11  12
ATOM     12  C   UNL d   1      52.019  34.426  53.069  0.00  0.00     0.137 C 
BRANCH  12  13
ATOM     13  C   UNL d   1      51.225  34.449  53.244  0.00  0.00     0.254 C 
ATOM     14  O   UNL d   1      50.668  34.517  52.644  0.00  0.00    -0.281 OA
ENDBRANCH  12  13
ENDBRANCH  11  12
BRANCH  11  15
ATOM     15  C   UNL d   1      52.690  34.769  54.301  0.00  0.00     0.137 C 
BRANCH  15  16
ATOM     16  C   UNL d   1      52.778  35.576  54.140  0.00  0.00     0.254 C 
ATOM     17  O   UNL d   1      52.907  36.096  54.767  0.00  0.00    -0.281 OA
ENDBRANCH  15  16
ENDBRANCH  11  15
ENDBRANCH   8  11
ENDBRANCH   1   8
BRANCH   4  18
ATOM     18  C   UNL d   1      53.079  30.688  53.379  0.00  0.00     0.006 C 
BRANCH  18  19
ATOM     19  C   UNL d   1      53.382  30.019  53.739  0.00  0.00     0.070 C 
BRANCH  19  20
ATOM     20  C   UNL d   1      52.936  29.333  53.813  0.00  0.00     0.211 C 
ATOM     21  O   UNL d   1      53.093  28.811  54.448  0.00  0.00    -0.644 OA
ATOM     22  O   UNL d   1      52.352  29.157  53.283  0.00  0.00    -0.644 OA
ENDBRANCH  19  20
ENDBRANCH  18  19
ENDBRANCH   4  18
TORSDOF 9
ENDMDL
MODEL 4
REMARK VINA RESULT:      -6.0      1.762      4.325
REMARK  9 active torsions:
REMARK  status: ('A' for Active; 'I' for Inactive)
REMARK    1  A    between atoms: C_2  and  S_1 
REMARK    2  A    between atoms: N_3  and  S_1 
REMARK    3  A    between atoms: C_14  and  N_3 
REMARK    4  A    between atoms: C_15  and  N_3 
REMARK    5  A    between atoms: C_6  and  C_7 
REMARK    6  A    between atoms: C_7  and  C_8 
REMARK    7  A    between atoms: C_8  and  C_12 
REMARK    8  A    between atoms: C_21  and  C_14 
REMARK    9  A    between atoms: C_20  and  C_15 
ROOT
ATOM      1  C   UNL d   1      53.149  32.505  53.811  0.00  0.00     0.104 A 
ATOM      2  C   UNL d   1      53.607  32.918  54.364  0.00  0.00     0.012 A 
ATOM      3  C   UNL d   1      52.596  32.915  53.333  0.00  0.00     0.013 A 
ATOM      4  C   UNL d   1      52.510  33.721  53.415  0.00  0.00     0.001 A 
ATOM      5  C   UNL d   1      53.521  33.724  54.446  0.00  0.00     0.001 A 
ATOM      6  C   UNL d   1      52.976  34.138  53.977  0.00  0.00     0.000 A 
ATOM      7  C   UNL d   1      54.150  32.508  54.831  0.00  0.00     0.001 C 
ENDROOT
BRANCH   1   8
ATOM      8  S   UNL d   1      53.237  31.678  53.727  0.00  0.00     0.272 S 
ATOM      9  O   UNL d   1      53.979  31.793  53.376  0.00  0.00    -0.200 OA
ATOM     10  O   UNL d   1      52.502  31.565  54.075  0.00  0.00    -0.200 OA
BRANCH   8  11
ATOM     11  N   UNL d   1      53.323  30.872  53.645  0.00  0.00    -0.223 N 
BRANCH  11  12
ATOM     12  C   UNL d   1      53.206  30.368  54.308  0.00  0.00     0.137 C 
BRANCH  12  13
ATOM     13  C   UNL d   1      53.415  29.582  54.263  0.00  0.00     0.254 C 
ATOM     14  O   UNL d   1      53.278  29.078  54.897  0.00  0.00    -0.281 OA
ENDBRANCH  12  13
ENDBRANCH  11  12
BRANCH  11  15
ATOM     15  C   UNL d   1      53.524  30.543  52.910  0.00  0.00     0.137 C 
BRANCH  15  16
ATOM     16  C   UNL d   1      52.949  30.130  52.483  0.00  0.00     0.254 C 
ATOM     17  O   UNL d   1      53.104  29.928  51.698  0.00  0.00    -0.281 OA
ENDBRANCH  15  16
ENDBRANCH  11  15
ENDBRANCH   8  11
ENDBRANCH   1   8
BRANCH   4  18
ATOM     18  C   UNL d   1      51.969  34.135  52.951  0.00  0.00     0.006 C 
BRANCH  18  19
ATOM     19  C   UNL d   1      51.167  34.018  53.055  0.00  0.00     0.070 C 
BRANCH  19  20
ATOM     20  C   UNL d   1      50.614  34.376  52.564  0.00  0.00     0.211 C 
ATOM     21  O   UNL d   1      49.949  34.755  52.905  0.00  0.00    -0.644 OA
ATOM     22  O   UNL d   1      50.703  34.368  51.761  0.00  0.00    -0.644 OA
ENDBRANCH  19  20
ENDBRANCH  18  19
ENDBRANCH   4  18
TORSDOF 9
ENDMDL
