MODEL 1
REMARK VINA RESULT:      45.2      0.000      0.000
REMARK  4 active torsions:
REMARK  status: ('A' for Active; 'I' for Inactive)
REMARK    1  A    between atoms: S_7  and  C_1 
REMARK       I    between atoms: N_5  and  C_9 
REMARK    2  A    between atoms: C_10  and  S_7 
REMARK    3  A    between atoms: C_15  and  N_8 
REMARK    4  A    between atoms: C_9  and  C_10 
ROOT
ATOM      1  N   UNL d   1     -54.891-101.825 -40.541  0.00  0.00    -0.269 N 
ATOM      2  N   UNL d   1     -54.950-101.556 -42.173  0.00  0.00    -0.301 N 
ATOM      3  C   UNL d   1     -54.861-101.955 -39.719  0.00  0.00     0.271 C 
ATOM      4  C   UNL d   1     -55.032-102.454 -41.061  0.00  0.00     0.102 A 
ATOM      5  C   UNL d   1     -54.779-101.061 -40.833  0.00  0.00     0.102 A 
ATOM      6  C   UNL d   1     -54.809-100.930 -41.648  0.00  0.00     0.100 A 
ATOM      7  C   UNL d   1     -55.061-102.321 -41.870  0.00  0.00     0.100 A 
ATOM      8  O   UNL d   1     -54.720-101.323 -39.203  0.00  0.00    -0.266 OA
ENDROOT
BRANCH   3   9
ATOM      9  C   UNL d   1     -54.973-102.722 -39.430  0.00  0.00     0.097 C 
BRANCH   9  10
ATOM     10  S   UNL d   1     -54.833-102.875 -38.630  0.00  0.00    -0.080 SA
BRANCH  10  11
ATOM     11  C   UNL d   1     -55.470-102.865 -38.095  0.00  0.00     0.049 A 
ATOM     12  C   UNL d   1     -56.268-102.863 -38.291  0.00  0.00     0.087 A 
ATOM     13  N   UNL d   1     -56.707-102.852 -37.592  0.00  0.00    -0.245 NA
ATOM     14  C   UNL d   1     -56.570-102.870 -39.057  0.00  0.00     0.021 C 
ATOM     15  C   UNL d   1     -56.163-102.848 -36.962  0.00  0.00     0.082 A 
ATOM     16  C   UNL d   1     -55.403-102.856 -37.278  0.00  0.00     0.025 A 
ATOM     17  C   UNL d   1     -56.274-102.838 -36.143  0.00  0.00     0.019 A 
ATOM     18  C   UNL d   1     -54.754-102.854 -36.774  0.00  0.00     0.002 A 
ATOM     19  C   UNL d   1     -54.852-102.844 -35.957  0.00  0.00     0.000 A 
ATOM     20  C   UNL d   1     -55.626-102.836 -35.645  0.00  0.00     0.002 A 
ENDBRANCH  10  11
ENDBRANCH   9  10
ENDBRANCH   3   9
BRANCH   2  21
ATOM     21  C   UNL d   1     -54.978-101.418 -42.983  0.00  0.00     0.064 A 
ATOM     22  C   UNL d   1     -55.107-102.045 -43.504  0.00  0.00     0.018 A 
ATOM     23  C   UNL d   1     -55.135-101.901 -44.325  0.00  0.00     0.002 A 
ATOM     24  C   UNL d   1     -55.033-101.130 -44.611  0.00  0.00     0.000 A 
ATOM     25  C   UNL d   1     -54.905-100.508 -44.089  0.00  0.00     0.002 A 
ATOM     26  C   UNL d   1     -54.878-100.651 -43.281  0.00  0.00     0.018 A 
ENDBRANCH   2  21
TORSDOF 4
ENDMDL
