MODEL 1
REMARK VINA RESULT:      -3.0      0.000      0.000
REMARK  2 active torsions:
REMARK  status: ('A' for Active; 'I' for Inactive)
REMARK    1  A    between atoms: N_2  and  S_1 
REMARK    2  A    between atoms: C_3  and  S_1 
ROOT
ATOM      1  N   UNL d   1      31.031  17.036 -23.987  0.00  0.00    -0.229 N 
ATOM      2  C   UNL d   1      30.258  17.240 -24.153  0.00  0.00     0.092 A 
ATOM      3  C   UNL d   1      29.655  16.719 -23.942  0.00  0.00     0.018 A 
ATOM      4  C   UNL d   1      31.217  16.322 -23.613  0.00  0.00     0.092 A 
ATOM      5  C   UNL d   1      29.844  15.992 -23.562  0.00  0.00     0.003 A 
ATOM      6  C   UNL d   1      30.630  15.812 -23.406  0.00  0.00     0.020 A 
ATOM      7  C   UNL d   1      28.864  16.904 -24.101  0.00  0.00     0.002 A 
ATOM      8  C   UNL d   1      29.236  15.476 -23.354  0.00  0.00     0.000 A 
ATOM      9  C   UNL d   1      28.272  16.382 -23.888  0.00  0.00     0.000 A 
ATOM     10  C   UNL d   1      28.458  15.668 -23.514  0.00  0.00     0.000 A 
ENDROOT
BRANCH   1  11
ATOM     11  S   UNL d   1      31.651  17.575 -24.206  0.00  0.00     0.277 S 
ATOM     12  O   UNL d   1      31.521  17.392 -25.016  0.00  0.00    -0.199 OA
ATOM     13  O   UNL d   1      31.784  17.761 -23.402  0.00  0.00    -0.199 OA
BRANCH  11  14
ATOM     14  C   UNL d   1      32.249  18.097 -24.400  0.00  0.00     0.133 A 
ATOM     15  S   UNL d   1      32.657  18.081 -25.097  0.00  0.00    -0.074 SA
ATOM     16  C   UNL d   1      33.238  18.717 -25.088  0.00  0.00     0.036 A 
ATOM     17  C   UNL d   1      33.157  19.121 -24.343  0.00  0.00     0.008 A 
ATOM     18  C   UNL d   1      32.563  18.746 -23.933  0.00  0.00     0.020 A 
ENDBRANCH  11  14
ENDBRANCH   1  11
TORSDOF 2
ENDMDL
MODEL 2
REMARK VINA RESULT:      -2.7      1.298      3.734
REMARK  2 active torsions:
REMARK  status: ('A' for Active; 'I' for Inactive)
REMARK    1  A    between atoms: N_2  and  S_1 
REMARK    2  A    between atoms: C_3  and  S_1 
ROOT
ATOM      1  N   UNL d   1      30.901  16.783 -24.036  0.00  0.00    -0.229 N 
ATOM      2  C   UNL d   1      31.035  17.387 -24.568  0.00  0.00     0.092 A 
ATOM      3  C   UNL d   1      31.769  17.763 -24.566  0.00  0.00     0.018 A 
ATOM      4  C   UNL d   1      31.484  16.543 -23.501  0.00  0.00     0.092 A 
ATOM      5  C   UNL d   1      32.363  17.519 -24.021  0.00  0.00     0.003 A 
ATOM      6  C   UNL d   1      32.201  16.908 -23.497  0.00  0.00     0.020 A 
ATOM      7  C   UNL d   1      31.927  18.378 -25.097  0.00  0.00     0.002 A 
ATOM      8  C   UNL d   1      33.094  17.900 -24.026  0.00  0.00     0.000 A 
ATOM      9  C   UNL d   1      32.658  18.746 -25.089  0.00  0.00     0.000 A 
ATOM     10  C   UNL d   1      33.241  18.506 -24.554  0.00  0.00     0.000 A 
ENDROOT
BRANCH   1  11
ATOM     11  S   UNL d   1      30.143  16.397 -24.040  0.00  0.00     0.277 S 
ATOM     12  O   UNL d   1      30.498  15.708 -24.364  0.00  0.00    -0.199 OA
ATOM     13  O   UNL d   1      29.785  17.081 -23.717  0.00  0.00    -0.199 OA
BRANCH  11  14
ATOM     14  C   UNL d   1      29.408  16.041 -24.037  0.00  0.00     0.133 A 
ATOM     15  S   UNL d   1      29.018  15.799 -24.701  0.00  0.00    -0.074 SA
ATOM     16  C   UNL d   1      28.265  15.453 -24.465  0.00  0.00     0.036 A 
ATOM     17  C   UNL d   1      28.223  15.498 -23.617  0.00  0.00     0.008 A 
ATOM     18  C   UNL d   1      28.910  15.851 -23.363  0.00  0.00     0.020 A 
ENDBRANCH  11  14
ENDBRANCH   1  11
TORSDOF 2
ENDMDL
MODEL 3
REMARK VINA RESULT:      -2.5      3.891      5.686
REMARK  2 active torsions:
REMARK  status: ('A' for Active; 'I' for Inactive)
REMARK    1  A    between atoms: N_2  and  S_1 
REMARK    2  A    between atoms: C_3  and  S_1 
ROOT
ATOM      1  N   UNL d   1      32.925  20.915 -21.724  0.00  0.00    -0.229 N 
ATOM      2  C   UNL d   1      32.662  21.640 -21.991  0.00  0.00     0.092 A 
ATOM      3  C   UNL d   1      32.609  22.265 -21.456  0.00  0.00     0.018 A 
ATOM      4  C   UNL d   1      33.136  20.798 -20.933  0.00  0.00     0.092 A 
ATOM      5  C   UNL d   1      32.824  22.147 -20.650  0.00  0.00     0.003 A 
ATOM      6  C   UNL d   1      33.085  21.406 -20.409  0.00  0.00     0.020 A 
ATOM      7  C   UNL d   1      32.345  23.010 -21.704  0.00  0.00     0.002 A 
ATOM      8  C   UNL d   1      32.768  22.776 -20.122  0.00  0.00     0.000 A 
ATOM      9  C   UNL d   1      32.295  23.624 -21.167  0.00  0.00     0.000 A 
ATOM     10  C   UNL d   1      32.507  23.508 -20.376  0.00  0.00     0.000 A 
ENDROOT
BRANCH   1  11
ATOM     11  S   UNL d   1      32.979  20.272 -22.278  0.00  0.00     0.277 S 
ATOM     12  O   UNL d   1      33.210  20.812 -22.879  0.00  0.00    -0.199 OA
ATOM     13  O   UNL d   1      32.749  19.730 -21.684  0.00  0.00    -0.199 OA
BRANCH  11  14
ATOM     14  C   UNL d   1      33.026  19.643 -22.798  0.00  0.00     0.133 A 
ATOM     15  S   UNL d   1      33.241  19.711 -23.573  0.00  0.00    -0.074 SA
ATOM     16  C   UNL d   1      33.223  18.927 -23.931  0.00  0.00     0.036 A 
ATOM     17  C   UNL d   1      32.983  18.380 -23.325  0.00  0.00     0.008 A 
ATOM     18  C   UNL d   1      32.866  18.813 -22.647  0.00  0.00     0.020 A 
ENDBRANCH  11  14
ENDBRANCH   1  11
TORSDOF 2
ENDMDL
MODEL 4
REMARK VINA RESULT:      -2.3      2.660      3.533
REMARK  2 active torsions:
REMARK  status: ('A' for Active; 'I' for Inactive)
REMARK    1  A    between atoms: N_2  and  S_1 
REMARK    2  A    between atoms: C_3  and  S_1 
ROOT
ATOM      1  N   UNL d   1      32.863  19.045 -22.808  0.00  0.00    -0.229 N 
ATOM      2  C   UNL d   1      32.414  18.975 -23.487  0.00  0.00     0.092 A 
ATOM      3  C   UNL d   1      32.336  18.232 -23.838  0.00  0.00     0.018 A 
ATOM      4  C   UNL d   1      33.237  18.390 -22.470  0.00  0.00     0.092 A 
ATOM      5  C   UNL d   1      32.717  17.565 -23.493  0.00  0.00     0.003 A 
ATOM      6  C   UNL d   1      33.162  17.664 -22.810  0.00  0.00     0.020 A 
ATOM      7  C   UNL d   1      31.887  18.138 -24.526  0.00  0.00     0.002 A 
ATOM      8  C   UNL d   1      32.635  16.827 -23.849  0.00  0.00     0.000 A 
ATOM      9  C   UNL d   1      31.815  17.398 -24.867  0.00  0.00     0.000 A 
ATOM     10  C   UNL d   1      32.189  16.743 -24.529  0.00  0.00     0.000 A 
ENDROOT
BRANCH   1  11
ATOM     11  S   UNL d   1      32.941  19.811 -22.449  0.00  0.00     0.277 S 
ATOM     12  O   UNL d   1      32.823  19.466 -21.692  0.00  0.00    -0.199 OA
ATOM     13  O   UNL d   1      33.059  20.160 -23.200  0.00  0.00    -0.199 OA
BRANCH  11  14
ATOM     14  C   UNL d   1      33.019  20.555 -22.120  0.00  0.00     0.133 A 
ATOM     15  S   UNL d   1      32.906  20.719 -21.337  0.00  0.00    -0.074 SA
ATOM     16  C   UNL d   1      33.039  21.560 -21.212  0.00  0.00     0.036 A 
ATOM     17  C   UNL d   1      33.240  21.898 -21.967  0.00  0.00     0.008 A 
ATOM     18  C   UNL d   1      33.227  21.292 -22.509  0.00  0.00     0.020 A 
ENDBRANCH  11  14
ENDBRANCH   1  11
TORSDOF 2
ENDMDL
MODEL 5
REMARK VINA RESULT:      -1.6      1.646      1.932
REMARK  2 active torsions:
REMARK  status: ('A' for Active; 'I' for Inactive)
REMARK    1  A    between atoms: N_2  and  S_1 
REMARK    2  A    between atoms: C_3  and  S_1 
ROOT
ATOM      1  N   UNL d   1      30.303  16.155 -23.821  0.00  0.00    -0.229 N 
ATOM      2  C   UNL d   1      29.910  16.858 -23.955  0.00  0.00     0.092 A 
ATOM      3  C   UNL d   1      29.117  16.919 -23.735  0.00  0.00     0.018 A 
ATOM      4  C   UNL d   1      29.923  15.509 -23.471  0.00  0.00     0.092 A 
ATOM      5  C   UNL d   1      28.730  16.261 -23.379  0.00  0.00     0.003 A 
ATOM      6  C   UNL d   1      29.150  15.566 -23.256  0.00  0.00     0.020 A 
ATOM      7  C   UNL d   1      28.699  17.621 -23.861  0.00  0.00     0.002 A 
ATOM      8  C   UNL d   1      27.938  16.330 -23.163  0.00  0.00     0.000 A 
ATOM      9  C   UNL d   1      27.914  17.673 -23.641  0.00  0.00     0.000 A 
ATOM     10  C   UNL d   1      27.533  17.027 -23.291  0.00  0.00     0.000 A 
ENDROOT
BRANCH   1  11
ATOM     11  S   UNL d   1      31.120  16.095 -24.048  0.00  0.00     0.277 S 
ATOM     12  O   UNL d   1      31.339  16.548 -23.374  0.00  0.00    -0.199 OA
ATOM     13  O   UNL d   1      30.908  15.644 -24.720  0.00  0.00    -0.199 OA
BRANCH  11  14
ATOM     14  C   UNL d   1      31.901  16.028 -24.280  0.00  0.00     0.133 A 
ATOM     15  S   UNL d   1      32.507  15.833 -23.784  0.00  0.00    -0.074 SA
ATOM     16  C   UNL d   1      33.239  15.821 -24.238  0.00  0.00     0.036 A 
ATOM     17  C   UNL d   1      33.040  16.021 -25.041  0.00  0.00     0.008 A 
ATOM     18  C   UNL d   1      32.236  16.144 -25.063  0.00  0.00     0.020 A 
ENDBRANCH  11  14
ENDBRANCH   1  11
TORSDOF 2
ENDMDL
MODEL 6
REMARK VINA RESULT:      -1.4      5.008      6.593
REMARK  2 active torsions:
REMARK  status: ('A' for Active; 'I' for Inactive)
REMARK    1  A    between atoms: N_2  and  S_1 
REMARK    2  A    between atoms: C_3  and  S_1 
ROOT
ATOM      1  N   UNL d   1      33.163  22.072 -21.224  0.00  0.00    -0.229 N 
ATOM      2  C   UNL d   1      33.175  21.258 -21.286  0.00  0.00     0.092 A 
ATOM      3  C   UNL d   1      33.197  20.916 -22.037  0.00  0.00     0.018 A 
ATOM      4  C   UNL d   1      33.172  22.555 -21.896  0.00  0.00     0.092 A 
ATOM      5  C   UNL d   1      33.206  21.408 -22.720  0.00  0.00     0.003 A 
ATOM      6  C   UNL d   1      33.193  22.224 -22.629  0.00  0.00     0.020 A 
ATOM      7  C   UNL d   1      33.210  20.093 -22.123  0.00  0.00     0.002 A 
ATOM      8  C   UNL d   1      33.228  21.059 -23.466  0.00  0.00     0.000 A 
ATOM      9  C   UNL d   1      33.232  19.763 -22.871  0.00  0.00     0.000 A 
ATOM     10  C   UNL d   1      33.241  20.246 -23.542  0.00  0.00     0.000 A 
ENDROOT
BRANCH   1  11
ATOM     11  S   UNL d   1      33.140  22.422 -20.450  0.00  0.00     0.277 S 
ATOM     12  O   UNL d   1      33.066  21.657 -20.109  0.00  0.00    -0.199 OA
ATOM     13  O   UNL d   1      33.214  23.185 -20.783  0.00  0.00    -0.199 OA
BRANCH  11  14
ATOM     14  C   UNL d   1      33.120  22.773 -19.712  0.00  0.00     0.133 A 
ATOM     15  S   UNL d   1      33.240  22.378 -19.018  0.00  0.00    -0.074 SA
ATOM     16  C   UNL d   1      33.173  22.941 -18.369  0.00  0.00     0.036 A 
ATOM     17  C   UNL d   1      33.006  23.702 -18.712  0.00  0.00     0.008 A 
ATOM     18  C   UNL d   1      32.975  23.597 -19.518  0.00  0.00     0.020 A 
ENDBRANCH  11  14
ENDBRANCH   1  11
TORSDOF 2
ENDMDL
MODEL 7
REMARK VINA RESULT:      -0.7      1.182      1.806
REMARK  2 active torsions:
REMARK  status: ('A' for Active; 'I' for Inactive)
REMARK    1  A    between atoms: N_2  and  S_1 
REMARK    2  A    between atoms: C_3  and  S_1 
ROOT
ATOM      1  N   UNL d   1      29.963  16.907 -24.076  0.00  0.00    -0.229 N 
ATOM      2  C   UNL d   1      29.558  16.228 -23.872  0.00  0.00     0.092 A 
ATOM      3  C   UNL d   1      28.760  16.286 -23.669  0.00  0.00     0.018 A 
ATOM      4  C   UNL d   1      29.590  17.645 -24.081  0.00  0.00     0.092 A 
ATOM      5  C   UNL d   1      28.381  17.038 -23.674  0.00  0.00     0.003 A 
ATOM      6  C   UNL d   1      28.812  17.704 -23.883  0.00  0.00     0.020 A 
ATOM      7  C   UNL d   1      28.330  15.611 -23.459  0.00  0.00     0.002 A 
ATOM      8  C   UNL d   1      27.585  17.087 -23.469  0.00  0.00     0.000 A 
ATOM      9  C   UNL d   1      27.540  15.677 -23.258  0.00  0.00     0.000 A 
ATOM     10  C   UNL d   1      27.167  16.416 -23.264  0.00  0.00     0.000 A 
ENDROOT
BRANCH   1  11
ATOM     11  S   UNL d   1      30.784  16.844 -24.285  0.00  0.00     0.277 S 
ATOM     12  O   UNL d   1      30.984  16.779 -23.471  0.00  0.00    -0.199 OA
ATOM     13  O   UNL d   1      30.591  16.909 -25.096  0.00  0.00    -0.199 OA
BRANCH  11  14
ATOM     14  C   UNL d   1      31.570  16.785 -24.503  0.00  0.00     0.133 A 
ATOM     15  S   UNL d   1      31.861  16.221 -25.002  0.00  0.00    -0.074 SA
ATOM     16  C   UNL d   1      32.709  16.347 -25.090  0.00  0.00     0.036 A 
ATOM     17  C   UNL d   1      32.914  17.022 -24.614  0.00  0.00     0.008 A 
ATOM     18  C   UNL d   1      32.228  17.282 -24.263  0.00  0.00     0.020 A 
ENDBRANCH  11  14
ENDBRANCH   1  11
TORSDOF 2
ENDMDL
