MODEL 1
REMARK VINA RESULT:      -2.7      0.000      0.000
REMARK  2 active torsions:
REMARK  status: ('A' for Active; 'I' for Inactive)
REMARK    1  A    between atoms: N_2  and  C_9 
REMARK    2  A    between atoms: C_11  and  C_7 
ROOT
ATOM      1  C   UNL d   1     -42.833-123.340 -49.439  0.00  0.00     0.110 A 
ATOM      2  C   UNL d   1     -44.122-123.679 -49.463  0.00  0.00     0.332 A 
ATOM      3  C   UNL d   1     -43.042-123.598 -48.690  0.00  0.00     0.060 A 
ATOM      4  S   UNL d   1     -43.832-123.806 -48.701  0.00  0.00    -0.018 SA
ATOM      5  O   UNL d   1     -43.492-123.389 -49.918  0.00  0.00    -0.268 OA
ATOM      6  C   UNL d   1     -42.063-123.093 -49.593  0.00  0.00     0.027 A 
ATOM      7  C   UNL d   1     -42.464-123.607 -48.081  0.00  0.00     0.051 A 
ATOM      8  C   UNL d   1     -41.493-123.100 -48.998  0.00  0.00     0.044 A 
ATOM      9  O   UNL d   1     -44.893-123.816 -49.724  0.00  0.00    -0.251 OA
ATOM     10  C   UNL d   1     -41.694-123.356 -48.247  0.00  0.00     0.196 A 
ATOM     11  O   UNL d   1     -41.123-123.366 -47.639  0.00  0.00    -0.286 OA
ENDROOT
BRANCH   6  12
ATOM     12  C   UNL d   1     -41.856-122.835 -50.349  0.00  0.00     0.002 A 
ATOM     13  C   UNL d   1     -42.062-122.069 -50.589  0.00  0.00     0.002 A 
ATOM     14  C   UNL d   1     -41.855-121.805 -51.349  0.00  0.00     0.024 A 
ATOM     15  C   UNL d   1     -41.445-122.310 -51.863  0.00  0.00     0.127 A 
ATOM     16  C   UNL d   1     -41.243-123.070 -51.621  0.00  0.00     0.024 A 
ATOM     17  C   UNL d   1     -41.449-123.333 -50.861  0.00  0.00     0.002 A 
BRANCH  15  18
ATOM     18  N   UNL d   1     -41.236-122.050 -52.627  0.00  0.00    -0.114 N 
ATOM     19  O   UNL d   1     -41.125-121.247 -52.770  0.00  0.00    -0.532 OA
ATOM     20  O   UNL d   1     -41.140-122.596 -53.235  0.00  0.00    -0.532 OA
ENDBRANCH  15  18
ENDBRANCH   6  12
TORSDOF 2
ENDMDL
MODEL 2
REMARK VINA RESULT:      -2.4      2.450      3.624
REMARK  2 active torsions:
REMARK  status: ('A' for Active; 'I' for Inactive)
REMARK    1  A    between atoms: N_2  and  C_9 
REMARK    2  A    between atoms: C_11  and  C_7 
ROOT
ATOM      1  C   UNL d   1     -41.402-121.597 -52.017  0.00  0.00     0.110 A 
ATOM      2  C   UNL d   1     -41.203-120.360 -51.564  0.00  0.00     0.332 A 
ATOM      3  C   UNL d   1     -41.246-121.643 -51.214  0.00  0.00     0.060 A 
ATOM      4  S   UNL d   1     -41.123-120.885 -50.934  0.00  0.00    -0.018 SA
ATOM      5  O   UNL d   1     -41.377-120.812 -52.237  0.00  0.00    -0.268 OA
ATOM      6  C   UNL d   1     -41.550-122.282 -52.450  0.00  0.00     0.027 A 
ATOM      7  C   UNL d   1     -41.236-122.393 -50.837  0.00  0.00     0.051 A 
ATOM      8  C   UNL d   1     -41.541-123.020 -52.084  0.00  0.00     0.044 A 
ATOM      9  O   UNL d   1     -41.124-119.538 -51.532  0.00  0.00    -0.251 OA
ATOM     10  C   UNL d   1     -41.386-123.073 -51.282  0.00  0.00     0.196 A 
ATOM     11  O   UNL d   1     -41.376-123.817 -50.905  0.00  0.00    -0.286 OA
ENDROOT
BRANCH   6  12
ATOM     12  C   UNL d   1     -41.707-122.232 -53.259  0.00  0.00     0.002 A 
ATOM     13  C   UNL d   1     -42.447-121.960 -53.515  0.00  0.00     0.002 A 
ATOM     14  C   UNL d   1     -42.609-121.908 -54.327  0.00  0.00     0.024 A 
ATOM     15  C   UNL d   1     -42.030-122.129 -54.877  0.00  0.00     0.127 A 
ATOM     16  C   UNL d   1     -41.297-122.399 -54.620  0.00  0.00     0.024 A 
ATOM     17  C   UNL d   1     -41.135-122.450 -53.807  0.00  0.00     0.002 A 
BRANCH  15  18
ATOM     18  N   UNL d   1     -42.187-122.080 -55.695  0.00  0.00    -0.114 N 
ATOM     19  O   UNL d   1     -42.772-122.554 -56.028  0.00  0.00    -0.532 OA
ATOM     20  O   UNL d   1     -41.759-121.559 -56.165  0.00  0.00    -0.532 OA
ENDBRANCH  15  18
ENDBRANCH   6  12
TORSDOF 2
ENDMDL
MODEL 3
REMARK VINA RESULT:      -0.6      1.892      3.028
REMARK  2 active torsions:
REMARK  status: ('A' for Active; 'I' for Inactive)
REMARK    1  A    between atoms: N_2  and  C_9 
REMARK    2  A    between atoms: C_11  and  C_7 
ROOT
ATOM      1  C   UNL d   1     -41.883-122.192 -51.494  0.00  0.00     0.110 A 
ATOM      2  C   UNL d   1     -42.334-123.108 -50.637  0.00  0.00     0.332 A 
ATOM      3  C   UNL d   1     -41.887-121.859 -50.746  0.00  0.00     0.060 A 
ATOM      4  S   UNL d   1     -42.163-122.419 -50.218  0.00  0.00    -0.018 SA
ATOM      5  O   UNL d   1     -42.157-122.958 -51.434  0.00  0.00    -0.268 OA
ATOM      6  C   UNL d   1     -41.630-121.752 -52.142  0.00  0.00     0.027 A 
ATOM      7  C   UNL d   1     -41.630-121.066 -50.645  0.00  0.00     0.051 A 
ATOM      8  C   UNL d   1     -41.377-120.973 -52.048  0.00  0.00     0.044 A 
ATOM      9  O   UNL d   1     -42.626-123.814 -50.324  0.00  0.00    -0.251 OA
ATOM     10  C   UNL d   1     -41.378-120.634 -51.302  0.00  0.00     0.196 A 
ATOM     11  O   UNL d   1     -41.123-119.846 -51.199  0.00  0.00    -0.286 OA
ENDROOT
BRANCH   6  12
ATOM     12  C   UNL d   1     -41.628-122.090 -52.895  0.00  0.00     0.002 A 
ATOM     13  C   UNL d   1     -42.113-121.773 -53.487  0.00  0.00     0.002 A 
ATOM     14  C   UNL d   1     -42.114-122.111 -54.245  0.00  0.00     0.024 A 
ATOM     15  C   UNL d   1     -41.628-122.763 -54.406  0.00  0.00     0.127 A 
ATOM     16  C   UNL d   1     -41.147-123.075 -53.816  0.00  0.00     0.024 A 
ATOM     17  C   UNL d   1     -41.147-122.737 -53.058  0.00  0.00     0.002 A 
BRANCH  15  18
ATOM     18  N   UNL d   1     -41.625-123.106 -55.166  0.00  0.00    -0.114 N 
ATOM     19  O   UNL d   1     -41.124-123.740 -55.326  0.00  0.00    -0.532 OA
ATOM     20  O   UNL d   1     -42.120-122.811 -55.753  0.00  0.00    -0.532 OA
ENDBRANCH  15  18
ENDBRANCH   6  12
TORSDOF 2
ENDMDL
