MODEL 1
REMARK VINA RESULT:      72.5      0.000      0.000
REMARK  6 active torsions:
REMARK  status: ('A' for Active; 'I' for Inactive)
REMARK    1  A    between atoms: C_7  and  C_4 
REMARK    2  A    between atoms: O_17  and  C_6 
REMARK    3  A    between atoms: C_8  and  C_7 
REMARK    4  A    between atoms: C_12  and  C_8 
REMARK    5  A    between atoms: O_21  and  C_11 
REMARK    6  A    between atoms: O_22  and  C_18 
ROOT
ATOM      1  C   UNL d   1      61.411  46.570  50.214  0.00  0.00     0.090 A 
ATOM      2  C   UNL d   1      61.742  47.090  49.671  0.00  0.00     0.302 A 
ATOM      3  O   UNL d   1      61.534  47.807  49.937  0.00  0.00    -0.273 OA
ATOM      4  C   UNL d   1      61.107  47.750  50.594  0.00  0.00     0.107 A 
ATOM      5  C   UNL d   1      61.019  46.975  50.785  0.00  0.00     0.030 A 
ATOM      6  C   UNL d   1      61.435  45.725  50.238  0.00  0.00     0.121 A 
ATOM      7  C   UNL d   1      60.639  46.581  51.394  0.00  0.00     0.004 A 
ATOM      8  O   UNL d   1      62.204  46.893  48.978  0.00  0.00    -0.259 OA
ATOM      9  C   UNL d   1      61.047  45.335  50.859  0.00  0.00     0.117 A 
ATOM     10  C   UNL d   1      60.662  45.756  51.417  0.00  0.00     0.026 A 
ENDROOT
BRANCH   4  11
ATOM     11  C   UNL d   1      60.791  48.396  51.031  0.00  0.00     0.067 C 
BRANCH  11  12
ATOM     12  C   UNL d   1      60.477  49.089  50.700  0.00  0.00     0.198 C 
ATOM     13  O   UNL d   1      61.067  49.679  50.464  0.00  0.00    -0.286 OA
BRANCH  12  14
ATOM     14  C   UNL d   1      59.733  49.233  50.596  0.00  0.00     0.039 A 
ATOM     15  C   UNL d   1      59.253  49.220  51.227  0.00  0.00     0.005 A 
ATOM     16  C   UNL d   1      58.439  49.378  51.114  0.00  0.00     0.024 A 
ATOM     17  C   UNL d   1      58.071  49.555  50.370  0.00  0.00     0.094 A 
ATOM     18  C   UNL d   1      58.617  49.559  49.725  0.00  0.00     0.024 A 
ATOM     19  C   UNL d   1      59.374  49.406  49.869  0.00  0.00     0.005 A 
BRANCH  17  20
ATOM     20  O   UNL d   1      57.274  49.706  50.281  0.00  0.00    -0.328 OA
ATOM     21  C   UNL d   1      56.663  49.118  49.821  0.00  0.00     0.181 C 
ENDBRANCH  17  20
ENDBRANCH  12  14
ENDBRANCH  11  12
ENDBRANCH   4  11
BRANCH   6  22
ATOM     22  O   UNL d   1      61.823  45.286  49.676  0.00  0.00    -0.326 OA
ATOM     23  C   UNL d   1      61.475  45.134  48.982  0.00  0.00     0.181 C 
ENDBRANCH   6  22
BRANCH   9  24
ATOM     24  O   UNL d   1      61.036  44.512  50.934  0.00  0.00    -0.326 OA
ATOM     25  C   UNL d   1      61.181  44.158  51.645  0.00  0.00     0.181 C 
ENDBRANCH   9  24
TORSDOF 6
ENDMDL
