MODEL 1
REMARK VINA RESULT:      -3.4      0.000      0.000
REMARK  3 active torsions:
REMARK  status: ('A' for Active; 'I' for Inactive)
REMARK    1  A    between atoms: N_2  and  C_1 
REMARK    2  A    between atoms: N_3  and  C_1 
REMARK       I    between atoms: C_4  and  N_3 
REMARK    3  A    between atoms: C_9  and  C_4 
ROOT
ATOM      1  C   UNL d   1      31.643  17.143 -24.316  0.00  0.00     0.209 C 
ATOM      2  S   UNL d   1      32.088  16.911 -24.961  0.00  0.00    -0.038 SA
ENDROOT
BRANCH   1   3
ATOM      3  N   UNL d   1      30.995  16.697 -24.089  0.00  0.00    -0.282 N 
ATOM      4  C   UNL d   1      30.239  16.906 -24.350  0.00  0.00     0.066 A 
ATOM      5  C   UNL d   1      29.592  16.452 -24.116  0.00  0.00     0.016 A 
ATOM      6  C   UNL d   1      30.133  17.563 -24.840  0.00  0.00     0.018 A 
ATOM      7  C   UNL d   1      28.837  16.651 -24.370  0.00  0.00     0.001 A 
ATOM      8  C   UNL d   1      29.699  15.786 -23.620  0.00  0.00     0.003 A 
ATOM      9  C   UNL d   1      28.732  17.301 -24.854  0.00  0.00     0.000 A 
ATOM     10  C   UNL d   1      29.382  17.758 -25.090  0.00  0.00     0.002 A 
ATOM     11  C   UNL d   1      30.451  15.583 -23.363  0.00  0.00     0.019 A 
ATOM     12  C   UNL d   1      31.102  16.032 -23.593  0.00  0.00     0.082 A 
ENDBRANCH   1   3
BRANCH   1  13
ATOM     13  N   UNL d   1      31.854  17.824 -23.902  0.00  0.00    -0.180 NA
ATOM     14  C   UNL d   1      32.657  18.022 -23.813  0.00  0.00     0.281 C 
ATOM     15  O   UNL d   1      33.227  17.548 -24.133  0.00  0.00    -0.265 OA
BRANCH  14  16
ATOM     16  C   UNL d   1      32.852  18.708 -23.395  0.00  0.00     0.058 A 
ATOM     17  C   UNL d   1      33.007  18.695 -22.583  0.00  0.00     0.005 A 
ATOM     18  C   UNL d   1      33.200  19.377 -22.173  0.00  0.00     0.000 A 
ATOM     19  C   UNL d   1      33.241  20.105 -22.585  0.00  0.00     0.000 A 
ATOM     20  C   UNL d   1      33.089  20.124 -23.386  0.00  0.00     0.000 A 
ATOM     21  C   UNL d   1      32.890  19.428 -23.815  0.00  0.00     0.005 A 
ENDBRANCH  14  16
ENDBRANCH   1  13
TORSDOF 3
ENDMDL
MODEL 2
REMARK VINA RESULT:      -2.9      0.853      4.100
REMARK  3 active torsions:
REMARK  status: ('A' for Active; 'I' for Inactive)
REMARK    1  A    between atoms: N_2  and  C_1 
REMARK    2  A    between atoms: N_3  and  C_1 
REMARK       I    between atoms: C_4  and  N_3 
REMARK    3  A    between atoms: C_9  and  C_4 
ROOT
ATOM      1  C   UNL d   1      32.115  17.419 -24.016  0.00  0.00     0.209 C 
ATOM      2  S   UNL d   1      32.642  16.799 -23.945  0.00  0.00    -0.038 SA
ENDROOT
BRANCH   1   3
ATOM      3  N   UNL d   1      32.395  18.175 -24.164  0.00  0.00    -0.282 N 
ATOM      4  C   UNL d   1      32.677  18.640 -23.542  0.00  0.00     0.066 A 
ATOM      5  C   UNL d   1      32.957  19.399 -23.700  0.00  0.00     0.016 A 
ATOM      6  C   UNL d   1      32.679  18.346 -22.768  0.00  0.00     0.018 A 
ATOM      7  C   UNL d   1      33.239  19.869 -23.088  0.00  0.00     0.001 A 
ATOM      8  C   UNL d   1      32.955  19.697 -24.482  0.00  0.00     0.003 A 
ATOM      9  C   UNL d   1      33.241  19.578 -22.324  0.00  0.00     0.000 A 
ATOM     10  C   UNL d   1      32.960  18.816 -22.164  0.00  0.00     0.002 A 
ATOM     11  C   UNL d   1      32.674  19.231 -25.097  0.00  0.00     0.019 A 
ATOM     12  C   UNL d   1      32.393  18.472 -24.946  0.00  0.00     0.082 A 
ENDBRANCH   1   3
BRANCH   1  13
ATOM     13  N   UNL d   1      31.307  17.276 -23.938  0.00  0.00    -0.180 NA
ATOM     14  C   UNL d   1      30.988  16.555 -24.201  0.00  0.00     0.281 C 
ATOM     15  O   UNL d   1      31.470  15.997 -24.533  0.00  0.00    -0.265 OA
BRANCH  14  16
ATOM     16  C   UNL d   1      30.176  16.426 -24.116  0.00  0.00     0.058 A 
ATOM     17  C   UNL d   1      29.870  15.944 -23.518  0.00  0.00     0.005 A 
ATOM     18  C   UNL d   1      29.065  15.819 -23.437  0.00  0.00     0.000 A 
ATOM     19  C   UNL d   1      28.538  16.188 -23.973  0.00  0.00     0.000 A 
ATOM     20  C   UNL d   1      28.833  16.665 -24.565  0.00  0.00     0.000 A 
ATOM     21  C   UNL d   1      29.659  16.799 -24.655  0.00  0.00     0.005 A 
ENDBRANCH  14  16
ENDBRANCH   1  13
TORSDOF 3
ENDMDL
MODEL 3
REMARK VINA RESULT:      -2.1      1.458      4.137
REMARK  3 active torsions:
REMARK  status: ('A' for Active; 'I' for Inactive)
REMARK    1  A    between atoms: N_2  and  C_1 
REMARK    2  A    between atoms: N_3  and  C_1 
REMARK       I    between atoms: C_4  and  N_3 
REMARK    3  A    between atoms: C_9  and  C_4 
ROOT
ATOM      1  C   UNL d   1      30.754  16.884 -24.384  0.00  0.00     0.209 C 
ATOM      2  S   UNL d   1      30.687  17.415 -25.001  0.00  0.00    -0.038 SA
ENDROOT
BRANCH   1   3
ATOM      3  N   UNL d   1      31.496  16.654 -24.125  0.00  0.00    -0.282 N 
ATOM      4  C   UNL d   1      31.994  17.202 -23.758  0.00  0.00     0.066 A 
ATOM      5  C   UNL d   1      32.739  16.960 -23.501  0.00  0.00     0.016 A 
ATOM      6  C   UNL d   1      31.747  17.983 -23.650  0.00  0.00     0.018 A 
ATOM      7  C   UNL d   1      33.241  17.498 -23.135  0.00  0.00     0.001 A 
ATOM      8  C   UNL d   1      32.989  16.169 -23.611  0.00  0.00     0.003 A 
ATOM      9  C   UNL d   1      32.997  18.270 -23.028  0.00  0.00     0.000 A 
ATOM     10  C   UNL d   1      32.248  18.513 -23.286  0.00  0.00     0.002 A 
ATOM     11  C   UNL d   1      32.492  15.629 -23.976  0.00  0.00     0.019 A 
ATOM     12  C   UNL d   1      31.746  15.863 -24.235  0.00  0.00     0.082 A 
ENDBRANCH   1   3
BRANCH   1  13
ATOM     13  N   UNL d   1      30.072  16.587 -24.028  0.00  0.00    -0.180 NA
ATOM     14  C   UNL d   1      29.330  16.722 -24.380  0.00  0.00     0.281 C 
ATOM     15  O   UNL d   1      29.280  17.143 -25.068  0.00  0.00    -0.265 OA
BRANCH  14  16
ATOM     16  C   UNL d   1      28.656  16.417 -24.012  0.00  0.00     0.058 A 
ATOM     17  C   UNL d   1      28.352  16.746 -23.316  0.00  0.00     0.005 A 
ATOM     18  C   UNL d   1      27.684  16.441 -22.954  0.00  0.00     0.000 A 
ATOM     19  C   UNL d   1      27.298  15.781 -23.296  0.00  0.00     0.000 A 
ATOM     20  C   UNL d   1      27.593  15.453 -23.983  0.00  0.00     0.000 A 
ATOM     21  C   UNL d   1      28.279  15.760 -24.360  0.00  0.00     0.005 A 
ENDBRANCH  14  16
ENDBRANCH   1  13
TORSDOF 3
ENDMDL
MODEL 4
REMARK VINA RESULT:      -1.6      2.298      5.080
REMARK  3 active torsions:
REMARK  status: ('A' for Active; 'I' for Inactive)
REMARK    1  A    between atoms: N_2  and  C_1 
REMARK    2  A    between atoms: N_3  and  C_1 
REMARK       I    between atoms: C_4  and  N_3 
REMARK    3  A    between atoms: C_9  and  C_4 
ROOT
ATOM      1  C   UNL d   1      33.018  20.287 -22.205  0.00  0.00     0.209 C 
ATOM      2  S   UNL d   1      33.241  19.952 -21.494  0.00  0.00    -0.038 SA
ENDROOT
BRANCH   1   3
ATOM      3  N   UNL d   1      32.976  21.102 -22.275  0.00  0.00    -0.282 N 
ATOM      4  C   UNL d   1      32.671  21.554 -21.653  0.00  0.00     0.066 A 
ATOM      5  C   UNL d   1      32.632  22.374 -21.732  0.00  0.00     0.016 A 
ATOM      6  C   UNL d   1      32.409  21.188 -20.960  0.00  0.00     0.018 A 
ATOM      7  C   UNL d   1      32.331  22.831 -21.120  0.00  0.00     0.001 A 
ATOM      8  C   UNL d   1      32.898  22.745 -22.434  0.00  0.00     0.003 A 
ATOM      9  C   UNL d   1      32.072  22.469 -20.435  0.00  0.00     0.000 A 
ATOM     10  C   UNL d   1      32.111  21.646 -20.355  0.00  0.00     0.002 A 
ATOM     11  C   UNL d   1      33.199  22.292 -23.049  0.00  0.00     0.019 A 
ATOM     12  C   UNL d   1      33.241  21.472 -22.977  0.00  0.00     0.082 A 
ENDBRANCH   1   3
BRANCH   1  13
ATOM     13  N   UNL d   1      32.839  19.798 -22.845  0.00  0.00    -0.180 NA
ATOM     14  C   UNL d   1      32.866  18.972 -22.755  0.00  0.00     0.281 C 
ATOM     15  O   UNL d   1      33.068  18.651 -22.041  0.00  0.00    -0.265 OA
BRANCH  14  16
ATOM     16  C   UNL d   1      32.683  18.496 -23.405  0.00  0.00     0.058 A 
ATOM     17  C   UNL d   1      33.213  18.392 -24.032  0.00  0.00     0.005 A 
ATOM     18  C   UNL d   1      33.028  17.919 -24.674  0.00  0.00     0.000 A 
ATOM     19  C   UNL d   1      32.285  17.532 -24.698  0.00  0.00     0.000 A 
ATOM     20  C   UNL d   1      31.759  17.631 -24.083  0.00  0.00     0.000 A 
ATOM     21  C   UNL d   1      31.941  18.115 -23.419  0.00  0.00     0.005 A 
ENDBRANCH  14  16
ENDBRANCH   1  13
TORSDOF 3
ENDMDL
MODEL 5
REMARK VINA RESULT:      -1.6      1.386      2.000
REMARK  3 active torsions:
REMARK  status: ('A' for Active; 'I' for Inactive)
REMARK    1  A    between atoms: N_2  and  C_1 
REMARK    2  A    between atoms: N_3  and  C_1 
REMARK       I    between atoms: C_4  and  N_3 
REMARK    3  A    between atoms: C_9  and  C_4 
ROOT
ATOM      1  C   UNL d   1      29.843  17.392 -24.559  0.00  0.00     0.209 C 
ATOM      2  S   UNL d   1      29.668  18.044 -25.019  0.00  0.00    -0.038 SA
ENDROOT
BRANCH   1   3
ATOM      3  N   UNL d   1      29.332  16.753 -24.550  0.00  0.00    -0.282 N 
ATOM      4  C   UNL d   1      28.696  16.739 -24.020  0.00  0.00     0.066 A 
ATOM      5  C   UNL d   1      28.187  16.091 -24.018  0.00  0.00     0.016 A 
ATOM      6  C   UNL d   1      28.575  17.369 -23.499  0.00  0.00     0.018 A 
ATOM      7  C   UNL d   1      27.553  16.069 -23.496  0.00  0.00     0.001 A 
ATOM      8  C   UNL d   1      28.310  15.453 -24.546  0.00  0.00     0.003 A 
ATOM      9  C   UNL d   1      27.433  16.692 -22.981  0.00  0.00     0.000 A 
ATOM     10  C   UNL d   1      27.945  17.343 -22.982  0.00  0.00     0.002 A 
ATOM     11  C   UNL d   1      28.942  15.471 -25.070  0.00  0.00     0.019 A 
ATOM     12  C   UNL d   1      29.455  16.115 -25.077  0.00  0.00     0.082 A 
ENDBRANCH   1   3
BRANCH   1  13
ATOM     13  N   UNL d   1      30.534  17.386 -24.109  0.00  0.00    -0.180 NA
ATOM     14  C   UNL d   1      31.187  17.843 -24.349  0.00  0.00     0.281 C 
ATOM     15  O   UNL d   1      31.142  18.290 -25.020  0.00  0.00    -0.265 OA
BRANCH  14  16
ATOM     16  C   UNL d   1      31.872  17.826 -23.888  0.00  0.00     0.058 A 
ATOM     17  C   UNL d   1      32.425  17.214 -23.949  0.00  0.00     0.005 A 
ATOM     18  C   UNL d   1      33.103  17.202 -23.490  0.00  0.00     0.000 A 
ATOM     19  C   UNL d   1      33.241  17.824 -22.946  0.00  0.00     0.000 A 
ATOM     20  C   UNL d   1      32.699  18.431 -22.881  0.00  0.00     0.000 A 
ATOM     21  C   UNL d   1      32.000  18.451 -23.349  0.00  0.00     0.005 A 
ENDBRANCH  14  16
ENDBRANCH   1  13
TORSDOF 3
ENDMDL
MODEL 6
REMARK VINA RESULT:      -0.8      2.764      4.257
REMARK  3 active torsions:
REMARK  status: ('A' for Active; 'I' for Inactive)
REMARK    1  A    between atoms: N_2  and  C_1 
REMARK    2  A    between atoms: N_3  and  C_1 
REMARK       I    between atoms: C_4  and  N_3 
REMARK    3  A    between atoms: C_9  and  C_4 
ROOT
ATOM      1  C   UNL d   1      33.045  20.270 -22.434  0.00  0.00     0.209 C 
ATOM      2  S   UNL d   1      33.240  19.735 -21.847  0.00  0.00    -0.038 SA
ENDROOT
BRANCH   1   3
ATOM      3  N   UNL d   1      33.056  20.034 -23.218  0.00  0.00    -0.282 N 
ATOM      4  C   UNL d   1      32.900  19.246 -23.415  0.00  0.00     0.066 A 
ATOM      5  C   UNL d   1      32.913  19.018 -24.207  0.00  0.00     0.016 A 
ATOM      6  C   UNL d   1      32.731  18.694 -22.823  0.00  0.00     0.018 A 
ATOM      7  C   UNL d   1      32.759  18.238 -24.412  0.00  0.00     0.001 A 
ATOM      8  C   UNL d   1      33.084  19.577 -24.806  0.00  0.00     0.003 A 
ATOM      9  C   UNL d   1      32.592  17.692 -23.827  0.00  0.00     0.000 A 
ATOM     10  C   UNL d   1      32.578  17.921 -23.031  0.00  0.00     0.002 A 
ATOM     11  C   UNL d   1      33.239  20.358 -24.606  0.00  0.00     0.019 A 
ATOM     12  C   UNL d   1      33.227  20.593 -23.817  0.00  0.00     0.082 A 
ENDBRANCH   1   3
BRANCH   1  13
ATOM     13  N   UNL d   1      32.839  21.041 -22.228  0.00  0.00    -0.180 NA
ATOM     14  C   UNL d   1      32.854  21.274 -21.429  0.00  0.00     0.281 C 
ATOM     15  O   UNL d   1      33.070  20.744 -20.859  0.00  0.00    -0.265 OA
BRANCH  14  16
ATOM     16  C   UNL d   1      32.645  22.050 -21.239  0.00  0.00     0.058 A 
ATOM     17  C   UNL d   1      33.089  22.698 -21.498  0.00  0.00     0.005 A 
ATOM     18  C   UNL d   1      32.878  23.466 -21.307  0.00  0.00     0.000 A 
ATOM     19  C   UNL d   1      32.197  23.599 -20.838  0.00  0.00     0.000 A 
ATOM     20  C   UNL d   1      31.755  22.964 -20.579  0.00  0.00     0.000 A 
ATOM     21  C   UNL d   1      31.965  22.172 -20.771  0.00  0.00     0.005 A 
ENDBRANCH  14  16
ENDBRANCH   1  13
TORSDOF 3
ENDMDL
