MODEL 1
REMARK VINA RESULT:      -8.7      0.000      0.000
REMARK  4 active torsions:
REMARK  status: ('A' for Active; 'I' for Inactive)
REMARK    1  A    between atoms: C_12  and  N_3 
REMARK    2  A    between atoms: C_13  and  N_10 
REMARK    3  A    between atoms: C_21  and  C_12 
REMARK    4  A    between atoms: C_16  and  C_13 
ROOT
ATOM      1  C   UNL d   1      51.696  34.645  53.526  0.00  0.00     0.191 A 
ATOM      2  C   UNL d   1      51.484  34.061  52.985  0.00  0.00     0.173 A 
ATOM      3  N   UNL d   1      52.793  33.502  53.065  0.00  0.00    -0.224 N 
ATOM      4  N   UNL d   1      51.039  35.131  53.646  0.00  0.00    -0.042 NA
ATOM      5  C   UNL d   1      50.419  34.840  53.175  0.00  0.00     0.722 A 
ATOM      6  N   UNL d   1      50.696  34.180  52.768  0.00  0.00    -0.131 N 
ATOM      7  N   UNL d   1      52.464  34.657  53.838  0.00  0.00    -0.240 N 
ATOM      8  C   UNL d   1      53.010  34.088  53.608  0.00  0.00     0.343 A 
ATOM      9  C   UNL d   1      52.031  33.485  52.750  0.00  0.00     0.288 A 
ATOM     10  N   UNL d   1      49.637  34.961  52.961  0.00  0.00    -0.135 N 
ATOM     11  C   UNL d   1      50.084  33.896  52.305  0.00  0.00     0.118 A 
ATOM     12  O   UNL d   1      53.779  34.100  53.920  0.00  0.00    -0.245 OA
ATOM     13  O   UNL d   1      51.814  32.898  52.206  0.00  0.00    -0.265 OA
ATOM     14  C   UNL d   1      49.425  34.373  52.418  0.00  0.00     0.118 A 
ATOM     15  C   UNL d   1      52.681  35.242  54.381  0.00  0.00     0.105 C 
ENDROOT
BRANCH   3  16
ATOM     16  C   UNL d   1      53.342  32.929  52.833  0.00  0.00     0.087 C 
BRANCH  16  17
ATOM     17  C   UNL d   1      53.394  32.203  53.246  0.00  0.00     0.018 A 
ATOM     18  C   UNL d   1      53.093  31.523  52.921  0.00  0.00     0.002 A 
ATOM     19  C   UNL d   1      53.145  30.814  53.326  0.00  0.00     0.000 A 
ATOM     20  C   UNL d   1      52.841  30.122  53.002  0.00  0.00     0.000 C 
ATOM     21  C   UNL d   1      53.507  30.791  54.070  0.00  0.00     0.000 A 
ATOM     22  C   UNL d   1      53.816  31.475  54.410  0.00  0.00     0.000 A 
ATOM     23  C   UNL d   1      53.760  32.181  53.998  0.00  0.00     0.002 A 
ENDBRANCH  16  17
ENDBRANCH   3  16
BRANCH  10  24
ATOM     24  C   UNL d   1      49.144  35.562  53.237  0.00  0.00     0.123 C 
BRANCH  24  25
ATOM     25  C   UNL d   1      48.424  35.713  52.849  0.00  0.00     0.118 A 
ATOM     26  O   UNL d   1      48.311  35.782  52.040  0.00  0.00    -0.304 OA
ATOM     27  C   UNL d   1      47.523  35.930  51.901  0.00  0.00     0.123 A 
ATOM     28  C   UNL d   1      47.133  35.954  52.635  0.00  0.00     0.029 A 
ATOM     29  C   UNL d   1      47.697  35.819  53.223  0.00  0.00     0.028 A 
ENDBRANCH  24  25
ENDBRANCH  10  24
TORSDOF 4
ENDMDL
MODEL 2
REMARK VINA RESULT:      -8.5      1.579      5.199
REMARK  4 active torsions:
REMARK  status: ('A' for Active; 'I' for Inactive)
REMARK    1  A    between atoms: C_12  and  N_3 
REMARK    2  A    between atoms: C_13  and  N_10 
REMARK    3  A    between atoms: C_21  and  C_12 
REMARK    4  A    between atoms: C_16  and  C_13 
ROOT
ATOM      1  C   UNL d   1      53.324  32.764  53.771  0.00  0.00     0.191 A 
ATOM      2  C   UNL d   1      52.855  32.501  53.146  0.00  0.00     0.173 A 
ATOM      3  N   UNL d   1      52.444  33.840  52.881  0.00  0.00    -0.224 N 
ATOM      4  N   UNL d   1      53.693  32.107  54.107  0.00  0.00    -0.042 NA
ATOM      5  C   UNL d   1      53.447  31.435  53.684  0.00  0.00     0.722 A 
ATOM      6  N   UNL d   1      52.930  31.681  53.092  0.00  0.00    -0.131 N 
ATOM      7  N   UNL d   1      53.352  33.574  53.950  0.00  0.00    -0.240 N 
ATOM      8  C   UNL d   1      52.914  34.109  53.507  0.00  0.00     0.343 A 
ATOM      9  C   UNL d   1      52.411  33.037  52.697  0.00  0.00     0.288 A 
ATOM     10  N   UNL d   1      53.524  30.620  53.633  0.00  0.00    -0.135 N 
ATOM     11  C   UNL d   1      52.690  31.017  52.678  0.00  0.00     0.118 A 
ATOM     12  O   UNL d   1      52.942  34.918  53.687  0.00  0.00    -0.245 OA
ATOM     13  O   UNL d   1      51.940  32.768  52.070  0.00  0.00    -0.265 OA
ATOM     14  C   UNL d   1      53.052  30.356  53.005  0.00  0.00     0.118 A 
ATOM     15  C   UNL d   1      53.822  33.842  54.576  0.00  0.00     0.105 C 
ENDROOT
BRANCH   3  16
ATOM     16  C   UNL d   1      52.002  34.378  52.435  0.00  0.00     0.087 C 
BRANCH  16  17
ATOM     17  C   UNL d   1      51.182  34.468  52.573  0.00  0.00     0.018 A 
ATOM     18  C   UNL d   1      50.651  34.387  51.964  0.00  0.00     0.002 A 
ATOM     19  C   UNL d   1      49.849  34.476  52.101  0.00  0.00     0.000 A 
ATOM     20  C   UNL d   1      49.307  34.394  51.488  0.00  0.00     0.000 C 
ATOM     21  C   UNL d   1      49.579  34.650  52.864  0.00  0.00     0.000 A 
ATOM     22  C   UNL d   1      50.108  34.735  53.489  0.00  0.00     0.000 A 
ATOM     23  C   UNL d   1      50.909  34.644  53.344  0.00  0.00     0.002 A 
ENDBRANCH  16  17
ENDBRANCH   3  16
BRANCH  10  24
ATOM     24  C   UNL d   1      53.989  30.143  54.119  0.00  0.00     0.123 C 
BRANCH  24  25
ATOM     25  C   UNL d   1      53.644  29.496  54.511  0.00  0.00     0.118 A 
ATOM     26  O   UNL d   1      53.175  29.526  55.182  0.00  0.00    -0.304 OA
ATOM     27  C   UNL d   1      52.956  28.768  55.378  0.00  0.00     0.123 A 
ATOM     28  C   UNL d   1      53.292  28.251  54.821  0.00  0.00     0.029 A 
ATOM     29  C   UNL d   1      53.720  28.708  54.282  0.00  0.00     0.028 A 
ENDBRANCH  24  25
ENDBRANCH  10  24
TORSDOF 4
ENDMDL
MODEL 3
REMARK VINA RESULT:      -7.9      1.456      2.351
REMARK  4 active torsions:
REMARK  status: ('A' for Active; 'I' for Inactive)
REMARK    1  A    between atoms: C_12  and  N_3 
REMARK    2  A    between atoms: C_13  and  N_10 
REMARK    3  A    between atoms: C_21  and  C_12 
REMARK    4  A    between atoms: C_16  and  C_13 
ROOT
ATOM      1  C   UNL d   1      51.662  32.653  53.026  0.00  0.00     0.191 A 
ATOM      2  C   UNL d   1      52.036  33.386  53.045  0.00  0.00     0.173 A 
ATOM      3  N   UNL d   1      53.288  32.750  53.296  0.00  0.00    -0.224 N 
ATOM      4  N   UNL d   1      50.859  32.780  52.883  0.00  0.00    -0.042 NA
ATOM      5  C   UNL d   1      50.742  33.600  52.813  0.00  0.00     0.722 A 
ATOM      6  N   UNL d   1      51.469  33.971  52.913  0.00  0.00    -0.131 N 
ATOM      7  N   UNL d   1      52.107  31.962  53.144  0.00  0.00    -0.240 N 
ATOM      8  C   UNL d   1      52.915  32.011  53.278  0.00  0.00     0.343 A 
ATOM      9  C   UNL d   1      52.852  33.440  53.180  0.00  0.00     0.288 A 
ATOM     10  N   UNL d   1      50.176  34.178  52.681  0.00  0.00    -0.135 N 
ATOM     11  C   UNL d   1      51.350  34.778  52.843  0.00  0.00     0.118 A 
ATOM     12  O   UNL d   1      53.360  31.320  53.395  0.00  0.00    -0.245 OA
ATOM     13  O   UNL d   1      53.225  34.181  53.197  0.00  0.00    -0.265 OA
ATOM     14  C   UNL d   1      50.553  34.915  52.700  0.00  0.00     0.118 A 
ATOM     15  C   UNL d   1      51.734  31.223  53.126  0.00  0.00     0.105 C 
ENDROOT
BRANCH   3  16
ATOM     16  C   UNL d   1      54.101  32.800  53.430  0.00  0.00     0.087 C 
BRANCH  16  17
ATOM     17  C   UNL d   1      54.392  33.021  54.184  0.00  0.00     0.018 A 
ATOM     18  C   UNL d   1      54.994  33.562  54.249  0.00  0.00     0.002 A 
ATOM     19  C   UNL d   1      55.278  33.777  54.987  0.00  0.00     0.000 A 
ATOM     20  C   UNL d   1      55.887  34.323  55.059  0.00  0.00     0.000 C 
ATOM     21  C   UNL d   1      54.947  33.440  55.668  0.00  0.00     0.000 A 
ATOM     22  C   UNL d   1      54.336  32.891  55.613  0.00  0.00     0.000 A 
ATOM     23  C   UNL d   1      54.058  32.682  54.871  0.00  0.00     0.002 A 
ENDBRANCH  16  17
ENDBRANCH   3  16
BRANCH  10  24
ATOM     24  C   UNL d   1      49.371  34.053  52.553  0.00  0.00     0.123 C 
BRANCH  24  25
ATOM     25  C   UNL d   1      48.989  34.444  51.927  0.00  0.00     0.118 A 
ATOM     26  O   UNL d   1      49.077  34.287  51.128  0.00  0.00    -0.304 OA
ATOM     27  C   UNL d   1      48.602  34.799  50.710  0.00  0.00     0.123 A 
ATOM     28  C   UNL d   1      48.208  35.287  51.256  0.00  0.00     0.029 A 
ATOM     29  C   UNL d   1      48.451  35.063  52.012  0.00  0.00     0.028 A 
ENDBRANCH  24  25
ENDBRANCH  10  24
TORSDOF 4
ENDMDL
MODEL 4
REMARK VINA RESULT:      -7.1      1.219      5.799
REMARK  4 active torsions:
REMARK  status: ('A' for Active; 'I' for Inactive)
REMARK    1  A    between atoms: C_12  and  N_3 
REMARK    2  A    between atoms: C_13  and  N_10 
REMARK    3  A    between atoms: C_21  and  C_12 
REMARK    4  A    between atoms: C_16  and  C_13 
ROOT
ATOM      1  C   UNL d   1      49.202  34.663  51.885  0.00  0.00     0.191 A 
ATOM      2  C   UNL d   1      49.294  35.030  52.617  0.00  0.00     0.173 A 
ATOM      3  N   UNL d   1      48.098  35.777  52.401  0.00  0.00    -0.224 N 
ATOM      4  N   UNL d   1      49.832  34.140  51.782  0.00  0.00    -0.042 NA
ATOM      5  C   UNL d   1      50.314  34.188  52.457  0.00  0.00     0.722 A 
ATOM      6  N   UNL d   1      49.980  34.738  52.970  0.00  0.00    -0.131 N 
ATOM      7  N   UNL d   1      48.551  34.856  51.409  0.00  0.00    -0.240 N 
ATOM      8  C   UNL d   1      48.002  35.410  51.665  0.00  0.00     0.343 A 
ATOM      9  C   UNL d   1      48.743  35.590  52.880  0.00  0.00     0.288 A 
ATOM     10  N   UNL d   1      50.997  33.896  52.805  0.00  0.00    -0.135 N 
ATOM     11  C   UNL d   1      50.457  34.783  53.634  0.00  0.00     0.118 A 
ATOM     12  O   UNL d   1      47.351  35.603  51.188  0.00  0.00    -0.245 OA
ATOM     13  O   UNL d   1      48.839  35.957  53.617  0.00  0.00    -0.265 OA
ATOM     14  C   UNL d   1      51.089  34.266  53.540  0.00  0.00     0.118 A 
ATOM     15  C   UNL d   1      48.454  34.489  50.673  0.00  0.00     0.105 C 
ENDROOT
BRANCH   3  16
ATOM     16  C   UNL d   1      47.547  36.335  52.661  0.00  0.00     0.087 C 
BRANCH  16  17
ATOM     17  C   UNL d   1      46.914  36.104  53.158  0.00  0.00     0.018 A 
ATOM     18  C   UNL d   1      46.219  35.832  52.838  0.00  0.00     0.002 A 
ATOM     19  C   UNL d   1      45.601  35.606  53.325  0.00  0.00     0.000 A 
ATOM     20  C   UNL d   1      44.895  35.330  53.006  0.00  0.00     0.000 C 
ATOM     21  C   UNL d   1      45.686  35.656  54.147  0.00  0.00     0.000 A 
ATOM     22  C   UNL d   1      46.387  35.930  54.482  0.00  0.00     0.000 A 
ATOM     23  C   UNL d   1      47.000  36.154  53.988  0.00  0.00     0.002 A 
ENDBRANCH  16  17
ENDBRANCH   3  16
BRANCH  10  24
ATOM     24  C   UNL d   1      51.505  33.332  52.483  0.00  0.00     0.123 C 
BRANCH  24  25
ATOM     25  C   UNL d   1      52.240  33.188  52.844  0.00  0.00     0.118 A 
ATOM     26  O   UNL d   1      52.873  33.707  52.885  0.00  0.00    -0.304 OA
ATOM     27  C   UNL d   1      53.480  33.343  53.286  0.00  0.00     0.123 A 
ATOM     28  C   UNL d   1      53.225  32.582  53.501  0.00  0.00     0.029 A 
ATOM     29  C   UNL d   1      52.453  32.489  53.225  0.00  0.00     0.028 A 
ENDBRANCH  24  25
ENDBRANCH  10  24
TORSDOF 4
ENDMDL
MODEL 5
REMARK VINA RESULT:      -5.7      1.598      2.778
REMARK  4 active torsions:
REMARK  status: ('A' for Active; 'I' for Inactive)
REMARK    1  A    between atoms: C_12  and  N_3 
REMARK    2  A    between atoms: C_13  and  N_10 
REMARK    3  A    between atoms: C_21  and  C_12 
REMARK    4  A    between atoms: C_16  and  C_13 
ROOT
ATOM      1  C   UNL d   1      49.464  34.756  51.934  0.00  0.00     0.191 A 
ATOM      2  C   UNL d   1      49.468  34.795  52.757  0.00  0.00     0.173 A 
ATOM      3  N   UNL d   1      50.619  33.954  52.798  0.00  0.00    -0.224 N 
ATOM      4  N   UNL d   1      48.829  35.208  51.661  0.00  0.00    -0.042 NA
ATOM      5  C   UNL d   1      48.441  35.525  52.325  0.00  0.00     0.722 A 
ATOM      6  N   UNL d   1      48.837  35.269  52.999  0.00  0.00    -0.131 N 
ATOM      7  N   UNL d   1      50.045  34.312  51.541  0.00  0.00    -0.240 N 
ATOM      8  C   UNL d   1      50.619  33.913  51.971  0.00  0.00     0.343 A 
ATOM      9  C   UNL d   1      50.046  34.394  53.195  0.00  0.00     0.288 A 
ATOM     10  N   UNL d   1      47.813  35.996  52.561  0.00  0.00    -0.135 N 
ATOM     11  C   UNL d   1      48.452  35.582  53.649  0.00  0.00     0.118 A 
ATOM     12  O   UNL d   1      51.199  33.469  51.578  0.00  0.00    -0.245 OA
ATOM     13  O   UNL d   1      50.046  34.435  54.023  0.00  0.00    -0.265 OA
ATOM     14  C   UNL d   1      47.818  36.034  53.388  0.00  0.00     0.118 A 
ATOM     15  C   UNL d   1      50.044  34.272  50.714  0.00  0.00     0.105 C 
ENDROOT
BRANCH   3  16
ATOM     16  C   UNL d   1      51.197  33.553  53.232  0.00  0.00     0.087 C 
BRANCH  16  17
ATOM     17  C   UNL d   1      51.954  33.893  53.343  0.00  0.00     0.018 A 
ATOM     18  C   UNL d   1      52.617  33.425  53.350  0.00  0.00     0.002 A 
ATOM     19  C   UNL d   1      53.357  33.759  53.459  0.00  0.00     0.000 A 
ATOM     20  C   UNL d   1      54.032  33.290  53.467  0.00  0.00     0.000 C 
ATOM     21  C   UNL d   1      53.427  34.578  53.562  0.00  0.00     0.000 A 
ATOM     22  C   UNL d   1      52.761  35.062  53.557  0.00  0.00     0.000 A 
ATOM     23  C   UNL d   1      52.025  34.720  53.447  0.00  0.00     0.002 A 
ENDBRANCH  16  17
ENDBRANCH   3  16
BRANCH  10  24
ATOM     24  C   UNL d   1      47.269  36.369  52.065  0.00  0.00     0.123 C 
BRANCH  24  25
ATOM     25  C   UNL d   1      46.459  36.203  52.146  0.00  0.00     0.118 A 
ATOM     26  O   UNL d   1      46.068  35.537  51.872  0.00  0.00    -0.304 OA
ATOM     27  C   UNL d   1      45.282  35.599  52.068  0.00  0.00     0.123 A 
ATOM     28  C   UNL d   1      45.175  36.317  52.474  0.00  0.00     0.029 A 
ATOM     29  C   UNL d   1      45.910  36.690  52.520  0.00  0.00     0.028 A 
ENDBRANCH  24  25
ENDBRANCH  10  24
TORSDOF 4
ENDMDL
