MODEL 1
REMARK VINA RESULT:      -7.0      0.000      0.000
REMARK  4 active torsions:
REMARK  status: ('A' for Active; 'I' for Inactive)
REMARK    1  A    between atoms: C_2  and  C_1 
REMARK    2  A    between atoms: C_3  and  C_1 
REMARK    3  A    between atoms: C_4  and  C_2 
REMARK    4  A    between atoms: C_9  and  C_3 
ROOT
ATOM      1  C   UNL d   1     -48.182  13.192  22.297  0.00  0.00     0.196 C 
ATOM      2  O   UNL d   1     -48.377  13.019  21.515  0.00  0.00    -0.287 OA
ENDROOT
BRANCH   1   3
ATOM      3  C   UNL d   1     -48.647  13.727  22.729  0.00  0.00     0.042 C 
BRANCH   3   4
ATOM      4  C   UNL d   1     -49.284  14.106  22.366  0.00  0.00     0.005 C 
BRANCH   4   5
ATOM      5  C   UNL d   1     -49.742  14.635  22.797  0.00  0.00     0.019 A 
ATOM      6  C   UNL d   1     -49.453  15.391  22.967  0.00  0.00     0.099 A 
ATOM      7  N   UNL d   1     -49.912  15.920  23.398  0.00  0.00    -0.242 NA
ATOM      8  C   UNL d   1     -50.664  15.697  23.664  0.00  0.00     0.099 A 
ATOM      9  C   UNL d   1     -50.954  14.946  23.497  0.00  0.00     0.021 A 
ATOM     10  C   UNL d   1     -50.495  14.412  23.063  0.00  0.00     0.003 A 
ENDBRANCH   4   5
ENDBRANCH   3   4
ENDBRANCH   1   3
BRANCH   1  11
ATOM     11  C   UNL d   1     -47.528  12.836  22.647  0.00  0.00     0.039 A 
ATOM     12  C   UNL d   1     -46.773  13.073  22.427  0.00  0.00     0.006 A 
ATOM     13  C   UNL d   1     -46.116  12.717  22.776  0.00  0.00     0.042 A 
ATOM     14  C   UNL d   1     -46.218  12.122  23.350  0.00  0.00     0.196 A 
ATOM     15  C   UNL d   1     -46.980  11.890  23.566  0.00  0.00     0.042 A 
ATOM     16  O   UNL d   1     -45.557  11.768  23.698  0.00  0.00    -0.287 OA
ATOM     17  C   UNL d   1     -47.634  12.246  23.216  0.00  0.00     0.006 A 
ENDBRANCH   1  11
TORSDOF 4
ENDMDL
MODEL 2
REMARK VINA RESULT:      -6.7      1.775      4.118
REMARK  4 active torsions:
REMARK  status: ('A' for Active; 'I' for Inactive)
REMARK    1  A    between atoms: C_2  and  C_1 
REMARK    2  A    between atoms: C_3  and  C_1 
REMARK    3  A    between atoms: C_4  and  C_2 
REMARK    4  A    between atoms: C_9  and  C_3 
ROOT
ATOM      1  C   UNL d   1     -48.955  13.737  22.122  0.00  0.00     0.196 C 
ATOM      2  O   UNL d   1     -49.002  13.540  21.322  0.00  0.00    -0.287 OA
ENDROOT
BRANCH   1   3
ATOM      3  C   UNL d   1     -48.375  13.384  22.600  0.00  0.00     0.042 C 
BRANCH   3   4
ATOM      4  C   UNL d   1     -47.773  12.938  22.255  0.00  0.00     0.005 C 
BRANCH   4   5
ATOM      5  C   UNL d   1     -47.248  12.524  22.735  0.00  0.00     0.019 A 
ATOM      6  C   UNL d   1     -46.454  12.751  22.771  0.00  0.00     0.099 A 
ATOM      7  N   UNL d   1     -45.928  12.338  23.251  0.00  0.00    -0.242 NA
ATOM      8  C   UNL d   1     -46.194  11.692  23.698  0.00  0.00     0.099 A 
ATOM      9  C   UNL d   1     -46.984  11.464  23.663  0.00  0.00     0.021 A 
ATOM     10  C   UNL d   1     -47.514  11.879  23.182  0.00  0.00     0.003 A 
ENDBRANCH   4   5
ENDBRANCH   3   4
ENDBRANCH   1   3
BRANCH   1  11
ATOM     11  C   UNL d   1     -49.481  14.281  22.444  0.00  0.00     0.039 A 
ATOM     12  C   UNL d   1     -49.190  14.932  22.850  0.00  0.00     0.006 A 
ATOM     13  C   UNL d   1     -49.716  15.480  23.174  0.00  0.00     0.042 A 
ATOM     14  C   UNL d   1     -50.538  15.371  23.088  0.00  0.00     0.196 A 
ATOM     15  C   UNL d   1     -50.822  14.714  22.678  0.00  0.00     0.042 A 
ATOM     16  O   UNL d   1     -51.061  15.922  23.414  0.00  0.00    -0.287 OA
ATOM     17  C   UNL d   1     -50.295  14.170  22.356  0.00  0.00     0.006 A 
ENDBRANCH   1  11
TORSDOF 4
ENDMDL
MODEL 3
REMARK VINA RESULT:      -6.4      2.027      4.324
REMARK  4 active torsions:
REMARK  status: ('A' for Active; 'I' for Inactive)
REMARK    1  A    between atoms: C_2  and  C_1 
REMARK    2  A    between atoms: C_3  and  C_1 
REMARK    3  A    between atoms: C_4  and  C_2 
REMARK    4  A    between atoms: C_9  and  C_3 
ROOT
ATOM      1  C   UNL d   1     -47.794  14.781  22.606  0.00  0.00     0.196 C 
ATOM      2  O   UNL d   1     -47.342  15.469  22.551  0.00  0.00    -0.287 OA
ENDROOT
BRANCH   1   3
ATOM      3  C   UNL d   1     -47.424  14.056  22.768  0.00  0.00     0.042 C 
BRANCH   3   4
ATOM      4  C   UNL d   1     -46.609  14.028  22.892  0.00  0.00     0.005 C 
BRANCH   4   5
ATOM      5  C   UNL d   1     -46.225  13.301  22.915  0.00  0.00     0.019 A 
ATOM      6  C   UNL d   1     -46.441  12.736  23.479  0.00  0.00     0.099 A 
ATOM      7  N   UNL d   1     -46.057  12.009  23.502  0.00  0.00    -0.242 NA
ATOM      8  C   UNL d   1     -45.453  11.841  22.960  0.00  0.00     0.099 A 
ATOM      9  C   UNL d   1     -45.236  12.402  22.398  0.00  0.00     0.021 A 
ATOM     10  C   UNL d   1     -45.621  13.133  22.373  0.00  0.00     0.003 A 
ENDBRANCH   4   5
ENDBRANCH   3   4
ENDBRANCH   1   3
BRANCH   1  11
ATOM     11  C   UNL d   1     -48.609  14.815  22.499  0.00  0.00     0.039 A 
ATOM     12  C   UNL d   1     -48.951  14.411  21.872  0.00  0.00     0.006 A 
ATOM     13  C   UNL d   1     -49.768  14.442  21.762  0.00  0.00     0.042 A 
ATOM     14  C   UNL d   1     -50.243  14.883  22.287  0.00  0.00     0.196 A 
ATOM     15  C   UNL d   1     -49.891  15.286  22.915  0.00  0.00     0.042 A 
ATOM     16  O   UNL d   1     -51.061  14.912  22.174  0.00  0.00    -0.287 OA
ATOM     17  C   UNL d   1     -49.076  15.252  23.021  0.00  0.00     0.006 A 
ENDBRANCH   1  11
TORSDOF 4
ENDMDL
MODEL 4
REMARK VINA RESULT:      -5.8      8.589      9.960
REMARK  4 active torsions:
REMARK  status: ('A' for Active; 'I' for Inactive)
REMARK    1  A    between atoms: C_2  and  C_1 
REMARK    2  A    between atoms: C_3  and  C_1 
REMARK    3  A    between atoms: C_4  and  C_2 
REMARK    4  A    between atoms: C_9  and  C_3 
ROOT
ATOM      1  C   UNL d   1     -40.189  14.085  18.202  0.00  0.00     0.196 C 
ATOM      2  O   UNL d   1     -40.928  13.732  18.103  0.00  0.00    -0.287 OA
ENDROOT
BRANCH   1   3
ATOM      3  C   UNL d   1     -40.005  14.463  18.919  0.00  0.00     0.042 C 
BRANCH   3   4
ATOM      4  C   UNL d   1     -40.524  14.408  19.558  0.00  0.00     0.005 C 
BRANCH   4   5
ATOM      5  C   UNL d   1     -40.364  14.827  20.248  0.00  0.00     0.019 A 
ATOM      6  C   UNL d   1     -39.764  14.573  20.756  0.00  0.00     0.099 A 
ATOM      7  N   UNL d   1     -39.604  14.991  21.447  0.00  0.00    -0.242 NA
ATOM      8  C   UNL d   1     -40.045  15.667  21.634  0.00  0.00     0.099 A 
ATOM      9  C   UNL d   1     -40.643  15.922  21.129  0.00  0.00     0.021 A 
ATOM     10  C   UNL d   1     -40.805  15.503  20.435  0.00  0.00     0.003 A 
ENDBRANCH   4   5
ENDBRANCH   3   4
ENDBRANCH   1   3
BRANCH   1  11
ATOM     11  C   UNL d   1     -39.636  14.061  17.593  0.00  0.00     0.039 A 
ATOM     12  C   UNL d   1     -39.609  14.676  17.050  0.00  0.00     0.006 A 
ATOM     13  C   UNL d   1     -39.056  14.655  16.437  0.00  0.00     0.042 A 
ATOM     14  C   UNL d   1     -38.528  14.014  16.373  0.00  0.00     0.196 A 
ATOM     15  C   UNL d   1     -38.562  13.400  16.923  0.00  0.00     0.042 A 
ATOM     16  O   UNL d   1     -37.975  13.997  15.758  0.00  0.00    -0.287 OA
ATOM     17  C   UNL d   1     -39.115  13.424  17.533  0.00  0.00     0.006 A 
ENDBRANCH   1  11
TORSDOF 4
ENDMDL
MODEL 5
REMARK VINA RESULT:      -5.5      8.957     10.375
REMARK  4 active torsions:
REMARK  status: ('A' for Active; 'I' for Inactive)
REMARK    1  A    between atoms: C_2  and  C_1 
REMARK    2  A    between atoms: C_3  and  C_1 
REMARK    3  A    between atoms: C_4  and  C_2 
REMARK    4  A    between atoms: C_9  and  C_3 
ROOT
ATOM      1  C   UNL d   1     -40.464  14.418  18.895  0.00  0.00     0.196 C 
ATOM      2  O   UNL d   1     -41.167  14.046  18.677  0.00  0.00    -0.287 OA
ENDROOT
BRANCH   1   3
ATOM      3  C   UNL d   1     -39.816  14.410  18.376  0.00  0.00     0.042 C 
BRANCH   3   4
ATOM      4  C   UNL d   1     -39.884  14.049  17.637  0.00  0.00     0.005 C 
BRANCH   4   5
ATOM      5  C   UNL d   1     -39.238  14.040  17.128  0.00  0.00     0.019 A 
ATOM      6  C   UNL d   1     -39.080  14.693  16.646  0.00  0.00     0.099 A 
ATOM      7  N   UNL d   1     -38.434  14.684  16.137  0.00  0.00    -0.242 NA
ATOM      8  C   UNL d   1     -37.940  14.019  16.106  0.00  0.00     0.099 A 
ATOM      9  C   UNL d   1     -38.095  13.367  16.584  0.00  0.00     0.021 A 
ATOM     10  C   UNL d   1     -38.744  13.375  17.096  0.00  0.00     0.003 A 
ENDBRANCH   4   5
ENDBRANCH   3   4
ENDBRANCH   1   3
BRANCH   1  11
ATOM     11  C   UNL d   1     -40.405  14.794  19.624  0.00  0.00     0.039 A 
ATOM     12  C   UNL d   1     -40.022  14.416  20.243  0.00  0.00     0.006 A 
ATOM     13  C   UNL d   1     -39.961  14.791  20.976  0.00  0.00     0.042 A 
ATOM     14  C   UNL d   1     -40.289  15.549  21.086  0.00  0.00     0.196 A 
ATOM     15  C   UNL d   1     -40.673  15.922  20.458  0.00  0.00     0.042 A 
ATOM     16  O   UNL d   1     -40.227  15.922  21.821  0.00  0.00    -0.287 OA
ATOM     17  C   UNL d   1     -40.731  15.546  19.729  0.00  0.00     0.006 A 
ENDBRANCH   1  11
TORSDOF 4
ENDMDL
MODEL 6
REMARK VINA RESULT:      -5.3      8.692      9.503
REMARK  4 active torsions:
REMARK  status: ('A' for Active; 'I' for Inactive)
REMARK    1  A    between atoms: C_2  and  C_1 
REMARK    2  A    between atoms: C_3  and  C_1 
REMARK    3  A    between atoms: C_4  and  C_2 
REMARK    4  A    between atoms: C_9  and  C_3 
ROOT
ATOM      1  C   UNL d   1     -40.566  14.565  20.308  0.00  0.00     0.196 C 
ATOM      2  O   UNL d   1     -41.250  14.113  20.396  0.00  0.00    -0.287 OA
ENDROOT
BRANCH   1   3
ATOM      3  C   UNL d   1     -40.276  14.731  19.547  0.00  0.00     0.042 C 
BRANCH   3   4
ATOM      4  C   UNL d   1     -40.622  14.375  18.889  0.00  0.00     0.005 C 
BRANCH   4   5
ATOM      5  C   UNL d   1     -40.366  14.580  18.134  0.00  0.00     0.019 A 
ATOM      6  C   UNL d   1     -39.715  14.197  17.798  0.00  0.00     0.099 A 
ATOM      7  N   UNL d   1     -39.460  14.402  17.044  0.00  0.00    -0.242 NA
ATOM      8  C   UNL d   1     -39.855  14.994  16.619  0.00  0.00     0.099 A 
ATOM      9  C   UNL d   1     -40.503  15.377  16.951  0.00  0.00     0.021 A 
ATOM     10  C   UNL d   1     -40.761  15.172  17.709  0.00  0.00     0.003 A 
ENDBRANCH   4   5
ENDBRANCH   3   4
ENDBRANCH   1   3
BRANCH   1  11
ATOM     11  C   UNL d   1     -40.172  14.849  20.971  0.00  0.00     0.039 A 
ATOM     12  C   UNL d   1     -39.687  14.344  21.400  0.00  0.00     0.006 A 
ATOM     13  C   UNL d   1     -39.290  14.627  22.067  0.00  0.00     0.042 A 
ATOM     14  C   UNL d   1     -39.382  15.421  22.302  0.00  0.00     0.196 A 
ATOM     15  C   UNL d   1     -39.871  15.922  21.865  0.00  0.00     0.042 A 
ATOM     16  O   UNL d   1     -38.984  15.701  22.970  0.00  0.00    -0.287 OA
ATOM     17  C   UNL d   1     -40.265  15.637  21.202  0.00  0.00     0.006 A 
ENDBRANCH   1  11
TORSDOF 4
ENDMDL
MODEL 7
REMARK VINA RESULT:      -5.3      1.496      1.814
REMARK  4 active torsions:
REMARK  status: ('A' for Active; 'I' for Inactive)
REMARK    1  A    between atoms: C_2  and  C_1 
REMARK    2  A    between atoms: C_3  and  C_1 
REMARK    3  A    between atoms: C_4  and  C_2 
REMARK    4  A    between atoms: C_9  and  C_3 
ROOT
ATOM      1  C   UNL d   1     -48.632  11.719  23.377  0.00  0.00     0.196 C 
ATOM      2  O   UNL d   1     -49.047  11.082  23.698  0.00  0.00    -0.287 OA
ENDROOT
BRANCH   1   3
ATOM      3  C   UNL d   1     -49.047  12.343  23.019  0.00  0.00     0.042 C 
BRANCH   3   4
ATOM      4  C   UNL d   1     -49.849  12.259  22.847  0.00  0.00     0.005 C 
BRANCH   4   5
ATOM      5  C   UNL d   1     -50.253  12.874  22.480  0.00  0.00     0.019 A 
ATOM      6  C   UNL d   1     -50.497  13.531  22.920  0.00  0.00     0.099 A 
ATOM      7  N   UNL d   1     -50.901  14.146  22.552  0.00  0.00    -0.242 NA
ATOM      8  C   UNL d   1     -51.064  14.109  21.740  0.00  0.00     0.099 A 
ATOM      9  C   UNL d   1     -50.823  13.457  21.301  0.00  0.00     0.021 A 
ATOM     10  C   UNL d   1     -50.417  12.837  21.668  0.00  0.00     0.003 A 
ENDBRANCH   4   5
ENDBRANCH   3   4
ENDBRANCH   1   3
BRANCH   1  11
ATOM     11  C   UNL d   1     -47.811  11.735  23.412  0.00  0.00     0.039 A 
ATOM     12  C   UNL d   1     -47.412  12.427  23.223  0.00  0.00     0.006 A 
ATOM     13  C   UNL d   1     -46.587  12.446  23.257  0.00  0.00     0.042 A 
ATOM     14  C   UNL d   1     -46.163  11.765  23.481  0.00  0.00     0.196 A 
ATOM     15  C   UNL d   1     -46.571  11.073  23.669  0.00  0.00     0.042 A 
ATOM     16  O   UNL d   1     -45.337  11.787  23.514  0.00  0.00    -0.287 OA
ATOM     17  C   UNL d   1     -47.393  11.057  23.634  0.00  0.00     0.006 A 
ENDBRANCH   1  11
TORSDOF 4
ENDMDL
MODEL 8
REMARK VINA RESULT:      -5.0      8.791      9.734
REMARK  4 active torsions:
REMARK  status: ('A' for Active; 'I' for Inactive)
REMARK    1  A    between atoms: C_2  and  C_1 
REMARK    2  A    between atoms: C_3  and  C_1 
REMARK    3  A    between atoms: C_4  and  C_2 
REMARK    4  A    between atoms: C_9  and  C_3 
ROOT
ATOM      1  C   UNL d   1     -40.568  15.050  20.149  0.00  0.00     0.196 C 
ATOM      2  O   UNL d   1     -41.229  15.345  20.544  0.00  0.00    -0.287 OA
ENDROOT
BRANCH   1   3
ATOM      3  C   UNL d   1     -39.926  14.754  20.584  0.00  0.00     0.042 C 
BRANCH   3   4
ATOM      4  C   UNL d   1     -39.941  14.780  21.409  0.00  0.00     0.005 C 
BRANCH   4   5
ATOM      5  C   UNL d   1     -39.296  14.501  21.836  0.00  0.00     0.019 A 
ATOM      6  C   UNL d   1     -38.683  15.016  22.044  0.00  0.00     0.099 A 
ATOM      7  N   UNL d   1     -38.038  14.737  22.472  0.00  0.00    -0.242 NA
ATOM      8  C   UNL d   1     -38.001  13.939  22.695  0.00  0.00     0.099 A 
ATOM      9  C   UNL d   1     -38.609  13.425  22.489  0.00  0.00     0.021 A 
ATOM     10  C   UNL d   1     -39.259  13.703  22.059  0.00  0.00     0.003 A 
ENDBRANCH   4   5
ENDBRANCH   3   4
ENDBRANCH   1   3
BRANCH   1  11
ATOM     11  C   UNL d   1     -40.544  15.051  19.326  0.00  0.00     0.039 A 
ATOM     12  C   UNL d   1     -40.585  14.338  18.921  0.00  0.00     0.006 A 
ATOM     13  C   UNL d   1     -40.562  14.336  18.096  0.00  0.00     0.042 A 
ATOM     14  C   UNL d   1     -40.498  15.053  17.678  0.00  0.00     0.196 A 
ATOM     15  C   UNL d   1     -40.457  15.765  18.093  0.00  0.00     0.042 A 
ATOM     16  O   UNL d   1     -40.475  15.047  16.852  0.00  0.00    -0.287 OA
ATOM     17  C   UNL d   1     -40.481  15.764  18.915  0.00  0.00     0.006 A 
ENDBRANCH   1  11
TORSDOF 4
ENDMDL
