MODEL 1
REMARK VINA RESULT:      25.4      0.000      0.000
REMARK  3 active torsions:
REMARK  status: ('A' for Active; 'I' for Inactive)
REMARK    1  A    between atoms: S_9  and  C_3 
REMARK    2  A    between atoms: C_15  and  S_9 
REMARK    3  A    between atoms: C_11  and  C_15 
ROOT
ATOM      1  N   UNL d   1      13.325  13.150  -3.766  0.00  0.00    -0.263 N 
ATOM      2  C   UNL d   1      13.033  12.888  -4.501  0.00  0.00     0.202 A 
ATOM      3  C   UNL d   1      13.356  12.484  -3.267  0.00  0.00     0.202 A 
ATOM      4  N   UNL d   1      12.886  12.079  -4.456  0.00  0.00    -0.121 NA
ATOM      5  S   UNL d   1      13.000  13.556  -5.007  0.00  0.00    -0.047 SA
ATOM      6  N   UNL d   1      13.088  11.830  -3.686  0.00  0.00    -0.121 NA
ATOM      7  C   UNL d   1      13.469  13.961  -3.818  0.00  0.00     0.074 A 
ATOM      8  C   UNL d   1      13.271  14.216  -4.578  0.00  0.00     0.049 A 
ATOM      9  C   UNL d   1      13.757  14.499  -3.265  0.00  0.00     0.018 A 
ATOM     10  C   UNL d   1      13.361  14.998  -4.778  0.00  0.00     0.008 A 
ATOM     11  C   UNL d   1      13.846  15.292  -3.474  0.00  0.00     0.002 A 
ATOM     12  C   UNL d   1      13.646  15.538  -4.236  0.00  0.00     0.001 A 
ENDROOT
BRANCH   3  13
ATOM     13  S   UNL d   1      13.611  12.487  -2.490  0.00  0.00    -0.047 SA
BRANCH  13  14
ATOM     14  C   UNL d   1      13.771  11.779  -2.106  0.00  0.00     0.045 C 
BRANCH  14  15
ATOM     15  C   UNL d   1      14.095  11.785  -1.346  0.00  0.00     0.036 A 
ATOM     16  S   UNL d   1      13.668  11.780  -0.637  0.00  0.00    -0.086 SA
ATOM     17  C   UNL d   1      14.211  11.789  -0.021  0.00  0.00     0.035 A 
ATOM     18  C   UNL d   1      14.971  11.799  -0.338  0.00  0.00     0.007 A 
ATOM     19  C   UNL d   1      14.892  11.797  -1.160  0.00  0.00     0.007 A 
ENDBRANCH  14  15
ENDBRANCH  13  14
ENDBRANCH   3  13
TORSDOF 3
ENDMDL
