MODEL 1
REMARK VINA RESULT:      -9.5      0.000      0.000
REMARK  5 active torsions:
REMARK  status: ('A' for Active; 'I' for Inactive)
REMARK    1  A    between atoms: N_7  and  S_1 
REMARK    2  A    between atoms: C_10  and  S_1 
REMARK    3  A    between atoms: C_2  and  N_4 
REMARK       I    between atoms: N_4  and  C_8 
REMARK    4  A    between atoms: C_8  and  C_13 
REMARK    5  A    between atoms: O_23  and  C_14 
ROOT
ATOM      1  C   UNL d   1      48.812  35.123  52.321  0.00  0.00     0.104 A 
ATOM      2  C   UNL d   1      50.292  34.468  52.558  0.00  0.00     0.058 A 
ATOM      3  C   UNL d   1      49.169  35.210  53.033  0.00  0.00     0.013 A 
ATOM      4  C   UNL d   1      49.182  34.702  51.693  0.00  0.00     0.013 A 
ATOM      5  C   UNL d   1      49.916  34.884  53.165  0.00  0.00     0.005 A 
ATOM      6  C   UNL d   1      49.927  34.376  51.822  0.00  0.00     0.005 A 
ENDROOT
BRANCH   2   7
ATOM      7  C   UNL d   1      51.039  34.142  52.691  0.00  0.00     0.281 C 
ATOM      8  N   UNL d   1      51.133  33.550  53.264  0.00  0.00    -0.183 NA
ATOM      9  O   UNL d   1      51.690  34.406  52.254  0.00  0.00    -0.265 OA
BRANCH   8  10
ATOM     10  C   UNL d   1      51.893  33.230  53.386  0.00  0.00     0.197 A 
ATOM     11  N   UNL d   1      52.457  33.536  53.873  0.00  0.00    -0.219 NA
ATOM     12  C   UNL d   1      53.133  33.054  53.838  0.00  0.00     0.112 A 
ATOM     13  C   UNL d   1      53.845  33.100  54.205  0.00  0.00     0.112 A 
ATOM     14  C   UNL d   1      52.953  32.463  53.322  0.00  0.00     0.052 A 
ATOM     15  C   UNL d   1      54.414  32.521  54.049  0.00  0.00     0.026 A 
ATOM     16  C   UNL d   1      54.239  31.929  53.534  0.00  0.00     0.003 A 
ATOM     17  C   UNL d   1      53.522  31.884  53.165  0.00  0.00     0.008 A 
ATOM     18  S   UNL d   1      52.190  32.559  53.035  0.00  0.00    -0.047 SA
BRANCH  13  19
ATOM     19  O   UNL d   1      54.008  33.710  54.728  0.00  0.00    -0.327 OA
ATOM     20  C   UNL d   1      54.682  33.702  55.166  0.00  0.00     0.181 C 
ENDBRANCH  13  19
ENDBRANCH   8  10
ENDBRANCH   2   7
BRANCH   1  21
ATOM     21  S   UNL d   1      48.061  35.460  52.212  0.00  0.00     0.272 S 
ATOM     22  O   UNL d   1      48.066  35.210  51.417  0.00  0.00    -0.200 OA
ATOM     23  O   UNL d   1      48.058  35.708  53.005  0.00  0.00    -0.200 OA
BRANCH  21  24
ATOM     24  N   UNL d   1      47.307  35.798  52.102  0.00  0.00    -0.225 N 
ATOM     25  C   UNL d   1      47.026  36.381  52.637  0.00  0.00     0.118 A 
ATOM     26  C   UNL d   1      46.287  36.706  52.522  0.00  0.00     0.142 A 
ATOM     27  O   UNL d   1      45.821  36.462  51.882  0.00  0.00    -0.300 OA
ATOM     28  C   UNL d   1      46.084  35.894  51.353  0.00  0.00     0.142 A 
ATOM     29  C   UNL d   1      46.822  35.569  51.469  0.00  0.00     0.118 A 
ENDBRANCH  21  24
ENDBRANCH   1  21
TORSDOF 5
ENDMDL
MODEL 2
REMARK VINA RESULT:      -8.7      1.139      6.335
REMARK  5 active torsions:
REMARK  status: ('A' for Active; 'I' for Inactive)
REMARK    1  A    between atoms: N_7  and  S_1 
REMARK    2  A    between atoms: C_10  and  S_1 
REMARK    3  A    between atoms: C_2  and  N_4 
REMARK       I    between atoms: N_4  and  C_8 
REMARK    4  A    between atoms: C_8  and  C_13 
REMARK    5  A    between atoms: O_23  and  C_14 
ROOT
ATOM      1  C   UNL d   1      51.751  33.615  53.061  0.00  0.00     0.104 A 
ATOM      2  C   UNL d   1      50.296  34.298  52.757  0.00  0.00     0.058 A 
ATOM      3  C   UNL d   1      51.146  33.492  53.572  0.00  0.00     0.013 A 
ATOM      4  C   UNL d   1      51.653  34.087  52.372  0.00  0.00     0.013 A 
ATOM      5  C   UNL d   1      50.407  33.832  53.430  0.00  0.00     0.005 A 
ATOM      6  C   UNL d   1      50.918  34.427  52.227  0.00  0.00     0.005 A 
ENDROOT
BRANCH   2   7
ATOM      7  C   UNL d   1      49.557  34.637  52.615  0.00  0.00     0.281 C 
ATOM      8  N   UNL d   1      49.287  35.251  53.102  0.00  0.00    -0.183 NA
ATOM      9  O   UNL d   1      49.090  34.366  51.989  0.00  0.00    -0.265 OA
BRANCH   8  10
ATOM     10  C   UNL d   1      48.538  35.584  52.946  0.00  0.00     0.197 A 
ATOM     11  N   UNL d   1      47.979  35.760  53.498  0.00  0.00    -0.219 NA
ATOM     12  C   UNL d   1      47.315  36.082  53.117  0.00  0.00     0.112 A 
ATOM     13  C   UNL d   1      46.611  36.348  53.396  0.00  0.00     0.112 A 
ATOM     14  C   UNL d   1      47.497  36.091  52.333  0.00  0.00     0.052 A 
ATOM     15  C   UNL d   1      46.054  36.642  52.861  0.00  0.00     0.026 A 
ATOM     16  C   UNL d   1      46.231  36.653  52.077  0.00  0.00     0.003 A 
ATOM     17  C   UNL d   1      46.940  36.385  51.797  0.00  0.00     0.008 A 
ATOM     18  S   UNL d   1      48.250  35.786  52.213  0.00  0.00    -0.047 SA
BRANCH  13  19
ATOM     19  O   UNL d   1      46.446  36.330  54.198  0.00  0.00    -0.327 OA
ATOM     20  C   UNL d   1      45.762  36.647  54.481  0.00  0.00     0.181 C 
ENDBRANCH  13  19
ENDBRANCH   8  10
ENDBRANCH   2   7
BRANCH   1  21
ATOM     21  S   UNL d   1      52.484  33.262  53.227  0.00  0.00     0.272 S 
ATOM     22  O   UNL d   1      52.406  32.785  52.547  0.00  0.00    -0.200 OA
ATOM     23  O   UNL d   1      52.561  33.739  53.903  0.00  0.00    -0.200 OA
BRANCH  21  24
ATOM     24  N   UNL d   1      53.221  32.908  53.391  0.00  0.00    -0.225 N 
ATOM     25  C   UNL d   1      53.857  33.375  53.679  0.00  0.00     0.118 A 
ATOM     26  C   UNL d   1      54.573  33.019  53.837  0.00  0.00     0.142 A 
ATOM     27  O   UNL d   1      54.670  32.206  53.715  0.00  0.00    -0.300 OA
ATOM     28  C   UNL d   1      54.057  31.740  53.434  0.00  0.00     0.142 A 
ATOM     29  C   UNL d   1      53.342  32.095  53.276  0.00  0.00     0.118 A 
ENDBRANCH  21  24
ENDBRANCH   1  21
TORSDOF 5
ENDMDL
MODEL 3
REMARK VINA RESULT:      -7.1     10.565     11.010
REMARK  5 active torsions:
REMARK  status: ('A' for Active; 'I' for Inactive)
REMARK    1  A    between atoms: N_7  and  S_1 
REMARK    2  A    between atoms: C_10  and  S_1 
REMARK    3  A    between atoms: C_2  and  N_4 
REMARK       I    between atoms: N_4  and  C_8 
REMARK    4  A    between atoms: C_8  and  C_13 
REMARK    5  A    between atoms: O_23  and  C_14 
ROOT
ATOM      1  C   UNL d   1      44.848  28.549  58.201  0.00  0.00     0.104 A 
ATOM      2  C   UNL d   1      44.985  27.247  57.221  0.00  0.00     0.058 A 
ATOM      3  C   UNL d   1      45.356  27.962  58.398  0.00  0.00     0.013 A 
ATOM      4  C   UNL d   1      44.384  28.510  57.501  0.00  0.00     0.013 A 
ATOM      5  C   UNL d   1      45.435  27.300  57.912  0.00  0.00     0.005 A 
ATOM      6  C   UNL d   1      44.459  27.850  57.014  0.00  0.00     0.005 A 
ENDROOT
BRANCH   2   7
ATOM      7  C   UNL d   1      45.063  26.585  56.735  0.00  0.00     0.281 C 
ATOM      8  N   UNL d   1      44.430  26.055  56.657  0.00  0.00    -0.183 NA
ATOM      9  O   UNL d   1      45.770  26.450  56.326  0.00  0.00    -0.265 OA
BRANCH   8  10
ATOM     10  C   UNL d   1      44.524  25.391  56.162  0.00  0.00     0.197 A 
ATOM     11  N   UNL d   1      44.837  24.683  56.382  0.00  0.00    -0.219 NA
ATOM     12  C   UNL d   1      44.832  24.170  55.728  0.00  0.00     0.112 A 
ATOM     13  C   UNL d   1      45.075  23.410  55.639  0.00  0.00     0.112 A 
ATOM     14  C   UNL d   1      44.509  24.592  55.123  0.00  0.00     0.052 A 
ATOM     15  C   UNL d   1      44.992  23.048  54.900  0.00  0.00     0.026 A 
ATOM     16  C   UNL d   1      44.671  23.466  54.293  0.00  0.00     0.003 A 
ATOM     17  C   UNL d   1      44.426  24.230  54.384  0.00  0.00     0.008 A 
ATOM     18  S   UNL d   1      44.314  25.348  55.377  0.00  0.00    -0.047 SA
BRANCH  13  19
ATOM     19  O   UNL d   1      45.401  22.998  56.268  0.00  0.00    -0.327 OA
ATOM     20  C   UNL d   1      45.737  22.277  56.152  0.00  0.00     0.181 C 
ENDBRANCH  13  19
ENDBRANCH   8  10
ENDBRANCH   2   7
BRANCH   1  21
ATOM     21  S   UNL d   1      44.787  29.204  58.707  0.00  0.00     0.272 S 
ATOM     22  O   UNL d   1      44.320  28.755  59.231  0.00  0.00    -0.200 OA
ATOM     23  O   UNL d   1      45.253  29.651  58.184  0.00  0.00    -0.200 OA
BRANCH  21  24
ATOM     24  N   UNL d   1      44.726  29.862  59.216  0.00  0.00    -0.225 N 
ATOM     25  C   UNL d   1      44.678  30.637  58.897  0.00  0.00     0.118 A 
ATOM     26  C   UNL d   1      44.618  31.274  59.402  0.00  0.00     0.142 A 
ATOM     27  O   UNL d   1      44.604  31.155  60.221  0.00  0.00    -0.300 OA
ATOM     28  C   UNL d   1      44.650  30.404  60.546  0.00  0.00     0.142 A 
ATOM     29  C   UNL d   1      44.710  29.768  60.040  0.00  0.00     0.118 A 
ENDBRANCH  21  24
ENDBRANCH   1  21
TORSDOF 5
ENDMDL
