MODEL 1
REMARK VINA RESULT:       2.4      0.000      0.000
REMARK  8 active torsions:
REMARK  status: ('A' for Active; 'I' for Inactive)
REMARK    1  A    between atoms: O_4  and  C_1 
REMARK    2  A    between atoms: C_15  and  C_2 
REMARK    3  A    between atoms: C_5  and  O_4 
REMARK    4  A    between atoms: C_7  and  C_5 
REMARK    5  A    between atoms: O_21  and  C_8 
REMARK    6  A    between atoms: O_22  and  C_10 
REMARK    7  A    between atoms: O_23  and  C_11 
REMARK    8  A    between atoms: N_16  and  C_15 
ROOT
ATOM      1  C   UNL d   1      58.135   0.532  32.029  0.00  0.00     0.122 A 
ATOM      2  C   UNL d   1      57.396   0.499  32.394  0.00  0.00     0.043 A 
ATOM      3  C   UNL d   1      58.819   0.582  32.488  0.00  0.00     0.105 A 
ATOM      4  C   UNL d   1      58.763   0.599  33.310  0.00  0.00     0.030 A 
ATOM      5  C   UNL d   1      58.025   0.566  33.665  0.00  0.00     0.059 A 
ATOM      6  C   UNL d   1      57.341   0.517  33.216  0.00  0.00     0.015 A 
ATOM      7  N   UNL d   1      59.550   0.615  32.123  0.00  0.00    -0.242 NA
ATOM      8 CL   UNL d   1      57.994   0.585  34.500  0.00  0.00    -0.082 Cl
ATOM      9  C   UNL d   1      59.440   0.649  33.759  0.00  0.00     0.004 A 
ATOM     10  C   UNL d   1      60.233   0.665  32.582  0.00  0.00     0.099 A 
ATOM     11  C   UNL d   1      60.178   0.682  33.404  0.00  0.00     0.021 A 
ENDROOT
BRANCH   1  12
ATOM     12  O   UNL d   1      58.196   0.517  31.285  0.00  0.00    -0.271 OA
BRANCH  12  13
ATOM     13  C   UNL d   1      57.819   0.082  30.512  0.00  0.00     0.300 C 
ATOM     14  O   UNL d   1      56.849   0.292  30.356  0.00  0.00    -0.259 OA
BRANCH  13  15
ATOM     15  C   UNL d   1      58.272  -0.414  30.036  0.00  0.00     0.068 A 
ATOM     16  C   UNL d   1      58.797  -0.094  29.479  0.00  0.00     0.032 A 
ATOM     17  C   UNL d   1      59.258  -0.592  28.995  0.00  0.00     0.118 A 
ATOM     18  C   UNL d   1      59.192  -1.416  29.069  0.00  0.00     0.138 A 
ATOM     19  C   UNL d   1      58.663  -1.739  29.630  0.00  0.00     0.118 A 
ATOM     20  C   UNL d   1      58.203  -1.239  30.114  0.00  0.00     0.032 A 
BRANCH  17  21
ATOM     21  O   UNL d   1      59.742   0.005  28.479  0.00  0.00    -0.326 OA
ATOM     22  C   UNL d   1      59.314   0.529  28.456  0.00  0.00     0.181 C 
ENDBRANCH  17  21
BRANCH  18  23
ATOM     23  O   UNL d   1      59.508  -1.800  28.737  0.00  0.00    -0.324 OA
ATOM     24  C   UNL d   1      60.212  -1.756  28.480  0.00  0.00     0.182 C 
ENDBRANCH  18  23
BRANCH  19  25
ATOM     25  O   UNL d   1      58.530  -2.553  29.775  0.00  0.00    -0.326 OA
ATOM     26  C   UNL d   1      57.819  -2.666  29.331  0.00  0.00     0.181 C 
ENDBRANCH  19  25
ENDBRANCH  13  15
ENDBRANCH  12  13
ENDBRANCH   1  12
BRANCH   2  27
ATOM     27  C   UNL d   1      56.550   0.443  32.064  0.00  0.00     0.082 C 
BRANCH  27  28
ATOM     28  N   UNL d   1      55.981   0.022  32.480  0.00  0.00    -0.299 N 
ATOM     29  C   UNL d   1      55.923  -0.786  32.381  0.00  0.00     0.107 A 
ATOM     30  C   UNL d   1      55.355  -1.223  32.794  0.00  0.00     0.142 A 
ATOM     31  O   UNL d   1      54.850  -0.834  33.304  0.00  0.00    -0.300 OA
ATOM     32  C   UNL d   1      54.907  -0.013  33.406  0.00  0.00     0.142 A 
ATOM     33  C   UNL d   1      55.475   0.404  32.989  0.00  0.00     0.107 A 
ENDBRANCH  27  28
ENDBRANCH   2  27
TORSDOF 8
ENDMDL
MODEL 2
REMARK VINA RESULT:       2.9      0.626      1.408
REMARK  8 active torsions:
REMARK  status: ('A' for Active; 'I' for Inactive)
REMARK    1  A    between atoms: O_4  and  C_1 
REMARK    2  A    between atoms: C_15  and  C_2 
REMARK    3  A    between atoms: C_5  and  O_4 
REMARK    4  A    between atoms: C_7  and  C_5 
REMARK    5  A    between atoms: O_21  and  C_8 
REMARK    6  A    between atoms: O_22  and  C_10 
REMARK    7  A    between atoms: O_23  and  C_11 
REMARK    8  A    between atoms: N_16  and  C_15 
ROOT
ATOM      1  C   UNL d   1      57.795  -0.115  32.179  0.00  0.00     0.122 A 
ATOM      2  C   UNL d   1      57.062  -0.118  32.558  0.00  0.00     0.043 A 
ATOM      3  C   UNL d   1      58.465   0.151  32.581  0.00  0.00     0.105 A 
ATOM      4  C   UNL d   1      58.402   0.411  33.360  0.00  0.00     0.030 A 
ATOM      5  C   UNL d   1      57.670   0.404  33.730  0.00  0.00     0.059 A 
ATOM      6  C   UNL d   1      56.999   0.142  33.337  0.00  0.00     0.015 A 
ATOM      7  N   UNL d   1      59.189   0.153  32.202  0.00  0.00    -0.242 NA
ATOM      8 CL   UNL d   1      57.630   0.673  34.520  0.00  0.00    -0.082 Cl
ATOM      9  C   UNL d   1      59.064   0.672  33.753  0.00  0.00     0.004 A 
ATOM     10  C   UNL d   1      59.859   0.418  32.604  0.00  0.00     0.099 A 
ATOM     11  C   UNL d   1      59.796   0.679  33.384  0.00  0.00     0.021 A 
ENDROOT
BRANCH   1  12
ATOM     12  O   UNL d   1      57.863  -0.349  31.473  0.00  0.00    -0.271 OA
BRANCH  12  13
ATOM     13  C   UNL d   1      57.856  -0.013  30.569  0.00  0.00     0.300 C 
ATOM     14  O   UNL d   1      57.149   0.679  30.394  0.00  0.00    -0.259 OA
BRANCH  13  15
ATOM     15  C   UNL d   1      58.392  -0.285  30.007  0.00  0.00     0.068 A 
ATOM     16  C   UNL d   1      58.423  -1.092  29.814  0.00  0.00     0.032 A 
ATOM     17  C   UNL d   1      58.964  -1.371  29.245  0.00  0.00     0.118 A 
ATOM     18  C   UNL d   1      59.478  -0.840  28.867  0.00  0.00     0.138 A 
ATOM     19  C   UNL d   1      59.447  -0.028  29.061  0.00  0.00     0.118 A 
ATOM     20  C   UNL d   1      58.905   0.251  29.630  0.00  0.00     0.032 A 
BRANCH  17  21
ATOM     21  O   UNL d   1      58.793  -2.281  29.222  0.00  0.00    -0.326 OA
ATOM     22  C   UNL d   1      58.296  -2.305  28.765  0.00  0.00     0.181 C 
ENDBRANCH  17  21
BRANCH  18  23
ATOM     23  O   UNL d   1      59.877  -1.009  28.455  0.00  0.00    -0.324 OA
ATOM     24  C   UNL d   1      60.383  -1.563  28.467  0.00  0.00     0.182 C 
ENDBRANCH  18  23
BRANCH  19  25
ATOM     25  O   UNL d   1      59.923   0.579  28.734  0.00  0.00    -0.326 OA
ATOM     26  C   UNL d   1      60.578   0.556  29.269  0.00  0.00     0.181 C 
ENDBRANCH  19  25
ENDBRANCH  13  15
ENDBRANCH  12  13
ENDBRANCH   1  12
BRANCH   2  27
ATOM     27  C   UNL d   1      56.231  -0.369  32.284  0.00  0.00     0.082 C 
BRANCH  27  28
ATOM     28  N   UNL d   1      55.640  -0.481  32.842  0.00  0.00    -0.299 N 
ATOM     29  C   UNL d   1      55.582  -1.196  33.233  0.00  0.00     0.107 A 
ATOM     30  C   UNL d   1      54.991  -1.323  33.798  0.00  0.00     0.142 A 
ATOM     31  O   UNL d   1      54.463  -0.723  33.960  0.00  0.00    -0.300 OA
ATOM     32  C   UNL d   1      54.519   0.004  33.565  0.00  0.00     0.142 A 
ATOM     33  C   UNL d   1      55.111   0.114  33.009  0.00  0.00     0.107 A 
ENDBRANCH  27  28
ENDBRANCH   2  27
TORSDOF 8
ENDMDL
MODEL 3
REMARK VINA RESULT:       3.0      1.845      4.906
REMARK  8 active torsions:
REMARK  status: ('A' for Active; 'I' for Inactive)
REMARK    1  A    between atoms: O_4  and  C_1 
REMARK    2  A    between atoms: C_15  and  C_2 
REMARK    3  A    between atoms: C_5  and  O_4 
REMARK    4  A    between atoms: C_7  and  C_5 
REMARK    5  A    between atoms: O_21  and  C_8 
REMARK    6  A    between atoms: O_22  and  C_10 
REMARK    7  A    between atoms: O_23  and  C_11 
REMARK    8  A    between atoms: N_16  and  C_15 
ROOT
ATOM      1  C   UNL d   1      58.335  -1.120  30.053  0.00  0.00     0.122 A 
ATOM      2  C   UNL d   1      58.925  -0.545  30.011  0.00  0.00     0.043 A 
ATOM      3  C   UNL d   1      58.387  -1.797  29.585  0.00  0.00     0.105 A 
ATOM      4  C   UNL d   1      59.027  -1.899  29.076  0.00  0.00     0.030 A 
ATOM      5  C   UNL d   1      59.609  -1.322  29.041  0.00  0.00     0.059 A 
ATOM      6  C   UNL d   1      59.565  -0.647  29.503  0.00  0.00     0.015 A 
ATOM      7  N   UNL d   1      57.800  -2.365  29.629  0.00  0.00    -0.242 NA
ATOM      8 CL   UNL d   1      60.249  -1.448  28.518  0.00  0.00    -0.082 Cl
ATOM      9  C   UNL d   1      59.075  -2.568  28.617  0.00  0.00     0.004 A 
ATOM     10  C   UNL d   1      57.852  -3.042  29.161  0.00  0.00     0.099 A 
ATOM     11  C   UNL d   1      58.493  -3.144  28.652  0.00  0.00     0.021 A 
ENDROOT
BRANCH   1  12
ATOM     12  O   UNL d   1      57.751  -1.037  30.511  0.00  0.00    -0.271 OA
BRANCH  12  13
ATOM     13  C   UNL d   1      57.199  -0.351  30.904  0.00  0.00     0.300 C 
ATOM     14  O   UNL d   1      57.123   0.482  30.349  0.00  0.00    -0.259 OA
BRANCH  13  15
ATOM     15  C   UNL d   1      56.832  -0.461  31.633  0.00  0.00     0.068 A 
ATOM     16  C   UNL d   1      56.433  -1.171  31.797  0.00  0.00     0.032 A 
ATOM     17  C   UNL d   1      56.060  -1.286  32.533  0.00  0.00     0.118 A 
ATOM     18  C   UNL d   1      56.087  -0.689  33.108  0.00  0.00     0.138 A 
ATOM     19  C   UNL d   1      56.488   0.025  32.943  0.00  0.00     0.118 A 
ATOM     20  C   UNL d   1      56.861   0.140  32.206  0.00  0.00     0.032 A 
BRANCH  17  21
ATOM     21  O   UNL d   1      55.702  -2.137  32.455  0.00  0.00    -0.326 OA
ATOM     22  C   UNL d   1      56.067  -2.471  32.916  0.00  0.00     0.181 C 
ENDBRANCH  17  21
BRANCH  18  23
ATOM     23  O   UNL d   1      55.829  -0.741  33.645  0.00  0.00    -0.324 OA
ATOM     24  C   UNL d   1      55.217  -0.410  33.926  0.00  0.00     0.182 C 
ENDBRANCH  18  23
BRANCH  19  25
ATOM     25  O   UNL d   1      56.567   0.681  33.458  0.00  0.00    -0.326 OA
ATOM     26  C   UNL d   1      55.811   0.661  33.838  0.00  0.00     0.181 C 
ENDBRANCH  19  25
ENDBRANCH  13  15
ENDBRANCH  12  13
ENDBRANCH   1  12
BRANCH   2  27
ATOM     27  C   UNL d   1      59.039   0.250  30.440  0.00  0.00     0.082 C 
BRANCH  27  28
ATOM     28  N   UNL d   1      59.734   0.390  30.853  0.00  0.00    -0.299 N 
ATOM     29  C   UNL d   1      60.425   0.539  30.445  0.00  0.00     0.107 A 
ATOM     30  C   UNL d   1      61.133   0.681  30.849  0.00  0.00     0.142 A 
ATOM     31  O   UNL d   1      61.132   0.671  31.664  0.00  0.00    -0.300 OA
ATOM     32  C   UNL d   1      60.432   0.520  32.082  0.00  0.00     0.142 A 
ATOM     33  C   UNL d   1      59.740   0.381  31.667  0.00  0.00     0.107 A 
ENDBRANCH  27  28
ENDBRANCH   2  27
TORSDOF 8
ENDMDL
