MODEL 1
REMARK VINA RESULT:       0.9      0.000      0.000
REMARK  3 active torsions:
REMARK  status: ('A' for Active; 'I' for Inactive)
REMARK    1  A    between atoms: N_9  and  C_3 
REMARK    2  A    between atoms: C_14  and  C_5 
REMARK       I    between atoms: C_10  and  N_11 
REMARK    3  A    between atoms: C_13  and  C_10 
ROOT
ATOM      1  N   UNL d   1      56.805   0.239  32.616  0.00  0.00    -0.196 N 
ATOM      2  C   UNL d   1      56.616   0.389  33.404  0.00  0.00     0.167 A 
ATOM      3  C   UNL d   1      57.591   0.235  32.374  0.00  0.00     0.152 A 
ATOM      4  N   UNL d   1      56.106   0.115  32.207  0.00  0.00    -0.163 NA
ATOM      5  C   UNL d   1      55.801   0.357  33.476  0.00  0.00     0.055 A 
ATOM      6  C   UNL d   1      55.484   0.188  32.740  0.00  0.00     0.104 A 
ATOM      7  N   UNL d   1      57.213   0.536  33.951  0.00  0.00    -0.227 NA
ATOM      8  C   UNL d   1      58.197   0.383  32.923  0.00  0.00     0.057 A 
ATOM      9  C   UNL d   1      58.008   0.533  33.711  0.00  0.00     0.086 A 
ATOM     10  C   UNL d   1      54.682   0.106  32.571  0.00  0.00     0.023 C 
ATOM     11  C   UNL d   1      58.607   0.682  34.267  0.00  0.00     0.021 C 
ENDROOT
BRANCH   3  12
ATOM     12  N   UNL d   1      57.782   0.084  31.582  0.00  0.00    -0.286 N 
ATOM     13  C   UNL d   1      58.101  -0.636  31.343  0.00  0.00     0.101 A 
ATOM     14  C   UNL d   1      58.282  -0.764  30.549  0.00  0.00     0.102 A 
ATOM     15  N   UNL d   1      58.149  -0.183  29.996  0.00  0.00    -0.267 N 
ATOM     16  C   UNL d   1      58.335  -0.319  29.195  0.00  0.00     0.288 C 
ATOM     17  C   UNL d   1      57.827   0.547  30.228  0.00  0.00     0.102 A 
ATOM     18  O   UNL d   1      58.204   0.259  28.631  0.00  0.00    -0.264 OA
ATOM     19  C   UNL d   1      57.645   0.675  31.023  0.00  0.00     0.101 A 
BRANCH  16  20
ATOM     20  C   UNL d   1      58.654  -1.047  28.976  0.00  0.00     0.156 A 
ATOM     21  O   UNL d   1      58.368  -1.810  29.019  0.00  0.00    -0.300 OA
ATOM     22  C   UNL d   1      58.943  -2.311  28.711  0.00  0.00     0.123 A 
ATOM     23  C   UNL d   1      59.576  -1.871  28.480  0.00  0.00     0.029 A 
ATOM     24  C   UNL d   1      59.407  -1.080  28.640  0.00  0.00     0.032 A 
ENDBRANCH  16  20
ENDBRANCH   3  12
BRANCH   5  25
ATOM     25  C   UNL d   1      55.300   0.461  34.129  0.00  0.00     0.004 A 
ATOM     26  C   UNL d   1      55.619   0.514  34.888  0.00  0.00     0.000 A 
ATOM     27  C   UNL d   1      55.117   0.618  35.540  0.00  0.00     0.000 A 
ATOM     28  C   UNL d   1      54.301   0.670  35.431  0.00  0.00     0.000 A 
ATOM     29  C   UNL d   1      53.983   0.617  34.667  0.00  0.00     0.000 A 
ATOM     30  C   UNL d   1      54.484   0.513  34.019  0.00  0.00     0.000 A 
ENDBRANCH   5  25
TORSDOF 3
ENDMDL
MODEL 2
REMARK VINA RESULT:       2.9      1.846      5.460
REMARK  3 active torsions:
REMARK  status: ('A' for Active; 'I' for Inactive)
REMARK    1  A    between atoms: N_9  and  C_3 
REMARK    2  A    between atoms: C_14  and  C_5 
REMARK       I    between atoms: C_10  and  N_11 
REMARK    3  A    between atoms: C_13  and  C_10 
ROOT
ATOM      1  N   UNL d   1      58.134  -0.626  31.069  0.00  0.00    -0.196 N 
ATOM      2  C   UNL d   1      58.832  -0.776  30.659  0.00  0.00     0.167 A 
ATOM      3  C   UNL d   1      58.113  -0.043  31.651  0.00  0.00     0.152 A 
ATOM      4  N   UNL d   1      57.558  -1.135  30.785  0.00  0.00    -0.163 NA
ATOM      5  C   UNL d   1      58.684  -1.376  30.123  0.00  0.00     0.055 A 
ATOM      6  C   UNL d   1      57.899  -1.600  30.199  0.00  0.00     0.104 A 
ATOM      7  N   UNL d   1      59.511  -0.343  30.829  0.00  0.00    -0.227 NA
ATOM      8  C   UNL d   1      58.797   0.395  31.825  0.00  0.00     0.057 A 
ATOM      9  C   UNL d   1      59.495   0.246  31.414  0.00  0.00     0.086 A 
ATOM     10  C   UNL d   1      57.525  -2.189  29.760  0.00  0.00     0.023 C 
ATOM     11  C   UNL d   1      60.183   0.680  31.582  0.00  0.00     0.021 C 
ENDROOT
BRANCH   3  12
ATOM     12  N   UNL d   1      57.410   0.107  32.064  0.00  0.00    -0.286 N 
ATOM     13  C   UNL d   1      57.389   0.139  32.886  0.00  0.00     0.101 A 
ATOM     14  C   UNL d   1      56.678   0.290  33.275  0.00  0.00     0.102 A 
ATOM     15  N   UNL d   1      55.994   0.409  32.853  0.00  0.00    -0.267 N 
ATOM     16  C   UNL d   1      55.279   0.561  33.253  0.00  0.00     0.288 C 
ATOM     17  C   UNL d   1      56.005   0.378  32.023  0.00  0.00     0.102 A 
ATOM     18  O   UNL d   1      54.584   0.682  32.838  0.00  0.00    -0.264 OA
ATOM     19  C   UNL d   1      56.717   0.227  31.633  0.00  0.00     0.101 A 
BRANCH  16  20
ATOM     20  C   UNL d   1      55.279   0.590  34.078  0.00  0.00     0.156 A 
ATOM     21  O   UNL d   1      55.878   0.571  34.630  0.00  0.00    -0.300 OA
ATOM     22  C   UNL d   1      55.535   0.618  35.375  0.00  0.00     0.123 A 
ATOM     23  C   UNL d   1      54.735   0.665  35.291  0.00  0.00     0.029 A 
ATOM     24  C   UNL d   1      54.564   0.648  34.485  0.00  0.00     0.032 A 
ENDBRANCH  16  20
ENDBRANCH   3  12
BRANCH   5  25
ATOM     25  C   UNL d   1      59.171  -1.754  29.568  0.00  0.00     0.004 A 
ATOM     26  C   UNL d   1      59.595  -1.305  29.021  0.00  0.00     0.000 A 
ATOM     27  C   UNL d   1      60.082  -1.683  28.466  0.00  0.00     0.000 A 
ATOM     28  C   UNL d   1      60.142  -2.507  28.460  0.00  0.00     0.000 A 
ATOM     29  C   UNL d   1      59.714  -2.955  29.011  0.00  0.00     0.000 A 
ATOM     30  C   UNL d   1      59.231  -2.577  29.563  0.00  0.00     0.000 A 
ENDBRANCH   5  25
TORSDOF 3
ENDMDL
