MODEL 1
REMARK VINA RESULT:      11.7      0.000      0.000
REMARK  4 active torsions:
REMARK  status: ('A' for Active; 'I' for Inactive)
REMARK    1  A    between atoms: C_5  and  C_1 
REMARK       I    between atoms: N_7  and  C_5 
REMARK    2  A    between atoms: C_9  and  N_7 
REMARK    3  A    between atoms: C_8  and  C_9 
REMARK    4  A    between atoms: O_13  and  C_11 
ROOT
ATOM      1  C   UNL d   1      45.810 -16.200  44.325  0.00  0.00     0.299 C 
ATOM      2  N   UNL d   1      46.154 -16.769  43.826  0.00  0.00    -0.205 NA
ATOM      3  O   UNL d   1      45.336 -16.436  44.955  0.00  0.00    -0.263 OA
ENDROOT
BRANCH   1   4
ATOM      4  C   UNL d   1      45.946 -15.393  44.186  0.00  0.00     0.162 A 
ATOM      5  N   UNL d   1      46.603 -15.076  43.805  0.00  0.00    -0.143 NA
ATOM      6  N   UNL d   1      46.519 -14.244  43.783  0.00  0.00    -0.148 NA
ATOM      7  C   UNL d   1      45.794 -14.062  44.161  0.00  0.00     0.105 A 
ATOM      8  C   UNL d   1      45.443 -14.772  44.408  0.00  0.00     0.044 A 
ATOM      9  C   UNL d   1      45.424 -13.346  44.303  0.00  0.00     0.021 A 
ATOM     10  C   UNL d   1      44.717 -14.750  44.799  0.00  0.00     0.003 A 
ATOM     11  C   UNL d   1      44.349 -14.037  44.941  0.00  0.00     0.000 A 
ATOM     12  C   UNL d   1      44.698 -13.337  44.695  0.00  0.00     0.002 A 
ENDBRANCH   1   4
BRANCH   2  13
ATOM     13  C   UNL d   1      46.017 -17.571  43.966  0.00  0.00     0.104 C 
BRANCH  13  14
ATOM     14  C   UNL d   1      46.226 -18.141  43.410  0.00  0.00     0.042 A 
ATOM     15  C   UNL d   1      46.440 -18.905  43.654  0.00  0.00     0.096 A 
ATOM     16  C   UNL d   1      46.646 -19.461  43.095  0.00  0.00     0.024 A 
ATOM     17  C   UNL d   1      46.643 -19.271  42.292  0.00  0.00     0.002 A 
ATOM     18  C   UNL d   1      46.434 -18.521  42.040  0.00  0.00     0.000 A 
ATOM     19  C   UNL d   1      46.222 -17.946  42.601  0.00  0.00     0.004 A 
BRANCH  15  20
ATOM     20  O   UNL d   1      46.447 -19.107  44.457  0.00  0.00    -0.328 OA
ATOM     21  C   UNL d   1      46.094 -19.796  44.727  0.00  0.00     0.181 C 
ENDBRANCH  15  20
ENDBRANCH  13  14
ENDBRANCH   2  13
TORSDOF 4
ENDMDL
MODEL 2
REMARK VINA RESULT:      11.7      0.941      4.560
REMARK  4 active torsions:
REMARK  status: ('A' for Active; 'I' for Inactive)
REMARK    1  A    between atoms: C_5  and  C_1 
REMARK       I    between atoms: N_7  and  C_5 
REMARK    2  A    between atoms: C_9  and  N_7 
REMARK    3  A    between atoms: C_8  and  C_9 
REMARK    4  A    between atoms: O_13  and  C_11 
ROOT
ATOM      1  C   UNL d   1      45.963 -17.277  44.209  0.00  0.00     0.299 C 
ATOM      2  N   UNL d   1      45.910 -16.456  44.089  0.00  0.00    -0.205 NA
ATOM      3  O   UNL d   1      45.820 -17.594  44.955  0.00  0.00    -0.263 OA
ENDROOT
BRANCH   1   4
ATOM      4  C   UNL d   1      46.161 -17.775  43.576  0.00  0.00     0.162 A 
ATOM      5  N   UNL d   1      46.258 -17.541  42.793  0.00  0.00    -0.143 NA
ATOM      6  N   UNL d   1      46.455 -18.215  42.339  0.00  0.00    -0.148 NA
ATOM      7  C   UNL d   1      46.475 -18.867  42.865  0.00  0.00     0.105 A 
ATOM      8  C   UNL d   1      46.293 -18.592  43.627  0.00  0.00     0.044 A 
ATOM      9  C   UNL d   1      46.634 -19.660  42.737  0.00  0.00     0.021 A 
ATOM     10  C   UNL d   1      46.275 -19.127  44.256  0.00  0.00     0.003 A 
ATOM     11  C   UNL d   1      46.433 -19.916  44.129  0.00  0.00     0.000 A 
ATOM     12  C   UNL d   1      46.613 -20.184  43.374  0.00  0.00     0.002 A 
ENDBRANCH   1   4
BRANCH   2  13
ATOM     13  C   UNL d   1      45.713 -15.961  44.720  0.00  0.00     0.104 C 
BRANCH  13  14
ATOM     14  C   UNL d   1      45.760 -15.143  44.649  0.00  0.00     0.042 A 
ATOM     15  C   UNL d   1      45.084 -14.674  44.755  0.00  0.00     0.096 A 
ATOM     16  C   UNL d   1      45.142 -13.864  44.682  0.00  0.00     0.024 A 
ATOM     17  C   UNL d   1      45.865 -13.509  44.504  0.00  0.00     0.002 A 
ATOM     18  C   UNL d   1      46.538 -13.961  44.397  0.00  0.00     0.000 A 
ATOM     19  C   UNL d   1      46.492 -14.788  44.469  0.00  0.00     0.004 A 
BRANCH  15  20
ATOM     20  O   UNL d   1      44.353 -15.020  44.934  0.00  0.00    -0.328 OA
ATOM     21  C   UNL d   1      43.651 -14.607  44.840  0.00  0.00     0.181 C 
ENDBRANCH  15  20
ENDBRANCH  13  14
ENDBRANCH   2  13
TORSDOF 4
ENDMDL
