MODEL 1
REMARK VINA RESULT:      -1.2      0.000      0.000
REMARK  6 active torsions:
REMARK  status: ('A' for Active; 'I' for Inactive)
REMARK    1  A    between atoms: N_6  and  C_1 
REMARK    2  A    between atoms: C_18  and  N_4 
REMARK       I    between atoms: C_8  and  N_6 
REMARK    3  A    between atoms: C_7  and  C_8 
REMARK    4  A    between atoms: C_11  and  C_7 
REMARK    5  A    between atoms: C_19  and  C_9 
REMARK    6  A    between atoms: C_12  and  C_11 
ROOT
ATOM      1  C   UNL d   1      58.162  -0.496  29.951  0.00  0.00     0.128 C 
ATOM      2  C   UNL d   1      58.485   0.004  29.405  0.00  0.00     0.106 C 
ATOM      3  N   UNL d   1      58.839   0.486  28.797  0.00  0.00    -0.191 NA
ENDROOT
BRANCH   1   4
ATOM      4  C   UNL d   1      57.818  -0.174  30.647  0.00  0.00     0.289 C 
ATOM      5  N   UNL d   1      57.660  -0.688  31.270  0.00  0.00    -0.201 NA
ATOM      6  O   UNL d   1      57.651   0.599  30.699  0.00  0.00    -0.264 OA
BRANCH   5   7
ATOM      7  C   UNL d   1      57.313  -0.369  31.971  0.00  0.00     0.160 A 
ATOM      8  C   UNL d   1      56.527  -0.383  32.221  0.00  0.00     0.298 A 
ATOM      9  N   UNL d   1      56.505   0.014  32.952  0.00  0.00    -0.209 N 
ATOM     10  O   UNL d   1      55.899  -0.703  31.855  0.00  0.00    -0.263 OA
ATOM     11  N   UNL d   1      57.277   0.245  33.105  0.00  0.00    -0.238 N 
ATOM     12  C   UNL d   1      57.800   0.027  32.524  0.00  0.00     0.104 A 
ATOM     13  C   UNL d   1      57.506   0.679  33.816  0.00  0.00     0.120 C 
ATOM     14  C   UNL d   1      58.612   0.174  32.511  0.00  0.00     0.022 C 
BRANCH   9  15
ATOM     15  C   UNL d   1      55.873   0.171  33.457  0.00  0.00     0.085 A 
ATOM     16  C   UNL d   1      55.961   0.010  34.262  0.00  0.00     0.019 A 
ATOM     17  C   UNL d   1      55.322   0.166  34.782  0.00  0.00     0.002 A 
ATOM     18  C   UNL d   1      54.620   0.475  34.491  0.00  0.00     0.000 A 
ATOM     19  C   UNL d   1      54.537   0.636  33.673  0.00  0.00     0.002 A 
ATOM     20  C   UNL d   1      55.170   0.479  33.166  0.00  0.00     0.019 A 
ENDBRANCH   9  15
ENDBRANCH   5   7
ENDBRANCH   1   4
BRANCH   1  21
ATOM     21  C   UNL d   1      58.151  -1.315  29.867  0.00  0.00     0.040 C 
BRANCH  21  22
ATOM     22  C   UNL d   1      58.844  -1.731  29.549  0.00  0.00     0.101 A 
ATOM     23  O   UNL d   1      58.965  -2.581  29.506  0.00  0.00    -0.307 OA
ATOM     24  C   UNL d   1      59.704  -2.702  29.162  0.00  0.00     0.100 A 
ATOM     25  C   UNL d   1      60.023  -1.968  29.001  0.00  0.00     0.027 A 
ATOM     26  C   UNL d   1      59.473  -1.391  29.249  0.00  0.00     0.027 A 
BRANCH  24  27
ATOM     27  C   UNL d   1      60.044  -3.458  29.015  0.00  0.00     0.023 A 
ATOM     28  C   UNL d   1      60.793  -3.619  29.291  0.00  0.00     0.003 A 
ATOM     29  C   UNL d   1      61.132  -4.376  29.144  0.00  0.00     0.011 A 
ATOM     30  C   UNL d   1      60.705  -4.932  28.730  0.00  0.00     0.058 A 
ATOM     31  C   UNL d   1      59.956  -4.770  28.455  0.00  0.00     0.011 A 
ATOM     32 CL   UNL d   1      61.044  -5.689  28.583  0.00  0.00    -0.082 Cl
ATOM     33  C   UNL d   1      59.617  -4.014  28.602  0.00  0.00     0.003 A 
ENDBRANCH  24  27
ENDBRANCH  21  22
ENDBRANCH   1  21
TORSDOF 6
ENDMDL
