MODEL 1
REMARK VINA RESULT:      -2.7      0.000      0.000
REMARK  5 active torsions:
REMARK  status: ('A' for Active; 'I' for Inactive)
REMARK    1  A    between atoms: N_6  and  S_1 
REMARK    2  A    between atoms: C_11  and  S_1 
REMARK    3  A    between atoms: C_2  and  N_5 
REMARK    4  A    between atoms: C_9  and  C_4 
REMARK       I    between atoms: N_5  and  C_7 
REMARK    5  A    between atoms: C_7  and  C_15 
ROOT
ATOM      1  C   UNL d   1      32.653  18.379 -23.298  0.00  0.00     0.104 A 
ATOM      2  C   UNL d   1      32.866  19.893 -22.515  0.00  0.00     0.058 A 
ATOM      3  C   UNL d   1      32.912  18.440 -22.484  0.00  0.00     0.013 A 
ATOM      4  C   UNL d   1      32.515  19.097 -23.673  0.00  0.00     0.013 A 
ATOM      5  C   UNL d   1      32.617  19.836 -23.298  0.00  0.00     0.005 A 
ATOM      6  C   UNL d   1      33.020  19.147 -22.092  0.00  0.00     0.005 A 
ENDROOT
BRANCH   2   7
ATOM      7  C   UNL d   1      32.969  20.594 -22.140  0.00  0.00     0.281 C 
ATOM      8  N   UNL d   1      32.826  20.672 -21.325  0.00  0.00    -0.183 NA
ATOM      9  O   UNL d   1      33.232  21.274 -22.591  0.00  0.00    -0.265 OA
BRANCH   8  10
ATOM     10  C   UNL d   1      32.936  21.431 -20.912  0.00  0.00     0.197 A 
ATOM     11  N   UNL d   1      32.755  21.574 -20.086  0.00  0.00    -0.220 NA
ATOM     12  C   UNL d   1      32.943  22.378 -19.911  0.00  0.00     0.096 A 
ATOM     13  C   UNL d   1      33.241  22.722 -20.647  0.00  0.00     0.058 A 
ATOM     14  S   UNL d   1      33.228  22.132 -21.238  0.00  0.00    -0.046 SA
BRANCH  12  15
ATOM     15  C   UNL d   1      32.872  22.786 -19.204  0.00  0.00     0.048 A 
ATOM     16  S   UNL d   1      33.210  22.619 -18.482  0.00  0.00    -0.085 SA
ATOM     17  C   UNL d   1      32.984  23.181 -17.930  0.00  0.00     0.035 A 
ATOM     18  C   UNL d   1      32.494  23.702 -18.333  0.00  0.00     0.007 A 
ATOM     19  C   UNL d   1      32.424  23.462 -19.116  0.00  0.00     0.009 A 
ENDBRANCH  12  15
ENDBRANCH   8  10
ENDBRANCH   2   7
BRANCH   1  20
ATOM     20  S   UNL d   1      32.554  17.634 -23.662  0.00  0.00     0.271 S 
ATOM     21  O   UNL d   1      33.186  17.326 -23.200  0.00  0.00    -0.200 OA
ATOM     22  O   UNL d   1      31.912  17.930 -24.138  0.00  0.00    -0.200 OA
BRANCH  20  23
ATOM     23  N   UNL d   1      32.445  16.871 -24.043  0.00  0.00    -0.229 N 
ATOM     24  C   UNL d   1      32.871  16.440 -24.608  0.00  0.00     0.092 A 
ATOM     25  C   UNL d   1      32.485  15.736 -24.755  0.00  0.00     0.021 A 
ATOM     26  C   UNL d   1      31.801  15.692 -24.290  0.00  0.00     0.021 A 
ATOM     27  C   UNL d   1      31.786  16.403 -23.851  0.00  0.00     0.092 A 
ENDBRANCH  20  23
ENDBRANCH   1  20
TORSDOF 5
ENDMDL
MODEL 2
REMARK VINA RESULT:      -2.7      1.354      6.435
REMARK  5 active torsions:
REMARK  status: ('A' for Active; 'I' for Inactive)
REMARK    1  A    between atoms: N_6  and  S_1 
REMARK    2  A    between atoms: C_11  and  S_1 
REMARK    3  A    between atoms: C_2  and  N_5 
REMARK    4  A    between atoms: C_9  and  C_4 
REMARK       I    between atoms: N_5  and  C_7 
REMARK    5  A    between atoms: C_7  and  C_15 
ROOT
ATOM      1  C   UNL d   1      32.848  21.852 -20.104  0.00  0.00     0.104 A 
ATOM      2  C   UNL d   1      32.935  20.913 -21.540  0.00  0.00     0.058 A 
ATOM      3  C   UNL d   1      32.531  22.128 -20.850  0.00  0.00     0.013 A 
ATOM      4  C   UNL d   1      33.196  21.108 -20.128  0.00  0.00     0.013 A 
ATOM      5  C   UNL d   1      33.241  20.647 -20.822  0.00  0.00     0.005 A 
ATOM      6  C   UNL d   1      32.561  21.700 -21.543  0.00  0.00     0.005 A 
ENDROOT
BRANCH   2   7
ATOM      7  C   UNL d   1      32.970  20.483 -22.216  0.00  0.00     0.281 C 
ATOM      8  N   UNL d   1      32.829  19.665 -22.214  0.00  0.00    -0.183 NA
ATOM      9  O   UNL d   1      33.158  20.880 -22.952  0.00  0.00    -0.265 OA
BRANCH   8  10
ATOM     10  C   UNL d   1      32.865  19.193 -22.944  0.00  0.00     0.197 A 
ATOM     11  N   UNL d   1      32.524  18.413 -23.045  0.00  0.00    -0.220 NA
ATOM     12  C   UNL d   1      32.685  18.155 -23.833  0.00  0.00     0.096 A 
ATOM     13  C   UNL d   1      33.131  18.794 -24.210  0.00  0.00     0.058 A 
ATOM     14  S   UNL d   1      33.228  19.410 -23.654  0.00  0.00    -0.046 SA
BRANCH  12  15
ATOM     15  C   UNL d   1      32.479  17.453 -24.203  0.00  0.00     0.048 A 
ATOM     16  S   UNL d   1      32.925  16.778 -24.300  0.00  0.00    -0.085 SA
ATOM     17  C   UNL d   1      32.491  16.213 -24.705  0.00  0.00     0.035 A 
ATOM     18  C   UNL d   1      31.762  16.559 -24.856  0.00  0.00     0.007 A 
ATOM     19  C   UNL d   1      31.753  17.321 -24.548  0.00  0.00     0.009 A 
ENDBRANCH  12  15
ENDBRANCH   8  10
ENDBRANCH   2   7
BRANCH   1  20
ATOM     20  S   UNL d   1      32.797  22.323 -19.416  0.00  0.00     0.271 S 
ATOM     21  O   UNL d   1      33.097  21.685 -18.958  0.00  0.00    -0.200 OA
ATOM     22  O   UNL d   1      32.492  22.980 -19.865  0.00  0.00    -0.200 OA
BRANCH  20  23
ATOM     23  N   UNL d   1      32.740  22.816 -18.714  0.00  0.00    -0.229 N 
ATOM     24  C   UNL d   1      33.240  22.966 -18.070  0.00  0.00     0.092 A 
ATOM     25  C   UNL d   1      32.877  23.495 -17.566  0.00  0.00     0.021 A 
ATOM     26  C   UNL d   1      32.134  23.702 -17.869  0.00  0.00     0.021 A 
ATOM     27  C   UNL d   1      32.060  23.273 -18.583  0.00  0.00     0.092 A 
ENDBRANCH  20  23
ENDBRANCH   1  20
TORSDOF 5
ENDMDL
