MODEL 1
REMARK VINA RESULT:      24.4      0.000      0.000
REMARK  3 active torsions:
REMARK  status: ('A' for Active; 'I' for Inactive)
REMARK    1  A    between atoms: S_9  and  C_6 
REMARK    2  A    between atoms: C_13  and  S_9 
REMARK    3  A    between atoms: C_11  and  C_13 
ROOT
ATOM      1  C   UNL d   1      14.420  12.118  -1.293  0.00  0.00     0.114 A 
ATOM      2  C   UNL d   1      14.488  12.920  -1.413  0.00  0.00     0.048 A 
ATOM      3  S   UNL d   1      14.057  11.779  -1.942  0.00  0.00    -0.068 SA
ATOM      4  C   UNL d   1      14.161  13.090  -2.154  0.00  0.00     0.010 A 
ATOM      5  C   UNL d   1      13.894  12.412  -2.492  0.00  0.00     0.031 A 
ATOM      6  C   UNL d   1      14.841  13.396  -0.830  0.00  0.00     0.111 A 
ATOM      7  N   UNL d   1      14.701  11.780  -0.593  0.00  0.00    -0.217 NA
ATOM      8  N   UNL d   1      15.122  13.069  -0.132  0.00  0.00    -0.218 NA
ATOM      9  C   UNL d   1      15.052  12.256  -0.014  0.00  0.00     0.200 A 
ATOM     10  C   UNL d   1      14.084  13.810  -2.552  0.00  0.00     0.001 A 
ATOM     11  C   UNL d   1      13.538  12.410  -3.237  0.00  0.00     0.006 A 
ATOM     12  C   UNL d   1      13.729  13.813  -3.296  0.00  0.00     0.000 A 
ATOM     13  C   UNL d   1      13.463  13.140  -3.634  0.00  0.00     0.001 A 
ENDROOT
BRANCH   6  14
ATOM     14  S   UNL d   1      14.916  14.229  -0.945  0.00  0.00    -0.083 SA
BRANCH  14  15
ATOM     15  C   UNL d   1      15.262  14.675  -0.371  0.00  0.00     0.161 C 
BRANCH  15  16
ATOM     16  C   UNL d   1      15.138  15.485  -0.375  0.00  0.00     0.197 C 
ATOM     17  O   UNL d   1      15.682  15.966  -0.748  0.00  0.00    -0.647 OA
ATOM     18  O   UNL d   1      14.497  15.809  -0.022  0.00  0.00    -0.647 OA
ENDBRANCH  15  16
ENDBRANCH  14  15
ENDBRANCH   6  14
TORSDOF 3
ENDMDL
MODEL 2
REMARK VINA RESULT:      25.8      2.313      3.382
REMARK  3 active torsions:
REMARK  status: ('A' for Active; 'I' for Inactive)
REMARK    1  A    between atoms: S_9  and  C_6 
REMARK    2  A    between atoms: C_13  and  S_9 
REMARK    3  A    between atoms: C_11  and  C_13 
ROOT
ATOM      1  C   UNL d   1      13.094  13.209  -4.426  0.00  0.00     0.114 A 
ATOM      2  C   UNL d   1      13.468  13.188  -3.703  0.00  0.00     0.048 A 
ATOM      3  S   UNL d   1      13.112  13.972  -4.717  0.00  0.00    -0.068 SA
ATOM      4  C   UNL d   1      13.728  13.957  -3.536  0.00  0.00     0.010 A 
ATOM      5  C   UNL d   1      13.522  14.447  -4.138  0.00  0.00     0.031 A 
ATOM      6  C   UNL d   1      13.526  12.471  -3.288  0.00  0.00     0.111 A 
ATOM      7  N   UNL d   1      12.772  12.516  -4.743  0.00  0.00    -0.217 NA
ATOM      8  N   UNL d   1      13.209  11.780  -3.595  0.00  0.00    -0.218 NA
ATOM      9  C   UNL d   1      12.830  11.803  -4.327  0.00  0.00     0.200 A 
ATOM     10  C   UNL d   1      14.138  14.252  -2.883  0.00  0.00     0.001 A 
ATOM     11  C   UNL d   1      13.710  15.251  -4.125  0.00  0.00     0.006 A 
ATOM     12  C   UNL d   1      14.327  15.054  -2.865  0.00  0.00     0.000 A 
ATOM     13  C   UNL d   1      14.123  15.543  -3.462  0.00  0.00     0.001 A 
ENDROOT
BRANCH   6  14
ATOM     14  S   UNL d   1      13.912  12.441  -2.538  0.00  0.00    -0.083 SA
BRANCH  14  15
ATOM     15  C   UNL d   1      13.825  11.786  -2.078  0.00  0.00     0.161 C 
BRANCH  15  16
ATOM     16  C   UNL d   1      14.144  11.791  -1.323  0.00  0.00     0.197 C 
ATOM     17  O   UNL d   1      13.640  11.805  -0.681  0.00  0.00    -0.647 OA
ATOM     18  O   UNL d   1      14.936  11.783  -1.207  0.00  0.00    -0.647 OA
ENDBRANCH  15  16
ENDBRANCH  14  15
ENDBRANCH   6  14
TORSDOF 3
ENDMDL
MODEL 3
REMARK VINA RESULT:      25.9      1.912      3.040
REMARK  3 active torsions:
REMARK  status: ('A' for Active; 'I' for Inactive)
REMARK    1  A    between atoms: S_9  and  C_6 
REMARK    2  A    between atoms: C_13  and  S_9 
REMARK    3  A    between atoms: C_11  and  C_13 
ROOT
ATOM      1  C   UNL d   1      14.988  13.177  -0.363  0.00  0.00     0.114 A 
ATOM      2  C   UNL d   1      14.684  13.340  -1.100  0.00  0.00     0.048 A 
ATOM      3  S   UNL d   1      15.239  13.872  -0.014  0.00  0.00    -0.068 SA
ATOM      4  C   UNL d   1      14.746  14.158  -1.218  0.00  0.00     0.010 A 
ATOM      5  C   UNL d   1      15.079  14.499  -0.572  0.00  0.00     0.031 A 
ATOM      6  C   UNL d   1      14.390  12.723  -1.572  0.00  0.00     0.111 A 
ATOM      7  N   UNL d   1      15.002  12.397  -0.086  0.00  0.00    -0.217 NA
ATOM      8  N   UNL d   1      14.400  11.947  -1.305  0.00  0.00    -0.218 NA
ATOM      9  C   UNL d   1      14.708  11.785  -0.559  0.00  0.00     0.200 A 
ATOM     10  C   UNL d   1      14.524  14.622  -1.864  0.00  0.00     0.001 A 
ATOM     11  C   UNL d   1      15.210  15.313  -0.531  0.00  0.00     0.006 A 
ATOM     12  C   UNL d   1      14.653  15.435  -1.828  0.00  0.00     0.000 A 
ATOM     13  C   UNL d   1      14.985  15.777  -1.186  0.00  0.00     0.001 A 
ENDROOT
BRANCH   6  14
ATOM     14  S   UNL d   1      14.074  12.883  -2.338  0.00  0.00    -0.083 SA
BRANCH  14  15
ATOM     15  C   UNL d   1      13.817  12.271  -2.793  0.00  0.00     0.161 C 
BRANCH  15  16
ATOM     16  C   UNL d   1      13.532  12.432  -3.543  0.00  0.00     0.197 C 
ATOM     17  O   UNL d   1      13.352  11.809  -4.040  0.00  0.00    -0.647 OA
ATOM     18  O   UNL d   1      13.427  13.184  -3.796  0.00  0.00    -0.647 OA
ENDBRANCH  15  16
ENDBRANCH  14  15
ENDBRANCH   6  14
TORSDOF 3
ENDMDL
