MODEL 1
REMARK VINA RESULT:      58.7      0.000      0.000
REMARK  4 active torsions:
REMARK  status: ('A' for Active; 'I' for Inactive)
REMARK    1  A    between atoms: C_7  and  C_2 
REMARK    2  A    between atoms: C_12  and  C_4 
REMARK    3  A    between atoms: C_11  and  C_7 
REMARK    4  A    between atoms: N_18  and  C_12 
ROOT
ATOM      1  C   UNL d   1      59.391  49.237  50.619  0.00  0.00     0.108 A 
ATOM      2  C   UNL d   1      60.705  48.979  50.557  0.00  0.00     0.141 A 
ATOM      3  C   UNL d   1      59.708  49.350  51.372  0.00  0.00     0.064 A 
ATOM      4  C   UNL d   1      58.588  49.355  50.488  0.00  0.00     0.079 A 
ATOM      5  O   UNL d   1      60.006  49.007  50.112  0.00  0.00    -0.304 OA
ATOM      6  C   UNL d   1      60.520  49.191  51.333  0.00  0.00     0.220 A 
ATOM      7  C   UNL d   1      59.223  49.583  51.998  0.00  0.00     0.008 A 
ATOM      8  C   UNL d   1      58.100  49.587  51.110  0.00  0.00     0.199 A 
ATOM      9  C   UNL d   1      58.418  49.702  51.866  0.00  0.00     0.042 A 
ATOM     10  O   UNL d   1      61.056  49.236  51.963  0.00  0.00    -0.284 OA
ATOM     11  O   UNL d   1      57.298  49.707  50.982  0.00  0.00    -0.286 OA
ATOM     12  C   UNL d   1      59.540  49.697  52.751  0.00  0.00     0.000 C 
ENDROOT
BRANCH   2  13
ATOM     13  C   UNL d   1      61.452  48.776  50.273  0.00  0.00     0.053 C 
BRANCH  13  14
ATOM     14  C   UNL d   1      61.644  47.977  50.151  0.00  0.00     0.102 A 
ATOM     15  O   UNL d   1      62.009  47.665  49.482  0.00  0.00    -0.305 OA
ATOM     16  C   UNL d   1      62.092  46.854  49.599  0.00  0.00     0.123 A 
ATOM     17  C   UNL d   1      61.778  46.669  50.336  0.00  0.00     0.029 A 
ATOM     18  C   UNL d   1      61.501  47.371  50.677  0.00  0.00     0.027 A 
ENDBRANCH  13  14
ENDBRANCH   2  13
BRANCH   4  19
ATOM     19  C   UNL d   1      58.267  49.242  49.735  0.00  0.00     0.086 C 
BRANCH  19  20
ATOM     20  N   UNL d   1      57.456  49.145  49.644  0.00  0.00    -0.300 N 
ATOM     21  C   UNL d   1      57.049  48.592  50.102  0.00  0.00     0.100 C 
ATOM     22  C   UNL d   1      57.037  49.601  49.090  0.00  0.00     0.100 C 
ENDBRANCH  19  20
ENDBRANCH   4  19
TORSDOF 4
ENDMDL
