MODEL 1
REMARK VINA RESULT:      59.8      0.000      0.000
REMARK  2 active torsions:
REMARK  status: ('A' for Active; 'I' for Inactive)
REMARK       I    between atoms: N_3  and  C_1 
REMARK    1  A    between atoms: O_4  and  C_1 
REMARK    2  A    between atoms: C_6  and  O_4 
ROOT
ATOM      1  C   UNL d   1     -51.038  26.316  33.576  0.00  0.00     0.105 A 
ATOM      2  C   UNL d   1     -51.387  25.583  33.442  0.00  0.00     0.030 A 
ATOM      3  C   UNL d   1     -50.213  26.369  33.713  0.00  0.00     0.122 A 
ATOM      4  N   UNL d   1     -51.501  27.005  33.577  0.00  0.00    -0.242 NA
ATOM      5  C   UNL d   1     -50.925  24.898  33.441  0.00  0.00     0.059 A 
ATOM      6  C   UNL d   1     -49.755  25.688  33.713  0.00  0.00     0.027 A 
ATOM      7  C   UNL d   1     -50.100  24.951  33.578  0.00  0.00     0.013 A 
ATOM      8 CL   UNL d   1     -51.273  24.156  33.306  0.00  0.00    -0.082 Cl
ATOM      9  C   UNL d   1     -52.200  25.531  33.307  0.00  0.00     0.004 A 
ATOM     10  C   UNL d   1     -52.314  26.953  33.442  0.00  0.00     0.099 A 
ATOM     11  C   UNL d   1     -52.663  26.212  33.306  0.00  0.00     0.021 A 
ENDROOT
BRANCH   3  12
ATOM     12  O   UNL d   1     -49.857  27.111  33.850  0.00  0.00    -0.257 OA
BRANCH  12  13
ATOM     13  C   UNL d   1     -49.030  27.173  33.949  0.00  0.00     0.378 C 
ATOM     14  N   UNL d   1     -48.707  27.766  34.410  0.00  0.00    -0.252 N 
ATOM     15  C   UNL d   1     -47.889  27.822  34.504  0.00  0.00     0.085 A 
ATOM     16  C   UNL d   1     -49.200  28.313  34.784  0.00  0.00     0.085 A 
ATOM     17  C   UNL d   1     -47.562  28.417  34.967  0.00  0.00     0.019 A 
ATOM     18  C   UNL d   1     -48.056  28.964  35.341  0.00  0.00     0.003 A 
ATOM     19  C   UNL d   1     -48.868  28.907  35.246  0.00  0.00     0.019 A 
ATOM     20  O   UNL d   1     -48.530  26.619  33.570  0.00  0.00    -0.237 OA
ENDBRANCH  12  13
ENDBRANCH   3  12
TORSDOF 2
ENDMDL
MODEL 2
REMARK VINA RESULT:      61.3      4.445      6.318
REMARK  2 active torsions:
REMARK  status: ('A' for Active; 'I' for Inactive)
REMARK       I    between atoms: N_3  and  C_1 
REMARK    1  A    between atoms: O_4  and  C_1 
REMARK    2  A    between atoms: C_6  and  O_4 
ROOT
ATOM      1  C   UNL d   1     -47.956  32.432  34.062  0.00  0.00     0.105 A 
ATOM      2  C   UNL d   1     -47.560  33.047  33.685  0.00  0.00     0.030 A 
ATOM      3  C   UNL d   1     -47.522  31.826  34.446  0.00  0.00     0.122 A 
ATOM      4  N   UNL d   1     -48.786  32.408  34.064  0.00  0.00    -0.242 NA
ATOM      5  C   UNL d   1     -46.734  33.069  33.685  0.00  0.00     0.059 A 
ATOM      6  C   UNL d   1     -46.701  31.849  34.445  0.00  0.00     0.027 A 
ATOM      7  C   UNL d   1     -46.300  32.464  34.069  0.00  0.00     0.013 A 
ATOM      8 CL   UNL d   1     -46.330  33.688  33.306  0.00  0.00    -0.082 Cl
ATOM      9  C   UNL d   1     -47.988  33.642  33.307  0.00  0.00     0.004 A 
ATOM     10  C   UNL d   1     -49.213  33.004  33.686  0.00  0.00     0.099 A 
ATOM     11  C   UNL d   1     -48.811  33.623  33.306  0.00  0.00     0.021 A 
ENDROOT
BRANCH   3  12
ATOM     12  O   UNL d   1     -47.921  31.202  34.829  0.00  0.00    -0.257 OA
BRANCH  12  13
ATOM     13  C   UNL d   1     -47.569  30.806  35.475  0.00  0.00     0.378 C 
ATOM     14  N   UNL d   1     -47.686  30.005  35.589  0.00  0.00    -0.252 N 
ATOM     15  C   UNL d   1     -47.336  29.619  36.229  0.00  0.00     0.085 A 
ATOM     16  C   UNL d   1     -48.157  29.578  35.063  0.00  0.00     0.085 A 
ATOM     17  C   UNL d   1     -47.452  28.814  36.346  0.00  0.00     0.019 A 
ATOM     18  C   UNL d   1     -47.924  28.387  35.819  0.00  0.00     0.003 A 
ATOM     19  C   UNL d   1     -48.271  28.772  35.184  0.00  0.00     0.019 A 
ATOM     20  O   UNL d   1     -47.091  31.238  36.009  0.00  0.00    -0.237 OA
ENDBRANCH  12  13
ENDBRANCH   3  12
TORSDOF 2
ENDMDL
MODEL 3
REMARK VINA RESULT:      62.2      3.937      5.597
REMARK  2 active torsions:
REMARK  status: ('A' for Active; 'I' for Inactive)
REMARK       I    between atoms: N_3  and  C_1 
REMARK    1  A    between atoms: O_4  and  C_1 
REMARK    2  A    between atoms: C_6  and  O_4 
ROOT
ATOM      1  C   UNL d   1     -47.738  29.861  35.412  0.00  0.00     0.105 A 
ATOM      2  C   UNL d   1     -47.525  29.452  36.093  0.00  0.00     0.030 A 
ATOM      3  C   UNL d   1     -47.533  30.669  35.327  0.00  0.00     0.122 A 
ATOM      4  N   UNL d   1     -48.157  29.477  34.807  0.00  0.00    -0.242 NA
ATOM      5  C   UNL d   1     -47.107  29.836  36.694  0.00  0.00     0.059 A 
ATOM      6  C   UNL d   1     -47.118  31.050  35.925  0.00  0.00     0.027 A 
ATOM      7  C   UNL d   1     -46.902  30.644  36.609  0.00  0.00     0.013 A 
ATOM      8 CL   UNL d   1     -46.890  29.426  37.383  0.00  0.00    -0.082 Cl
ATOM      9  C   UNL d   1     -47.727  28.656  36.177  0.00  0.00     0.004 A 
ATOM     10  C   UNL d   1     -48.359  28.681  34.891  0.00  0.00     0.099 A 
ATOM     11  C   UNL d   1     -48.142  28.270  35.580  0.00  0.00     0.021 A 
ENDROOT
BRANCH   3  12
ATOM     12  O   UNL d   1     -47.748  31.087  34.638  0.00  0.00    -0.257 OA
BRANCH  12  13
ATOM     13  C   UNL d   1     -47.311  31.756  34.393  0.00  0.00     0.378 C 
ATOM     14  N   UNL d   1     -47.682  32.389  34.033  0.00  0.00    -0.252 N 
ATOM     15  C   UNL d   1     -47.246  33.047  33.793  0.00  0.00     0.085 A 
ATOM     16  C   UNL d   1     -48.498  32.372  33.908  0.00  0.00     0.085 A 
ATOM     17  C   UNL d   1     -47.616  33.684  33.431  0.00  0.00     0.019 A 
ATOM     18  C   UNL d   1     -48.432  33.668  33.306  0.00  0.00     0.003 A 
ATOM     19  C   UNL d   1     -48.865  33.014  33.545  0.00  0.00     0.019 A 
ATOM     20  O   UNL d   1     -46.484  31.772  34.519  0.00  0.00    -0.237 OA
ENDBRANCH  12  13
ENDBRANCH   3  12
TORSDOF 2
ENDMDL
