MODEL 1
REMARK VINA RESULT:      -4.4      0.000      0.000
REMARK  4 active torsions:
REMARK  status: ('A' for Active; 'I' for Inactive)
REMARK    1  A    between atoms: C_4  and  C_1 
REMARK    2  A    between atoms: C_2  and  C_3 
REMARK    3  A    between atoms: O_7  and  C_13 
REMARK    4  A    between atoms: C_12  and  O_7 
ROOT
ATOM      1  O   UNL d   1      57.387   0.110  30.290  0.00  0.00    -0.307 OA
ENDROOT
BRANCH   1   2
ATOM      2  C   UNL d   1      57.077   0.016  31.054  0.00  0.00     0.100 A 
ATOM      3  C   UNL d   1      56.844   0.678  31.468  0.00  0.00     0.025 A 
ATOM      4  C   UNL d   1      56.531   0.599  32.237  0.00  0.00     0.005 A 
ATOM      5  C   UNL d   1      56.458  -0.132  32.572  0.00  0.00     0.039 A 
ATOM      6  C   UNL d   1      56.695  -0.812  32.152  0.00  0.00     0.005 A 
ATOM      7  C   UNL d   1      57.009  -0.735  31.382  0.00  0.00     0.025 A 
BRANCH   5   8
ATOM      8  C   UNL d   1      56.145  -0.211  33.340  0.00  0.00     0.196 C 
ATOM      9  O   UNL d   1      56.483   0.202  33.981  0.00  0.00    -0.287 OA
ATOM     10  C   UNL d   1      55.496  -0.696  33.491  0.00  0.00     0.045 C 
ENDBRANCH   5   8
ENDBRANCH   1   2
BRANCH   1  11
ATOM     11  C   UNL d   1      58.212   0.089  30.150  0.00  0.00     0.100 A 
ATOM     12  C   UNL d   1      58.505  -0.560  29.730  0.00  0.00     0.025 A 
ATOM     13  C   UNL d   1      59.331  -0.583  29.588  0.00  0.00     0.005 A 
ATOM     14  C   UNL d   1      59.833   0.019  29.857  0.00  0.00     0.039 A 
ATOM     15  C   UNL d   1      59.506   0.646  30.270  0.00  0.00     0.005 A 
ATOM     16  C   UNL d   1      58.697   0.682  30.417  0.00  0.00     0.025 A 
BRANCH  14  17
ATOM     17  C   UNL d   1      60.628  -0.004  29.720  0.00  0.00     0.196 C 
ATOM     18  O   UNL d   1      61.094   0.678  29.835  0.00  0.00    -0.287 OA
ATOM     19  C   UNL d   1      60.979  -0.699  29.467  0.00  0.00     0.045 C 
ENDBRANCH  14  17
ENDBRANCH   1  11
TORSDOF 4
ENDMDL
MODEL 2
REMARK VINA RESULT:      -4.2      1.454      2.120
REMARK  4 active torsions:
REMARK  status: ('A' for Active; 'I' for Inactive)
REMARK    1  A    between atoms: C_4  and  C_1 
REMARK    2  A    between atoms: C_2  and  C_3 
REMARK    3  A    between atoms: O_7  and  C_13 
REMARK    4  A    between atoms: C_12  and  O_7 
ROOT
ATOM      1  O   UNL d   1      57.428  -0.589  32.484  0.00  0.00    -0.307 OA
ENDROOT
BRANCH   1   2
ATOM      2  C   UNL d   1      56.766  -0.301  32.893  0.00  0.00     0.100 A 
ATOM      3  C   UNL d   1      56.047  -0.671  32.790  0.00  0.00     0.025 A 
ATOM      4  C   UNL d   1      55.374  -0.392  33.195  0.00  0.00     0.005 A 
ATOM      5  C   UNL d   1      55.432   0.244  33.689  0.00  0.00     0.039 A 
ATOM      6  C   UNL d   1      56.165   0.625  33.797  0.00  0.00     0.005 A 
ATOM      7  C   UNL d   1      56.841   0.348  33.393  0.00  0.00     0.025 A 
BRANCH   5   8
ATOM      8  C   UNL d   1      54.759   0.523  34.093  0.00  0.00     0.196 C 
ATOM      9  O   UNL d   1      54.051   0.679  33.681  0.00  0.00    -0.287 OA
ATOM     10  C   UNL d   1      54.771   0.652  34.907  0.00  0.00     0.045 C 
ENDBRANCH   5   8
ENDBRANCH   1   2
BRANCH   1  11
ATOM     11  C   UNL d   1      57.617  -0.318  31.716  0.00  0.00     0.100 A 
ATOM     12  C   UNL d   1      57.491  -0.843  31.090  0.00  0.00     0.025 A 
ATOM     13  C   UNL d   1      57.680  -0.573  30.319  0.00  0.00     0.005 A 
ATOM     14  C   UNL d   1      57.980   0.189  30.189  0.00  0.00     0.039 A 
ATOM     15  C   UNL d   1      58.091   0.681  30.834  0.00  0.00     0.005 A 
ATOM     16  C   UNL d   1      57.910   0.429  31.597  0.00  0.00     0.025 A 
BRANCH  14  17
ATOM     17  C   UNL d   1      58.161   0.448  29.447  0.00  0.00     0.196 C 
ATOM     18  O   UNL d   1      57.557   0.592  28.892  0.00  0.00    -0.287 OA
ATOM     19  C   UNL d   1      58.944   0.572  29.238  0.00  0.00     0.045 C 
ENDBRANCH  14  17
ENDBRANCH   1  11
TORSDOF 4
ENDMDL
