MODEL 1
REMARK VINA RESULT:      -4.3      0.000      0.000
REMARK  4 active torsions:
REMARK  status: ('A' for Active; 'I' for Inactive)
REMARK    1  A    between atoms: N_8  and  C_1 
REMARK    2  A    between atoms: C_13  and  N_4 
REMARK    3  A    between atoms: C_6  and  N_8 
REMARK    4  A    between atoms: C_14  and  C_9 
ROOT
ATOM      1  C   UNL d   1     -42.363-122.020 -50.440  0.00  0.00     0.135 A 
ATOM      2  C   UNL d   1     -41.892-122.203 -49.781  0.00  0.00     0.296 A 
ATOM      3  N   UNL d   1     -43.078-122.788 -49.625  0.00  0.00    -0.238 N 
ATOM      4  N   UNL d   1     -42.337-122.678 -49.278  0.00  0.00    -0.209 N 
ATOM      5  C   UNL d   1     -43.084-122.382 -50.334  0.00  0.00     0.102 A 
ATOM      6  O   UNL d   1     -41.123-121.953 -49.657  0.00  0.00    -0.264 OA
ATOM      7  C   UNL d   1     -43.696-123.226 -49.312  0.00  0.00     0.120 C 
ATOM      8  C   UNL d   1     -43.726-122.347 -50.861  0.00  0.00     0.022 C 
ENDROOT
BRANCH   1   9
ATOM      9  N   UNL d   1     -42.134-121.555 -51.082  0.00  0.00    -0.329 N 
ATOM     10  H   UNL d   1     -42.186-120.730 -51.031  0.00  0.00     0.168 HD
BRANCH   9  11
ATOM     11  C   UNL d   1     -41.855-121.905 -51.767  0.00  0.00     0.172 A 
ATOM     12  N   UNL d   1     -42.163-121.814 -52.520  0.00  0.00    -0.222 NA
ATOM     13  C   UNL d   1     -41.708-122.268 -53.040  0.00  0.00     0.090 A 
ATOM     14  C   UNL d   1     -41.123-122.636 -52.604  0.00  0.00     0.057 A 
ATOM     15  S   UNL d   1     -41.210-122.413 -51.811  0.00  0.00    -0.048 SA
BRANCH  13  16
ATOM     16  C   UNL d   1     -41.830-122.333 -53.850  0.00  0.00     0.018 A 
ATOM     17  C   UNL d   1     -41.479-122.942 -54.284  0.00  0.00     0.002 A 
ATOM     18  C   UNL d   1     -41.607-122.997 -55.095  0.00  0.00     0.000 A 
ATOM     19  C   UNL d   1     -42.084-122.448 -55.471  0.00  0.00     0.000 A 
ATOM     20  C   UNL d   1     -42.433-121.846 -55.053  0.00  0.00     0.000 A 
ATOM     21  C   UNL d   1     -42.314-121.777 -54.238  0.00  0.00     0.002 A 
ENDBRANCH  13  16
ENDBRANCH   9  11
ENDBRANCH   1   9
BRANCH   4  22
ATOM     22  C   UNL d   1     -42.092-122.989 -48.560  0.00  0.00     0.085 A 
ATOM     23  C   UNL d   1     -42.489-122.791 -47.864  0.00  0.00     0.019 A 
ATOM     24  C   UNL d   1     -42.236-123.108 -47.148  0.00  0.00     0.002 A 
ATOM     25  C   UNL d   1     -41.589-123.620 -47.127  0.00  0.00     0.000 A 
ATOM     26  C   UNL d   1     -41.192-123.817 -47.822  0.00  0.00     0.002 A 
ATOM     27  C   UNL d   1     -41.441-123.504 -48.540  0.00  0.00     0.019 A 
ENDBRANCH   4  22
TORSDOF 4
ENDMDL
