MODEL 1
REMARK VINA RESULT:      -9.4      0.000      0.000
REMARK  4 active torsions:
REMARK  status: ('A' for Active; 'I' for Inactive)
REMARK    1  A    between atoms: C_10  and  N_3 
REMARK    2  A    between atoms: C_11  and  C_6 
REMARK    3  A    between atoms: C_16  and  C_10 
REMARK    4  A    between atoms: N_17  and  C_16 
ROOT
ATOM      1  C   UNL d   1      52.472  32.915  53.474  0.00  0.00     0.083 A 
ATOM      2  C   UNL d   1      51.960  32.397  53.112  0.00  0.00     0.161 A 
ATOM      3  N   UNL d   1      53.006  31.717  53.517  0.00  0.00    -0.270 N 
ATOM      4  C   UNL d   1      52.290  31.655  53.139  0.00  0.00     0.288 A 
ATOM      5  C   UNL d   1      52.289  33.713  53.535  0.00  0.00     0.201 A 
ATOM      6  C   UNL d   1      53.118  32.492  53.724  0.00  0.00     0.072 A 
ATOM      7  O   UNL d   1      51.249  32.678  52.802  0.00  0.00    -0.302 OA
ATOM      8  C   UNL d   1      51.579  33.982  53.223  0.00  0.00     0.062 A 
ATOM      9  C   UNL d   1      51.064  33.461  52.858  0.00  0.00     0.103 A 
ATOM     10  O   UNL d   1      51.952  30.961  52.832  0.00  0.00    -0.264 OA
ATOM     11  O   UNL d   1      52.810  34.239  53.903  0.00  0.00    -0.286 OA
ATOM     12  C   UNL d   1      51.388  34.783  53.279  0.00  0.00     0.005 A 
ATOM     13  C   UNL d   1      50.355  33.739  52.549  0.00  0.00     0.025 A 
ATOM     14  C   UNL d   1      50.686  35.042  52.969  0.00  0.00     0.000 A 
ATOM     15  C   UNL d   1      50.171  34.521  52.605  0.00  0.00     0.002 A 
ENDROOT
BRANCH   6  16
ATOM     16  C   UNL d   1      53.781  32.804  54.124  0.00  0.00     0.017 A 
ATOM     17  C   UNL d   1      53.773  32.862  54.947  0.00  0.00     0.004 A 
ATOM     18  C   UNL d   1      54.431  33.171  55.341  0.00  0.00     0.030 A 
ATOM     19  C   UNL d   1      55.104  33.426  54.906  0.00  0.00     0.140 A 
ATOM     20  C   UNL d   1      55.101  33.363  54.083  0.00  0.00     0.030 A 
ATOM     21  F   UNL d   1      55.765  33.737  55.302  0.00  0.00    -0.204 F 
ATOM     22  C   UNL d   1      54.440  33.052  53.686  0.00  0.00     0.004 A 
ENDBRANCH   6  16
BRANCH   3  23
ATOM     23  C   UNL d   1      53.536  31.088  53.668  0.00  0.00     0.102 C 
BRANCH  23  24
ATOM     24  C   UNL d   1      53.270  30.300  53.593  0.00  0.00     0.100 C 
BRANCH  24  25
ATOM     25  N   UNL d   1      53.749  29.677  53.872  0.00  0.00    -0.299 N 
ATOM     26  C   UNL d   1      53.493  29.216  54.516  0.00  0.00     0.100 C 
ATOM     27  C   UNL d   1      54.476  29.521  53.507  0.00  0.00     0.100 C 
ENDBRANCH  24  25
ENDBRANCH  23  24
ENDBRANCH   3  23
TORSDOF 4
ENDMDL
MODEL 2
REMARK VINA RESULT:      -9.3      2.007      4.339
REMARK  4 active torsions:
REMARK  status: ('A' for Active; 'I' for Inactive)
REMARK    1  A    between atoms: C_10  and  N_3 
REMARK    2  A    between atoms: C_11  and  C_6 
REMARK    3  A    between atoms: C_16  and  C_10 
REMARK    4  A    between atoms: N_17  and  C_16 
ROOT
ATOM      1  C   UNL d   1      52.789  32.577  53.370  0.00  0.00     0.083 A 
ATOM      2  C   UNL d   1      53.477  32.558  53.803  0.00  0.00     0.161 A 
ATOM      3  N   UNL d   1      53.069  33.803  53.743  0.00  0.00    -0.270 N 
ATOM      4  C   UNL d   1      53.651  33.318  54.035  0.00  0.00     0.288 A 
ATOM      5  C   UNL d   1      52.470  31.888  53.057  0.00  0.00     0.201 A 
ATOM      6  C   UNL d   1      52.539  33.349  53.333  0.00  0.00     0.072 A 
ATOM      7  O   UNL d   1      53.858  31.837  53.931  0.00  0.00    -0.302 OA
ATOM      8  C   UNL d   1      52.858  31.176  53.190  0.00  0.00     0.062 A 
ATOM      9  C   UNL d   1      53.549  31.157  53.627  0.00  0.00     0.103 A 
ATOM     10  O   UNL d   1      54.307  33.549  54.489  0.00  0.00    -0.264 OA
ATOM     11  O   UNL d   1      51.771  31.908  52.616  0.00  0.00    -0.286 OA
ATOM     12  C   UNL d   1      52.543  30.478  52.879  0.00  0.00     0.005 A 
ATOM     13  C   UNL d   1      53.930  30.440  53.754  0.00  0.00     0.025 A 
ATOM     14  C   UNL d   1      52.930  29.780  53.014  0.00  0.00     0.000 A 
ATOM     15  C   UNL d   1      53.622  29.761  53.450  0.00  0.00     0.002 A 
ENDROOT
BRANCH   6  16
ATOM     16  C   UNL d   1      51.855  33.622  52.942  0.00  0.00     0.017 A 
ATOM     17  C   UNL d   1      51.913  33.921  52.176  0.00  0.00     0.004 A 
ATOM     18  C   UNL d   1      51.234  34.191  51.790  0.00  0.00     0.030 A 
ATOM     19  C   UNL d   1      50.487  34.162  52.176  0.00  0.00     0.140 A 
ATOM     20  C   UNL d   1      50.440  33.860  52.943  0.00  0.00     0.030 A 
ATOM     21  F   UNL d   1      49.804  34.433  51.787  0.00  0.00    -0.204 F 
ATOM     22  C   UNL d   1      51.124  33.588  53.332  0.00  0.00     0.004 A 
ENDBRANCH   6  16
BRANCH   3  23
ATOM     23  C   UNL d   1      53.026  34.631  53.847  0.00  0.00     0.102 C 
BRANCH  23  24
ATOM     24  C   UNL d   1      53.272  34.967  54.572  0.00  0.00     0.100 C 
BRANCH  24  25
ATOM     25  N   UNL d   1      53.163  35.784  54.703  0.00  0.00    -0.299 N 
ATOM     26  C   UNL d   1      52.557  36.043  55.212  0.00  0.00     0.100 C 
ATOM     27  C   UNL d   1      53.657  36.332  54.326  0.00  0.00     0.100 C 
ENDBRANCH  24  25
ENDBRANCH  23  24
ENDBRANCH   3  23
TORSDOF 4
ENDMDL
MODEL 3
REMARK VINA RESULT:      -8.5      1.053      3.595
REMARK  4 active torsions:
REMARK  status: ('A' for Active; 'I' for Inactive)
REMARK    1  A    between atoms: C_10  and  N_3 
REMARK    2  A    between atoms: C_11  and  C_6 
REMARK    3  A    between atoms: C_16  and  C_10 
REMARK    4  A    between atoms: N_17  and  C_16 
ROOT
ATOM      1  C   UNL d   1      53.234  31.520  53.685  0.00  0.00     0.083 A 
ATOM      2  C   UNL d   1      52.638  31.356  53.158  0.00  0.00     0.161 A 
ATOM      3  N   UNL d   1      52.814  32.656  53.180  0.00  0.00    -0.270 N 
ATOM      4  C   UNL d   1      52.376  32.060  52.845  0.00  0.00     0.288 A 
ATOM      5  C   UNL d   1      53.611  30.917  54.094  0.00  0.00     0.201 A 
ATOM      6  C   UNL d   1      53.342  32.325  53.697  0.00  0.00     0.072 A 
ATOM      7  O   UNL d   1      52.409  30.573  53.032  0.00  0.00    -0.302 OA
ATOM      8  C   UNL d   1      53.376  30.141  53.961  0.00  0.00     0.062 A 
ATOM      9  C   UNL d   1      52.776  29.976  53.431  0.00  0.00     0.103 A 
ATOM     10  O   UNL d   1      51.771  32.147  52.283  0.00  0.00    -0.264 OA
ATOM     11  O   UNL d   1      54.218  31.083  54.630  0.00  0.00    -0.286 OA
ATOM     12  C   UNL d   1      53.750  29.527  54.368  0.00  0.00     0.005 A 
ATOM     13  C   UNL d   1      52.547  29.197  53.305  0.00  0.00     0.025 A 
ATOM     14  C   UNL d   1      53.513  28.765  54.233  0.00  0.00     0.000 A 
ATOM     15  C   UNL d   1      52.913  28.600  53.703  0.00  0.00     0.002 A 
ENDROOT
BRANCH   6  16
ATOM     16  C   UNL d   1      53.899  32.736  54.163  0.00  0.00     0.017 A 
ATOM     17  C   UNL d   1      53.711  32.945  54.938  0.00  0.00     0.004 A 
ATOM     18  C   UNL d   1      54.266  33.352  55.397  0.00  0.00     0.030 A 
ATOM     19  C   UNL d   1      55.016  33.552  55.076  0.00  0.00     0.140 A 
ATOM     20  C   UNL d   1      55.194  33.339  54.299  0.00  0.00     0.030 A 
ATOM     21  F   UNL d   1      55.573  33.962  55.538  0.00  0.00    -0.204 F 
ATOM     22  C   UNL d   1      54.637  32.929  53.836  0.00  0.00     0.004 A 
ENDBRANCH   6  16
BRANCH   3  23
ATOM     23  C   UNL d   1      52.732  33.472  53.019  0.00  0.00     0.102 C 
BRANCH  23  24
ATOM     24  C   UNL d   1      51.990  33.771  52.779  0.00  0.00     0.100 C 
BRANCH  24  25
ATOM     25  N   UNL d   1      51.843  34.592  52.828  0.00  0.00    -0.299 N 
ATOM     26  C   UNL d   1      51.133  34.864  53.166  0.00  0.00     0.100 C 
ATOM     27  C   UNL d   1      52.405  35.129  52.539  0.00  0.00     0.100 C 
ENDBRANCH  24  25
ENDBRANCH  23  24
ENDBRANCH   3  23
TORSDOF 4
ENDMDL
MODEL 4
REMARK VINA RESULT:      -8.0      1.650      3.850
REMARK  4 active torsions:
REMARK  status: ('A' for Active; 'I' for Inactive)
REMARK    1  A    between atoms: C_10  and  N_3 
REMARK    2  A    between atoms: C_11  and  C_6 
REMARK    3  A    between atoms: C_16  and  C_10 
REMARK    4  A    between atoms: N_17  and  C_16 
ROOT
ATOM      1  C   UNL d   1      52.361  32.851  53.365  0.00  0.00     0.083 A 
ATOM      2  C   UNL d   1      51.765  32.358  53.113  0.00  0.00     0.161 A 
ATOM      3  N   UNL d   1      51.286  33.577  53.173  0.00  0.00    -0.270 N 
ATOM      4  C   UNL d   1      51.098  32.808  52.994  0.00  0.00     0.288 A 
ATOM      5  C   UNL d   1      53.108  32.555  53.533  0.00  0.00     0.201 A 
ATOM      6  C   UNL d   1      52.062  33.605  53.401  0.00  0.00     0.072 A 
ATOM      7  O   UNL d   1      51.914  31.551  53.025  0.00  0.00    -0.302 OA
ATOM      8  C   UNL d   1      53.245  31.750  53.442  0.00  0.00     0.062 A 
ATOM      9  C   UNL d   1      52.646  31.254  53.188  0.00  0.00     0.103 A 
ATOM     10  O   UNL d   1      50.361  32.526  52.736  0.00  0.00    -0.264 OA
ATOM     11  O   UNL d   1      53.714  33.056  53.789  0.00  0.00    -0.286 OA
ATOM     12  C   UNL d   1      53.994  31.444  53.608  0.00  0.00     0.005 A 
ATOM     13  C   UNL d   1      52.792  30.450  53.100  0.00  0.00     0.025 A 
ATOM     14  C   UNL d   1      54.123  30.650  53.516  0.00  0.00     0.000 A 
ATOM     15  C   UNL d   1      53.523  30.154  53.263  0.00  0.00     0.002 A 
ENDROOT
BRANCH   6  16
ATOM     16  C   UNL d   1      52.484  34.286  53.634  0.00  0.00     0.017 A 
ATOM     17  C   UNL d   1      52.879  34.736  53.067  0.00  0.00     0.004 A 
ATOM     18  C   UNL d   1      53.296  35.411  53.299  0.00  0.00     0.030 A 
ATOM     19  C   UNL d   1      53.318  35.638  54.109  0.00  0.00     0.140 A 
ATOM     20  C   UNL d   1      52.919  35.180  54.668  0.00  0.00     0.030 A 
ATOM     21  F   UNL d   1      53.738  36.316  54.342  0.00  0.00    -0.204 F 
ATOM     22  C   UNL d   1      52.499  34.501  54.434  0.00  0.00     0.004 A 
ENDBRANCH   6  16
BRANCH   3  23
ATOM     23  C   UNL d   1      50.765  34.230  53.129  0.00  0.00     0.102 C 
BRANCH  23  24
ATOM     24  C   UNL d   1      49.996  34.122  52.822  0.00  0.00     0.100 C 
BRANCH  24  25
ATOM     25  N   UNL d   1      49.511  34.788  52.685  0.00  0.00    -0.299 N 
ATOM     26  C   UNL d   1      49.285  34.980  51.908  0.00  0.00     0.100 C 
ATOM     27  C   UNL d   1      49.258  35.251  53.324  0.00  0.00     0.100 C 
ENDBRANCH  24  25
ENDBRANCH  23  24
ENDBRANCH   3  23
TORSDOF 4
ENDMDL
MODEL 5
REMARK VINA RESULT:      -6.9      1.491      2.878
REMARK  4 active torsions:
REMARK  status: ('A' for Active; 'I' for Inactive)
REMARK    1  A    between atoms: C_10  and  N_3 
REMARK    2  A    between atoms: C_11  and  C_6 
REMARK    3  A    between atoms: C_16  and  C_10 
REMARK    4  A    between atoms: N_17  and  C_16 
ROOT
ATOM      1  C   UNL d   1      52.269  33.366  53.376  0.00  0.00     0.083 A 
ATOM      2  C   UNL d   1      52.332  34.160  53.539  0.00  0.00     0.161 A 
ATOM      3  N   UNL d   1      53.428  33.572  53.955  0.00  0.00    -0.270 N 
ATOM      4  C   UNL d   1      53.050  34.288  53.898  0.00  0.00     0.288 A 
ATOM      5  C   UNL d   1      51.599  33.063  53.011  0.00  0.00     0.201 A 
ATOM      6  C   UNL d   1      52.949  33.004  53.634  0.00  0.00     0.072 A 
ATOM      7  O   UNL d   1      51.714  34.667  53.335  0.00  0.00    -0.302 OA
ATOM      8  C   UNL d   1      50.990  33.577  52.812  0.00  0.00     0.062 A 
ATOM      9  C   UNL d   1      51.053  34.376  52.976  0.00  0.00     0.103 A 
ATOM     10  O   UNL d   1      53.339  35.022  54.157  0.00  0.00    -0.264 OA
ATOM     11  O   UNL d   1      51.535  32.256  52.845  0.00  0.00    -0.286 OA
ATOM     12  C   UNL d   1      50.312  33.281  52.445  0.00  0.00     0.005 A 
ATOM     13  C   UNL d   1      50.438  34.883  52.774  0.00  0.00     0.025 A 
ATOM     14  C   UNL d   1      49.715  33.793  52.251  0.00  0.00     0.000 A 
ATOM     15  C   UNL d   1      49.779  34.592  52.415  0.00  0.00     0.002 A 
ENDROOT
BRANCH   6  16
ATOM     16  C   UNL d   1      53.120  32.189  53.577  0.00  0.00     0.017 A 
ATOM     17  C   UNL d   1      53.488  31.894  52.900  0.00  0.00     0.004 A 
ATOM     18  C   UNL d   1      53.656  31.087  52.846  0.00  0.00     0.030 A 
ATOM     19  C   UNL d   1      53.455  30.568  53.477  0.00  0.00     0.140 A 
ATOM     20  C   UNL d   1      53.087  30.875  54.150  0.00  0.00     0.030 A 
ATOM     21  F   UNL d   1      53.625  29.757  53.422  0.00  0.00    -0.204 F 
ATOM     22  C   UNL d   1      52.917  31.687  54.205  0.00  0.00     0.004 A 
ENDBRANCH   6  16
BRANCH   3  23
ATOM     23  C   UNL d   1      54.184  33.444  54.287  0.00  0.00     0.102 C 
BRANCH  23  24
ATOM     24  C   UNL d   1      54.501  34.007  54.816  0.00  0.00     0.100 C 
BRANCH  24  25
ATOM     25  N   UNL d   1      55.214  33.839  55.217  0.00  0.00    -0.299 N 
ATOM     26  C   UNL d   1      55.939  33.900  54.813  0.00  0.00     0.100 C 
ATOM     27  C   UNL d   1      55.195  33.612  56.014  0.00  0.00     0.100 C 
ENDBRANCH  24  25
ENDBRANCH  23  24
ENDBRANCH   3  23
TORSDOF 4
ENDMDL
MODEL 6
REMARK VINA RESULT:      -6.5      1.915      4.104
REMARK  4 active torsions:
REMARK  status: ('A' for Active; 'I' for Inactive)
REMARK    1  A    between atoms: C_10  and  N_3 
REMARK    2  A    between atoms: C_11  and  C_6 
REMARK    3  A    between atoms: C_16  and  C_10 
REMARK    4  A    between atoms: N_17  and  C_16 
ROOT
ATOM      1  C   UNL d   1      53.139  33.403  53.928  0.00  0.00     0.083 A 
ATOM      2  C   UNL d   1      53.008  34.203  53.985  0.00  0.00     0.161 A 
ATOM      3  N   UNL d   1      52.074  33.692  53.219  0.00  0.00    -0.270 N 
ATOM      4  C   UNL d   1      52.348  34.383  53.545  0.00  0.00     0.288 A 
ATOM      5  C   UNL d   1      53.772  33.052  54.316  0.00  0.00     0.201 A 
ATOM      6  C   UNL d   1      52.560  33.088  53.453  0.00  0.00     0.072 A 
ATOM      7  O   UNL d   1      53.517  34.668  54.438  0.00  0.00    -0.302 OA
ATOM      8  C   UNL d   1      54.273  33.524  54.765  0.00  0.00     0.062 A 
ATOM      9  C   UNL d   1      54.141  34.329  54.822  0.00  0.00     0.103 A 
ATOM     10  O   UNL d   1      52.018  35.139  53.452  0.00  0.00    -0.264 OA
ATOM     11  O   UNL d   1      53.905  32.238  54.258  0.00  0.00    -0.286 OA
ATOM     12  C   UNL d   1      54.912  33.179  55.158  0.00  0.00     0.005 A 
ATOM     13  C   UNL d   1      54.647  34.794  55.273  0.00  0.00     0.025 A 
ATOM     14  C   UNL d   1      55.401  33.650  55.599  0.00  0.00     0.000 A 
ATOM     15  C   UNL d   1      55.269  34.455  55.656  0.00  0.00     0.002 A 
ENDROOT
BRANCH   6  16
ATOM     16  C   UNL d   1      52.482  32.284  53.246  0.00  0.00     0.017 A 
ATOM     17  C   UNL d   1      52.922  31.979  52.618  0.00  0.00     0.004 A 
ATOM     18  C   UNL d   1      52.843  31.181  52.414  0.00  0.00     0.030 A 
ATOM     19  C   UNL d   1      52.318  30.684  52.843  0.00  0.00     0.140 A 
ATOM     20  C   UNL d   1      51.883  31.000  53.470  0.00  0.00     0.030 A 
ATOM     21  F   UNL d   1      52.240  29.882  52.638  0.00  0.00    -0.204 F 
ATOM     22  C   UNL d   1      51.962  31.803  53.676  0.00  0.00     0.004 A 
ENDBRANCH   6  16
BRANCH   3  23
ATOM     23  C   UNL d   1      51.405  33.617  52.724  0.00  0.00     0.102 C 
BRANCH  23  24
ATOM     24  C   UNL d   1      50.954  34.295  52.537  0.00  0.00     0.100 C 
BRANCH  24  25
ATOM     25  N   UNL d   1      50.255  34.213  52.087  0.00  0.00    -0.299 N 
ATOM     26  C   UNL d   1      49.515  34.241  52.466  0.00  0.00     0.100 C 
ATOM     27  C   UNL d   1      50.304  34.105  51.267  0.00  0.00     0.100 C 
ENDBRANCH  24  25
ENDBRANCH  23  24
ENDBRANCH   3  23
TORSDOF 4
ENDMDL
