MODEL 1
REMARK VINA RESULT:      -6.4      0.000      0.000
REMARK  4 active torsions:
REMARK  status: ('A' for Active; 'I' for Inactive)
REMARK    1  A    between atoms: C_2  and  C_1 
REMARK    2  A    between atoms: C_3  and  C_4 
REMARK       I    between atoms: N_12  and  C_3 
REMARK    3  A    between atoms: C_4  and  C_5 
REMARK    4  A    between atoms: C_5  and  C_11 
ROOT
ATOM      1  C   UNL d   1     -41.791-122.434 -54.834  0.00  0.00     0.071 A 
ATOM      2  C   UNL d   1     -41.748-122.117 -54.073  0.00  0.00     0.004 A 
ATOM      3  C   UNL d   1     -41.415-122.560 -53.462  0.00  0.00     0.000 A 
ATOM      4  C   UNL d   1     -41.499-123.197 -54.984  0.00  0.00     0.004 A 
ATOM      5  C   UNL d   1     -41.166-123.639 -54.373  0.00  0.00    -0.000 A 
ATOM      6  C   UNL d   1     -41.123-123.323 -53.613  0.00  0.00    -0.000 A 
ENDROOT
BRANCH   3   7
ATOM      7  C   UNL d   1     -41.374-122.235 -52.700  0.00  0.00     0.005 C 
BRANCH   7   8
ATOM      8  C   UNL d   1     -41.485-122.727 -52.038  0.00  0.00     0.062 C 
BRANCH   8   9
ATOM      9  C   UNL d   1     -41.591-122.394 -51.289  0.00  0.00     0.279 C 
ATOM     10  O   UNL d   1     -41.141-121.737 -51.068  0.00  0.00    -0.265 OA
ATOM     11  N   UNL d   1     -42.142-122.717 -50.765  0.00  0.00    -0.205 NA
ATOM     12  C   UNL d   1     -42.243-122.379 -50.015  0.00  0.00     0.123 C 
ENDBRANCH   8   9
ENDBRANCH   7   8
ENDBRANCH   3   7
BRANCH   1  13
ATOM     13  C   UNL d   1     -42.124-121.995 -55.446  0.00  0.00     0.419 C 
ATOM     14  F   UNL d   1     -42.918-122.067 -55.804  0.00  0.00    -0.166 F 
ATOM     15  F   UNL d   1     -41.790-121.348 -55.903  0.00  0.00    -0.166 F 
ATOM     16  F   UNL d   1     -42.433-121.597 -56.006  0.00  0.00    -0.166 F 
ENDBRANCH   1  13
TORSDOF 4
ENDMDL
MODEL 2
REMARK VINA RESULT:      -4.8      2.967      3.996
REMARK  4 active torsions:
REMARK  status: ('A' for Active; 'I' for Inactive)
REMARK    1  A    between atoms: C_2  and  C_1 
REMARK    2  A    between atoms: C_3  and  C_4 
REMARK       I    between atoms: N_12  and  C_3 
REMARK    3  A    between atoms: C_4  and  C_5 
REMARK    4  A    between atoms: C_5  and  C_11 
ROOT
ATOM      1  C   UNL d   1     -41.842-122.679 -51.124  0.00  0.00     0.071 A 
ATOM      2  C   UNL d   1     -41.818-122.317 -51.865  0.00  0.00     0.004 A 
ATOM      3  C   UNL d   1     -41.459-122.702 -52.500  0.00  0.00     0.000 A 
ATOM      4  C   UNL d   1     -41.505-123.432 -51.018  0.00  0.00     0.004 A 
ATOM      5  C   UNL d   1     -41.146-123.817 -51.653  0.00  0.00    -0.000 A 
ATOM      6  C   UNL d   1     -41.123-123.454 -52.394  0.00  0.00    -0.000 A 
ENDROOT
BRANCH   3   7
ATOM      7  C   UNL d   1     -41.439-122.331 -53.242  0.00  0.00     0.005 C 
BRANCH   7   8
ATOM      8  C   UNL d   1     -41.758-122.721 -53.905  0.00  0.00     0.062 C 
BRANCH   8   9
ATOM      9  C   UNL d   1     -41.821-122.325 -54.626  0.00  0.00     0.279 C 
ATOM     10  O   UNL d   1     -41.151-121.970 -54.957  0.00  0.00    -0.265 OA
ATOM     11  N   UNL d   1     -42.549-122.283 -55.015  0.00  0.00    -0.205 NA
ATOM     12  C   UNL d   1     -42.607-121.884 -55.739  0.00  0.00     0.123 C 
ENDBRANCH   8   9
ENDBRANCH   7   8
ENDBRANCH   3   7
BRANCH   1  13
ATOM     13  C   UNL d   1     -42.199-122.298 -50.489  0.00  0.00     0.419 C 
ATOM     14  F   UNL d   1     -43.034-122.327 -50.229  0.00  0.00    -0.166 F 
ATOM     15  F   UNL d   1     -41.859-121.768 -49.904  0.00  0.00    -0.166 F 
ATOM     16  F   UNL d   1     -42.531-121.951 -49.908  0.00  0.00    -0.166 F 
ENDBRANCH   1  13
TORSDOF 4
ENDMDL
MODEL 3
REMARK VINA RESULT:      -4.7      3.306      4.647
REMARK  4 active torsions:
REMARK  status: ('A' for Active; 'I' for Inactive)
REMARK    1  A    between atoms: C_2  and  C_1 
REMARK    2  A    between atoms: C_3  and  C_4 
REMARK       I    between atoms: N_12  and  C_3 
REMARK    3  A    between atoms: C_4  and  C_5 
REMARK    4  A    between atoms: C_5  and  C_11 
ROOT
ATOM      1  C   UNL d   1     -42.293-122.937 -49.653  0.00  0.00     0.071 A 
ATOM      2  C   UNL d   1     -42.214-122.570 -50.387  0.00  0.00     0.004 A 
ATOM      3  C   UNL d   1     -41.630-122.822 -50.912  0.00  0.00     0.000 A 
ATOM      4  C   UNL d   1     -41.785-123.560 -49.442  0.00  0.00     0.004 A 
ATOM      5  C   UNL d   1     -41.202-123.813 -49.968  0.00  0.00    -0.000 A 
ATOM      6  C   UNL d   1     -41.123-123.446 -50.702  0.00  0.00    -0.000 A 
ENDROOT
BRANCH   3   7
ATOM      7  C   UNL d   1     -41.557-122.448 -51.649  0.00  0.00     0.005 C 
BRANCH   7   8
ATOM      8  C   UNL d   1     -41.507-122.909 -52.340  0.00  0.00     0.062 C 
BRANCH   8   9
ATOM      9  C   UNL d   1     -41.449-122.542 -53.078  0.00  0.00     0.279 C 
ATOM     10  O   UNL d   1     -41.133-121.780 -53.131  0.00  0.00    -0.265 OA
ATOM     11  N   UNL d   1     -41.706-122.934 -53.758  0.00  0.00    -0.205 NA
ATOM     12  C   UNL d   1     -41.645-122.562 -54.496  0.00  0.00     0.123 C 
ENDBRANCH   8   9
ENDBRANCH   7   8
ENDBRANCH   3   7
BRANCH   1  13
ATOM     13  C   UNL d   1     -42.874-122.688 -49.126  0.00  0.00     0.419 C 
ATOM     14  F   UNL d   1     -43.725-122.893 -49.109  0.00  0.00    -0.166 F 
ATOM     15  F   UNL d   1     -42.814-122.160 -48.450  0.00  0.00    -0.166 F 
ATOM     16  F   UNL d   1     -43.411-122.463 -48.647  0.00  0.00    -0.166 F 
ENDBRANCH   1  13
TORSDOF 4
ENDMDL
