MODEL 1
REMARK VINA RESULT:      48.7      0.000      0.000
REMARK  3 active torsions:
REMARK  status: ('A' for Active; 'I' for Inactive)
REMARK    1  A    between atoms: S_9  and  C_3 
REMARK    2  A    between atoms: C_12  and  S_9 
REMARK    3  A    between atoms: C_14  and  C_12 
ROOT
ATOM      1  C   UNL d   1     -51.418  23.904  33.428  0.00  0.00     0.155 A 
ATOM      2  C   UNL d   1     -51.866  24.600  33.367  0.00  0.00     0.107 A 
ATOM      3  C   UNL d   1     -50.661  25.367  33.350  0.00  0.00     0.182 A 
ATOM      4  N   UNL d   1     -50.216  24.681  33.410  0.00  0.00    -0.250 N 
ATOM      5  N   UNL d   1     -51.484  25.337  33.328  0.00  0.00    -0.220 NA
ATOM      6  C   UNL d   1     -50.598  23.944  33.449  0.00  0.00     0.285 A 
ATOM      7  N   UNL d   1     -51.939  23.264  33.457  0.00  0.00    -0.239 NA
ATOM      8  C   UNL d   1     -52.664  24.396  33.358  0.00  0.00     0.037 A 
ATOM      9  C   UNL d   1     -52.713  23.564  33.413  0.00  0.00     0.083 A 
ATOM     10  O   UNL d   1     -50.141  23.250  33.510  0.00  0.00    -0.265 OA
ATOM     11  C   UNL d   1     -49.386  24.722  33.432  0.00  0.00     0.104 C 
ATOM     12  C   UNL d   1     -53.353  24.844  33.307  0.00  0.00     0.003 A 
ATOM     13  C   UNL d   1     -53.454  23.190  33.417  0.00  0.00     0.019 A 
ATOM     14  C   UNL d   1     -54.093  24.471  33.311  0.00  0.00     0.000 A 
ATOM     15  C   UNL d   1     -54.140  23.649  33.366  0.00  0.00     0.002 A 
ENDROOT
BRANCH   3  16
ATOM     16  S   UNL d   1     -50.278  26.100  33.311  0.00  0.00    -0.050 SA
BRANCH  16  17
ATOM     17  C   UNL d   1     -50.537  26.732  33.777  0.00  0.00     0.032 C 
ATOM     18  C   UNL d   1     -51.332  26.793  33.985  0.00  0.00     0.007 C 
BRANCH  17  19
ATOM     19  C   UNL d   1     -49.986  27.294  34.025  0.00  0.00     0.006 A 
ATOM     20  C   UNL d   1     -49.788  27.914  33.525  0.00  0.00     0.001 A 
ATOM     21  C   UNL d   1     -49.234  28.488  33.760  0.00  0.00     0.000 A 
ATOM     22  C   UNL d   1     -48.885  28.431  34.501  0.00  0.00     0.000 A 
ATOM     23  C   UNL d   1     -49.077  27.814  35.009  0.00  0.00     0.000 A 
ATOM     24  C   UNL d   1     -49.631  27.244  34.767  0.00  0.00     0.001 A 
ENDBRANCH  17  19
ENDBRANCH  16  17
ENDBRANCH   3  16
TORSDOF 3
ENDMDL
