MODEL 1
REMARK VINA RESULT:      23.5      0.000      0.000
REMARK  1 active torsions:
REMARK  status: ('A' for Active; 'I' for Inactive)
REMARK    1  A    between atoms: C_9  and  C_4 
ROOT
ATOM      1  S   UNL d   1     -57.833 -98.774 -43.766  0.00  0.00    -0.085 SA
ATOM      2  N   UNL d   1     -59.364 -98.757 -44.738  0.00  0.00    -0.207 NA
ATOM      3  C   UNL d   1     -58.819 -98.760 -45.337  0.00  0.00     0.280 A 
ATOM      4  C   UNL d   1     -57.528 -98.774 -44.518  0.00  0.00     0.034 A 
ATOM      5  C   UNL d   1     -57.969 -98.768 -45.239  0.00  0.00     0.069 A 
ATOM      6  C   UNL d   1     -58.507 -98.768 -43.603  0.00  0.00     0.047 A 
ATOM      7  C   UNL d   1     -59.209 -98.761 -44.036  0.00  0.00     0.091 A 
ATOM      8  O   UNL d   1     -59.108 -98.755 -46.107  0.00  0.00    -0.265 OA
ATOM      9  C   UNL d   1     -58.529 -98.771 -42.780  0.00  0.00     0.008 A 
ATOM     10  C   UNL d   1     -59.933 -98.755 -43.646  0.00  0.00     0.020 A 
ATOM     11  C   UNL d   1     -59.961 -98.758 -42.816  0.00  0.00     0.002 A 
ATOM     12  C   UNL d   1     -59.258 -98.765 -42.383  0.00  0.00     0.001 A 
ENDROOT
BRANCH   4  13
ATOM     13  C   UNL d   1     -56.701 -98.781 -44.581  0.00  0.00     0.006 A 
ATOM     14  C   UNL d   1     -56.342 -98.772 -45.317  0.00  0.00     0.001 A 
ATOM     15  C   UNL d   1     -55.526 -98.779 -45.380  0.00  0.00     0.000 A 
ATOM     16  C   UNL d   1     -55.063 -98.796 -44.698  0.00  0.00     0.000 A 
ATOM     17  C   UNL d   1     -55.425 -98.805 -43.947  0.00  0.00     0.000 A 
ATOM     18  C   UNL d   1     -56.246 -98.798 -43.890  0.00  0.00     0.001 A 
ENDBRANCH   4  13
TORSDOF 1
ENDMDL
