MODEL 1
REMARK VINA RESULT:      -5.1      0.000      0.000
REMARK  6 active torsions:
REMARK  status: ('A' for Active; 'I' for Inactive)
REMARK    1  A    between atoms: C_2  and  C_1 
REMARK    2  A    between atoms: C_3  and  C_1 
REMARK    3  A    between atoms: N_4  and  C_1 
REMARK       I    between atoms: N_9  and  C_2 
REMARK    4  A    between atoms: C_7  and  C_3 
REMARK       I    between atoms: C_8  and  N_4 
REMARK    5  A    between atoms: C_14  and  C_5 
REMARK    6  A    between atoms: C_15  and  C_8 
ROOT
ATOM      1  C   UNL d   1     -39.133  14.248  18.114  0.00  0.00     0.143 C 
ENDROOT
BRANCH   1   2
ATOM      2  C   UNL d   1     -38.678  13.962  17.483  0.00  0.00     0.283 C 
ATOM      3  N   UNL d   1     -38.537  13.154  17.402  0.00  0.00    -0.267 N 
ATOM      4  C   UNL d   1     -38.851  12.623  17.955  0.00  0.00     0.110 A 
ATOM      5  C   UNL d   1     -38.087  12.869  16.778  0.00  0.00     0.110 A 
ATOM      6  C   UNL d   1     -38.708  11.811  17.873  0.00  0.00     0.142 A 
ATOM      7  O   UNL d   1     -38.256  11.537  17.244  0.00  0.00    -0.300 OA
ATOM      8  C   UNL d   1     -37.944  12.070  16.694  0.00  0.00     0.142 A 
ATOM      9  O   UNL d   1     -38.365  14.497  16.931  0.00  0.00    -0.265 OA
ENDBRANCH   1   2
BRANCH   1  10
ATOM     10  C   UNL d   1     -38.769  14.914  18.439  0.00  0.00     0.049 C 
BRANCH  10  11
ATOM     11  C   UNL d   1     -38.520  14.908  19.227  0.00  0.00     0.102 A 
ATOM     12  O   UNL d   1     -38.671  14.323  19.773  0.00  0.00    -0.307 OA
ATOM     13  C   UNL d   1     -38.314  14.553  20.488  0.00  0.00     0.100 A 
ATOM     14  C   UNL d   1     -37.947  15.278  20.368  0.00  0.00     0.027 A 
ATOM     15  C   UNL d   1     -38.076  15.537  19.515  0.00  0.00     0.027 A 
BRANCH  13  16
ATOM     16  C   UNL d   1     -38.332  14.119  21.187  0.00  0.00     0.023 A 
ATOM     17  C   UNL d   1     -38.663  14.462  21.863  0.00  0.00     0.002 A 
ATOM     18  C   UNL d   1     -38.688  14.036  22.572  0.00  0.00     0.000 A 
ATOM     19  C   UNL d   1     -38.382  13.268  22.600  0.00  0.00     0.000 A 
ATOM     20  C   UNL d   1     -38.051  12.924  21.924  0.00  0.00     0.000 A 
ATOM     21  C   UNL d   1     -38.027  13.348  21.222  0.00  0.00     0.002 A 
ENDBRANCH  13  16
ENDBRANCH  10  11
ENDBRANCH   1  10
BRANCH   1  22
ATOM     22  N   UNL d   1     -39.843  13.974  18.430  0.00  0.00    -0.203 NA
ATOM     23  C   UNL d   1     -40.654  14.098  18.366  0.00  0.00     0.279 C 
ATOM     24  O   UNL d   1     -41.169  13.650  18.837  0.00  0.00    -0.265 OA
BRANCH  23  25
ATOM     25  C   UNL d   1     -40.956  14.656  17.845  0.00  0.00     0.058 A 
ATOM     26  C   UNL d   1     -40.944  14.503  17.035  0.00  0.00     0.005 A 
ATOM     27  C   UNL d   1     -41.248  15.062  16.511  0.00  0.00     0.000 A 
ATOM     28  C   UNL d   1     -41.562  15.771  16.793  0.00  0.00     0.000 A 
ATOM     29  C   UNL d   1     -41.571  15.919  17.609  0.00  0.00     0.000 A 
ATOM     30  C   UNL d   1     -41.267  15.359  18.131  0.00  0.00     0.005 A 
ENDBRANCH  23  25
ENDBRANCH   1  22
TORSDOF 6
ENDMDL
MODEL 2
REMARK VINA RESULT:      -5.0      8.421      9.732
REMARK  6 active torsions:
REMARK  status: ('A' for Active; 'I' for Inactive)
REMARK    1  A    between atoms: C_2  and  C_1 
REMARK    2  A    between atoms: C_3  and  C_1 
REMARK    3  A    between atoms: N_4  and  C_1 
REMARK       I    between atoms: N_9  and  C_2 
REMARK    4  A    between atoms: C_7  and  C_3 
REMARK       I    between atoms: C_8  and  N_4 
REMARK    5  A    between atoms: C_14  and  C_5 
REMARK    6  A    between atoms: C_15  and  C_8 
ROOT
ATOM      1  C   UNL d   1     -48.430  13.817  22.640  0.00  0.00     0.143 C 
ENDROOT
BRANCH   1   2
ATOM      2  C   UNL d   1     -48.596  13.039  22.875  0.00  0.00     0.283 C 
ATOM      3  N   UNL d   1     -48.650  12.436  22.317  0.00  0.00    -0.267 N 
ATOM      4  C   UNL d   1     -48.538  12.607  21.514  0.00  0.00     0.110 A 
ATOM      5  C   UNL d   1     -48.815  11.666  22.548  0.00  0.00     0.110 A 
ATOM      6  C   UNL d   1     -48.592  11.999  20.952  0.00  0.00     0.142 A 
ATOM      7  O   UNL d   1     -48.757  11.231  21.196  0.00  0.00    -0.300 OA
ATOM      8  C   UNL d   1     -48.869  11.066  21.998  0.00  0.00     0.142 A 
ATOM      9  O   UNL d   1     -48.708  12.873  23.680  0.00  0.00    -0.265 OA
ENDBRANCH   1   2
BRANCH   1  10
ATOM     10  C   UNL d   1     -47.850  14.138  23.132  0.00  0.00     0.049 C 
BRANCH  10  11
ATOM     11  C   UNL d   1     -47.057  14.128  22.900  0.00  0.00     0.102 A 
ATOM     12  O   UNL d   1     -46.596  13.464  22.796  0.00  0.00    -0.307 OA
ATOM     13  C   UNL d   1     -45.841  13.721  22.562  0.00  0.00     0.100 A 
ATOM     14  C   UNL d   1     -45.851  14.541  22.525  0.00  0.00     0.027 A 
ATOM     15  C   UNL d   1     -46.670  14.838  22.752  0.00  0.00     0.027 A 
BRANCH  13  16
ATOM     16  C   UNL d   1     -45.203  13.227  22.398  0.00  0.00     0.023 A 
ATOM     17  C   UNL d   1     -45.124  12.521  22.823  0.00  0.00     0.002 A 
ATOM     18  C   UNL d   1     -44.489  12.015  22.669  0.00  0.00     0.000 A 
ATOM     19  C   UNL d   1     -43.933  12.218  22.089  0.00  0.00     0.000 A 
ATOM     20  C   UNL d   1     -44.012  12.924  21.664  0.00  0.00     0.000 A 
ATOM     21  C   UNL d   1     -44.643  13.424  21.819  0.00  0.00     0.002 A 
ENDBRANCH  13  16
ENDBRANCH  10  11
ENDBRANCH   1  10
BRANCH   1  22
ATOM     22  N   UNL d   1     -48.746  14.270  22.029  0.00  0.00    -0.203 NA
ATOM     23  C   UNL d   1     -49.350  14.812  21.890  0.00  0.00     0.279 C 
ATOM     24  O   UNL d   1     -49.441  15.128  21.128  0.00  0.00    -0.265 OA
BRANCH  23  25
ATOM     25  C   UNL d   1     -49.858  15.043  22.491  0.00  0.00     0.058 A 
ATOM     26  C   UNL d   1     -50.553  14.618  22.619  0.00  0.00     0.005 A 
ATOM     27  C   UNL d   1     -51.064  14.849  23.223  0.00  0.00     0.000 A 
ATOM     28  C   UNL d   1     -50.885  15.499  23.698  0.00  0.00     0.000 A 
ATOM     29  C   UNL d   1     -50.184  15.922  23.564  0.00  0.00     0.000 A 
ATOM     30  C   UNL d   1     -49.673  15.690  22.960  0.00  0.00     0.005 A 
ENDBRANCH  23  25
ENDBRANCH   1  22
TORSDOF 6
ENDMDL
MODEL 3
REMARK VINA RESULT:      -5.0      8.391      9.713
REMARK  6 active torsions:
REMARK  status: ('A' for Active; 'I' for Inactive)
REMARK    1  A    between atoms: C_2  and  C_1 
REMARK    2  A    between atoms: C_3  and  C_1 
REMARK    3  A    between atoms: N_4  and  C_1 
REMARK       I    between atoms: N_9  and  C_2 
REMARK    4  A    between atoms: C_7  and  C_3 
REMARK       I    between atoms: C_8  and  N_4 
REMARK    5  A    between atoms: C_14  and  C_5 
REMARK    6  A    between atoms: C_15  and  C_8 
ROOT
ATOM      1  C   UNL d   1     -48.048  12.944  22.850  0.00  0.00     0.143 C 
ENDROOT
BRANCH   1   2
ATOM      2  C   UNL d   1     -47.989  13.736  23.086  0.00  0.00     0.283 C 
ATOM      3  N   UNL d   1     -47.373  14.210  22.811  0.00  0.00    -0.267 N 
ATOM      4  C   UNL d   1     -46.808  13.893  22.294  0.00  0.00     0.110 A 
ATOM      5  C   UNL d   1     -47.314  14.995  23.043  0.00  0.00     0.110 A 
ATOM      6  C   UNL d   1     -46.189  14.370  22.018  0.00  0.00     0.142 A 
ATOM      7  O   UNL d   1     -46.140  15.155  22.257  0.00  0.00    -0.300 OA
ATOM      8  C   UNL d   1     -46.706  15.467  22.773  0.00  0.00     0.142 A 
ATOM      9  O   UNL d   1     -48.557  14.050  23.603  0.00  0.00    -0.265 OA
ENDBRANCH   1   2
BRANCH   1  10
ATOM     10  C   UNL d   1     -48.023  12.454  23.514  0.00  0.00     0.049 C 
BRANCH  10  11
ATOM     11  C   UNL d   1     -47.487  11.826  23.547  0.00  0.00     0.102 A 
ATOM     12  O   UNL d   1     -46.678  11.880  23.462  0.00  0.00    -0.307 OA
ATOM     13  C   UNL d   1     -46.369  11.112  23.535  0.00  0.00     0.100 A 
ATOM     14  C   UNL d   1     -46.995  10.596  23.664  0.00  0.00     0.027 A 
ATOM     15  C   UNL d   1     -47.765  11.063  23.675  0.00  0.00     0.027 A 
BRANCH  13  16
ATOM     16  C   UNL d   1     -45.571  10.917  23.484  0.00  0.00     0.023 A 
ATOM     17  C   UNL d   1     -45.339  10.136  23.629  0.00  0.00     0.002 A 
ATOM     18  C   UNL d   1     -44.541   9.927  23.582  0.00  0.00     0.000 A 
ATOM     19  C   UNL d   1     -43.976  10.501  23.389  0.00  0.00     0.000 A 
ATOM     20  C   UNL d   1     -44.208  11.282  23.243  0.00  0.00     0.000 A 
ATOM     21  C   UNL d   1     -45.000  11.487  23.291  0.00  0.00     0.002 A 
ENDBRANCH  13  16
ENDBRANCH  10  11
ENDBRANCH   1  10
BRANCH   1  22
ATOM     22  N   UNL d   1     -48.122  12.613  22.099  0.00  0.00    -0.203 NA
ATOM     23  C   UNL d   1     -48.696  12.457  21.530  0.00  0.00     0.279 C 
ATOM     24  O   UNL d   1     -48.471  12.090  20.820  0.00  0.00    -0.265 OA
BRANCH  23  25
ATOM     25  C   UNL d   1     -49.481  12.658  21.656  0.00  0.00     0.058 A 
ATOM     26  C   UNL d   1     -49.753  13.399  21.415  0.00  0.00     0.005 A 
ATOM     27  C   UNL d   1     -50.542  13.602  21.540  0.00  0.00     0.000 A 
ATOM     28  C   UNL d   1     -51.058  13.071  21.904  0.00  0.00     0.000 A 
ATOM     29  C   UNL d   1     -50.778  12.329  22.143  0.00  0.00     0.000 A 
ATOM     30  C   UNL d   1     -49.989  12.126  22.018  0.00  0.00     0.005 A 
ENDBRANCH  23  25
ENDBRANCH   1  22
TORSDOF 6
ENDMDL
MODEL 4
REMARK VINA RESULT:      -4.0      2.376      3.566
REMARK  6 active torsions:
REMARK  status: ('A' for Active; 'I' for Inactive)
REMARK    1  A    between atoms: C_2  and  C_1 
REMARK    2  A    between atoms: C_3  and  C_1 
REMARK    3  A    between atoms: N_4  and  C_1 
REMARK       I    between atoms: N_9  and  C_2 
REMARK    4  A    between atoms: C_7  and  C_3 
REMARK       I    between atoms: C_8  and  N_4 
REMARK    5  A    between atoms: C_14  and  C_5 
REMARK    6  A    between atoms: C_15  and  C_8 
ROOT
ATOM      1  C   UNL d   1     -39.851  14.777  19.797  0.00  0.00     0.143 C 
ENDROOT
BRANCH   1   2
ATOM      2  C   UNL d   1     -39.324  15.098  20.351  0.00  0.00     0.283 C 
ATOM      3  N   UNL d   1     -38.891  14.607  20.851  0.00  0.00    -0.267 N 
ATOM      4  C   UNL d   1     -38.982  13.785  20.801  0.00  0.00     0.110 A 
ATOM      5  C   UNL d   1     -38.370  14.924  21.400  0.00  0.00     0.110 A 
ATOM      6  C   UNL d   1     -38.547  13.291  21.304  0.00  0.00     0.142 A 
ATOM      7  O   UNL d   1     -38.027  13.620  21.851  0.00  0.00    -0.300 OA
ATOM      8  C   UNL d   1     -37.940  14.441  21.897  0.00  0.00     0.142 A 
ATOM      9  O   UNL d   1     -39.236  15.922  20.398  0.00  0.00    -0.265 OA
ENDBRANCH   1   2
BRANCH   1  10
ATOM     10  C   UNL d   1     -40.551  15.213  19.794  0.00  0.00     0.049 C 
BRANCH  10  11
ATOM     11  C   UNL d   1     -41.188  14.978  20.266  0.00  0.00     0.102 A 
ATOM     12  O   UNL d   1     -41.445  14.214  20.380  0.00  0.00    -0.307 OA
ATOM     13  C   UNL d   1     -42.098  14.246  20.895  0.00  0.00     0.100 A 
ATOM     14  C   UNL d   1     -42.230  15.032  21.090  0.00  0.00     0.027 A 
ATOM     15  C   UNL d   1     -41.621  15.548  20.672  0.00  0.00     0.027 A 
BRANCH  13  16
ATOM     16  C   UNL d   1     -42.526  13.593  21.155  0.00  0.00     0.023 A 
ATOM     17  C   UNL d   1     -43.349  13.595  21.072  0.00  0.00     0.002 A 
ATOM     18  C   UNL d   1     -43.792  12.946  21.330  0.00  0.00     0.000 A 
ATOM     19  C   UNL d   1     -43.408  12.296  21.670  0.00  0.00     0.000 A 
ATOM     20  C   UNL d   1     -42.585  12.294  21.753  0.00  0.00     0.000 A 
ATOM     21  C   UNL d   1     -42.148  12.938  21.497  0.00  0.00     0.002 A 
ENDBRANCH  13  16
ENDBRANCH  10  11
ENDBRANCH   1  10
BRANCH   1  22
ATOM     22  N   UNL d   1     -39.768  14.131  19.293  0.00  0.00    -0.203 NA
ATOM     23  C   UNL d   1     -39.654  13.961  18.495  0.00  0.00     0.279 C 
ATOM     24  O   UNL d   1     -39.604  13.169  18.254  0.00  0.00    -0.265 OA
BRANCH  23  25
ATOM     25  C   UNL d   1     -39.589  14.562  17.940  0.00  0.00     0.058 A 
ATOM     26  C   UNL d   1     -40.264  14.821  17.542  0.00  0.00     0.005 A 
ATOM     27  C   UNL d   1     -40.200  15.424  16.985  0.00  0.00     0.000 A 
ATOM     28  C   UNL d   1     -39.468  15.769  16.824  0.00  0.00     0.000 A 
ATOM     29  C   UNL d   1     -38.794  15.504  17.227  0.00  0.00     0.000 A 
ATOM     30  C   UNL d   1     -38.859  14.901  17.785  0.00  0.00     0.005 A 
ENDBRANCH  23  25
ENDBRANCH   1  22
TORSDOF 6
ENDMDL
MODEL 5
REMARK VINA RESULT:      -3.3      8.489     10.046
REMARK  6 active torsions:
REMARK  status: ('A' for Active; 'I' for Inactive)
REMARK    1  A    between atoms: C_2  and  C_1 
REMARK    2  A    between atoms: C_3  and  C_1 
REMARK    3  A    between atoms: N_4  and  C_1 
REMARK       I    between atoms: N_9  and  C_2 
REMARK    4  A    between atoms: C_7  and  C_3 
REMARK       I    between atoms: C_8  and  N_4 
REMARK    5  A    between atoms: C_14  and  C_5 
REMARK    6  A    between atoms: C_15  and  C_8 
ROOT
ATOM      1  C   UNL d   1     -48.448  13.685  22.661  0.00  0.00     0.143 C 
ENDROOT
BRANCH   1   2
ATOM      2  C   UNL d   1     -48.941  14.304  22.911  0.00  0.00     0.283 C 
ATOM      3  N   UNL d   1     -49.468  14.658  22.386  0.00  0.00    -0.267 N 
ATOM      4  C   UNL d   1     -49.508  14.393  21.602  0.00  0.00     0.110 A 
ATOM      5  C   UNL d   1     -49.955  15.270  22.633  0.00  0.00     0.110 A 
ATOM      6  C   UNL d   1     -50.039  14.749  21.074  0.00  0.00     0.142 A 
ATOM      7  O   UNL d   1     -50.523  15.362  21.332  0.00  0.00    -0.300 OA
ATOM      8  C   UNL d   1     -50.479  15.622  22.116  0.00  0.00     0.142 A 
ATOM      9  O   UNL d   1     -48.897  14.565  23.697  0.00  0.00    -0.265 OA
ENDBRANCH   1   2
BRANCH   1  10
ATOM     10  C   UNL d   1     -47.786  13.642  23.151  0.00  0.00     0.049 C 
BRANCH  10  11
ATOM     11  C   UNL d   1     -47.031  13.776  22.841  0.00  0.00     0.102 A 
ATOM     12  O   UNL d   1     -46.461  13.210  22.703  0.00  0.00    -0.307 OA
ATOM     13  C   UNL d   1     -45.796  13.599  22.391  0.00  0.00     0.100 A 
ATOM     14  C   UNL d   1     -45.969  14.400  22.342  0.00  0.00     0.027 A 
ATOM     15  C   UNL d   1     -46.806  14.541  22.644  0.00  0.00     0.027 A 
BRANCH  13  16
ATOM     16  C   UNL d   1     -45.093  13.231  22.173  0.00  0.00     0.023 A 
ATOM     17  C   UNL d   1     -44.989  12.429  22.350  0.00  0.00     0.002 A 
ATOM     18  C   UNL d   1     -44.287  12.047  22.137  0.00  0.00     0.000 A 
ATOM     19  C   UNL d   1     -43.691  12.469  21.747  0.00  0.00     0.000 A 
ATOM     20  C   UNL d   1     -43.795  13.271  21.570  0.00  0.00     0.000 A 
ATOM     21  C   UNL d   1     -44.491  13.648  21.782  0.00  0.00     0.002 A 
ENDBRANCH  13  16
ENDBRANCH  10  11
ENDBRANCH   1  10
BRANCH   1  22
ATOM     22  N   UNL d   1     -48.532  13.154  22.037  0.00  0.00    -0.203 NA
ATOM     23  C   UNL d   1     -48.809  12.393  21.886  0.00  0.00     0.279 C 
ATOM     24  O   UNL d   1     -48.767  12.095  21.113  0.00  0.00    -0.265 OA
BRANCH  23  25
ATOM     25  C   UNL d   1     -49.123  11.931  22.487  0.00  0.00     0.058 A 
ATOM     26  C   UNL d   1     -48.617  11.482  22.960  0.00  0.00     0.005 A 
ATOM     27  C   UNL d   1     -48.931  11.018  23.563  0.00  0.00     0.000 A 
ATOM     28  C   UNL d   1     -49.745  10.999  23.696  0.00  0.00     0.000 A 
ATOM     29  C   UNL d   1     -50.248  11.452  23.217  0.00  0.00     0.000 A 
ATOM     30  C   UNL d   1     -49.933  11.917  22.614  0.00  0.00     0.005 A 
ENDBRANCH  23  25
ENDBRANCH   1  22
TORSDOF 6
ENDMDL
MODEL 6
REMARK VINA RESULT:      -2.5      2.488      4.313
REMARK  6 active torsions:
REMARK  status: ('A' for Active; 'I' for Inactive)
REMARK    1  A    between atoms: C_2  and  C_1 
REMARK    2  A    between atoms: C_3  and  C_1 
REMARK    3  A    between atoms: N_4  and  C_1 
REMARK       I    between atoms: N_9  and  C_2 
REMARK    4  A    between atoms: C_7  and  C_3 
REMARK       I    between atoms: C_8  and  N_4 
REMARK    5  A    between atoms: C_14  and  C_5 
REMARK    6  A    between atoms: C_15  and  C_8 
ROOT
ATOM      1  C   UNL d   1     -39.587  14.699  20.679  0.00  0.00     0.143 C 
ENDROOT
BRANCH   1   2
ATOM      2  C   UNL d   1     -39.320  15.103  20.007  0.00  0.00     0.283 C 
ATOM      3  N   UNL d   1     -38.935  14.700  19.400  0.00  0.00    -0.267 N 
ATOM      4  C   UNL d   1     -38.813  13.883  19.462  0.00  0.00     0.110 A 
ATOM      5  C   UNL d   1     -38.670  15.099  18.734  0.00  0.00     0.110 A 
ATOM      6  C   UNL d   1     -38.426  13.476  18.852  0.00  0.00     0.142 A 
ATOM      7  O   UNL d   1     -38.165  13.888  18.189  0.00  0.00    -0.300 OA
ATOM      8  C   UNL d   1     -38.289  14.703  18.132  0.00  0.00     0.142 A 
ATOM      9  O   UNL d   1     -39.444  15.922  19.949  0.00  0.00    -0.265 OA
ENDBRANCH   1   2
BRANCH   1  10
ATOM     10  C   UNL d   1     -40.331  14.982  20.897  0.00  0.00     0.049 C 
BRANCH  10  11
ATOM     11  C   UNL d   1     -41.006  14.528  20.753  0.00  0.00     0.102 A 
ATOM     12  O   UNL d   1     -41.389  14.052  21.292  0.00  0.00    -0.307 OA
ATOM     13  C   UNL d   1     -42.036  13.706  20.901  0.00  0.00     0.100 A 
ATOM     14  C   UNL d   1     -42.040  13.976  20.126  0.00  0.00     0.027 A 
ATOM     15  C   UNL d   1     -41.346  14.537  20.004  0.00  0.00     0.027 A 
BRANCH  13  16
ATOM     16  C   UNL d   1     -42.571  13.184  21.245  0.00  0.00     0.023 A 
ATOM     17  C   UNL d   1     -43.376  13.263  21.072  0.00  0.00     0.002 A 
ATOM     18  C   UNL d   1     -43.925  12.746  21.411  0.00  0.00     0.000 A 
ATOM     19  C   UNL d   1     -43.665  12.150  21.923  0.00  0.00     0.000 A 
ATOM     20  C   UNL d   1     -42.860  12.070  22.097  0.00  0.00     0.000 A 
ATOM     21  C   UNL d   1     -42.318  12.584  21.760  0.00  0.00     0.002 A 
ENDBRANCH  13  16
ENDBRANCH  10  11
ENDBRANCH   1  10
BRANCH   1  22
ATOM     22  N   UNL d   1     -39.231  14.100  21.119  0.00  0.00    -0.203 NA
ATOM     23  C   UNL d   1     -38.821  13.991  21.825  0.00  0.00     0.279 C 
ATOM     24  O   UNL d   1     -38.565  13.229  22.029  0.00  0.00    -0.265 OA
BRANCH  23  25
ATOM     25  C   UNL d   1     -38.665  14.623  22.325  0.00  0.00     0.058 A 
ATOM     26  C   UNL d   1     -38.097  15.180  22.108  0.00  0.00     0.005 A 
ATOM     27  C   UNL d   1     -37.940  15.815  22.609  0.00  0.00     0.000 A 
ATOM     28  C   UNL d   1     -38.345  15.895  23.323  0.00  0.00     0.000 A 
ATOM     29  C   UNL d   1     -38.915  15.331  23.535  0.00  0.00     0.000 A 
ATOM     30  C   UNL d   1     -39.072  14.697  23.033  0.00  0.00     0.005 A 
ENDBRANCH  23  25
ENDBRANCH   1  22
TORSDOF 6
ENDMDL
MODEL 7
REMARK VINA RESULT:      -2.3      1.847      4.180
REMARK  6 active torsions:
REMARK  status: ('A' for Active; 'I' for Inactive)
REMARK    1  A    between atoms: C_2  and  C_1 
REMARK    2  A    between atoms: C_3  and  C_1 
REMARK    3  A    between atoms: N_4  and  C_1 
REMARK       I    between atoms: N_9  and  C_2 
REMARK    4  A    between atoms: C_7  and  C_3 
REMARK       I    between atoms: C_8  and  N_4 
REMARK    5  A    between atoms: C_14  and  C_5 
REMARK    6  A    between atoms: C_15  and  C_8 
ROOT
ATOM      1  C   UNL d   1     -39.261  14.781  20.609  0.00  0.00     0.143 C 
ENDROOT
BRANCH   1   2
ATOM      2  C   UNL d   1     -38.955  14.987  21.351  0.00  0.00     0.283 C 
ATOM      3  N   UNL d   1     -38.695  14.405  21.874  0.00  0.00    -0.267 N 
ATOM      4  C   UNL d   1     -38.739  13.607  21.655  0.00  0.00     0.110 A 
ATOM      5  C   UNL d   1     -38.392  14.608  22.608  0.00  0.00     0.110 A 
ATOM      6  C   UNL d   1     -38.477  13.022  22.181  0.00  0.00     0.142 A 
ATOM      7  O   UNL d   1     -38.176  13.237  22.915  0.00  0.00    -0.300 OA
ATOM      8  C   UNL d   1     -38.134  14.035  23.128  0.00  0.00     0.142 A 
ATOM      9  O   UNL d   1     -38.913  15.788  21.566  0.00  0.00    -0.265 OA
ENDBRANCH   1   2
BRANCH   1  10
ATOM     10  C   UNL d   1     -38.929  15.264  20.028  0.00  0.00     0.049 C 
BRANCH  10  11
ATOM     11  C   UNL d   1     -38.663  14.936  19.317  0.00  0.00     0.102 A 
ATOM     12  O   UNL d   1     -38.997  15.048  18.582  0.00  0.00    -0.307 OA
ATOM     13  C   UNL d   1     -38.545  14.612  18.037  0.00  0.00     0.100 A 
ATOM     14  C   UNL d   1     -37.940  14.239  18.447  0.00  0.00     0.027 A 
ATOM     15  C   UNL d   1     -38.003  14.446  19.321  0.00  0.00     0.027 A 
BRANCH  13  16
ATOM     16  C   UNL d   1     -38.692  14.572  17.227  0.00  0.00     0.023 A 
ATOM     17  C   UNL d   1     -38.331  13.975  16.784  0.00  0.00     0.002 A 
ATOM     18  C   UNL d   1     -38.470  13.923  15.971  0.00  0.00     0.000 A 
ATOM     19  C   UNL d   1     -38.971  14.470  15.604  0.00  0.00     0.000 A 
ATOM     20  C   UNL d   1     -39.332  15.068  16.047  0.00  0.00     0.000 A 
ATOM     21  C   UNL d   1     -39.193  15.118  16.854  0.00  0.00     0.002 A 
ENDBRANCH  13  16
ENDBRANCH  10  11
ENDBRANCH   1  10
BRANCH   1  22
ATOM     22  N   UNL d   1     -39.808  14.203  20.398  0.00  0.00    -0.203 NA
ATOM     23  C   UNL d   1     -40.622  14.096  20.330  0.00  0.00     0.279 C 
ATOM     24  O   UNL d   1     -40.913  13.361  20.078  0.00  0.00    -0.265 OA
BRANCH  23  25
ATOM     25  C   UNL d   1     -41.144  14.703  20.508  0.00  0.00     0.058 A 
ATOM     26  C   UNL d   1     -41.496  14.730  21.254  0.00  0.00     0.005 A 
ATOM     27  C   UNL d   1     -42.020  15.340  21.434  0.00  0.00     0.000 A 
ATOM     28  C   UNL d   1     -42.195  15.920  20.874  0.00  0.00     0.000 A 
ATOM     29  C   UNL d   1     -41.838  15.887  20.127  0.00  0.00     0.000 A 
ATOM     30  C   UNL d   1     -41.313  15.278  19.948  0.00  0.00     0.005 A 
ENDBRANCH  23  25
ENDBRANCH   1  22
TORSDOF 6
ENDMDL
