MODEL 1
REMARK VINA RESULT:      -2.5      0.000      0.000
REMARK  5 active torsions:
REMARK  status: ('A' for Active; 'I' for Inactive)
REMARK    1  A    between atoms: C_10  and  C_3 
REMARK    2  A    between atoms: S_9  and  C_4 
REMARK       I    between atoms: N_6  and  C_7 
REMARK    3  A    between atoms: C_8  and  N_6 
REMARK    4  A    between atoms: C_7  and  C_14 
REMARK    5  A    between atoms: C_14  and  S_9 
ROOT
ATOM      1  S   UNL d   1     -41.275-122.922 -51.484  0.00  0.00    -0.036 SA
ENDROOT
BRANCH   1   2
ATOM      2  C   UNL d   1     -41.339-123.090 -52.309  0.00  0.00     0.236 A 
ATOM      3  O   UNL d   1     -41.560-122.499 -52.845  0.00  0.00    -0.263 OA
ATOM      4  C   UNL d   1     -41.569-122.836 -53.581  0.00  0.00     0.205 A 
ATOM      5  N   UNL d   1     -41.363-123.604 -53.516  0.00  0.00    -0.120 NA
ATOM      6  N   UNL d   1     -41.215-123.788 -52.736  0.00  0.00    -0.114 NA
BRANCH   4   7
ATOM      7  C   UNL d   1     -41.754-122.465 -54.277  0.00  0.00     0.046 A 
ATOM      8  C   UNL d   1     -41.299-122.573 -54.953  0.00  0.00     0.024 A 
ATOM      9  C   UNL d   1     -41.526-122.170 -55.654  0.00  0.00     0.099 A 
ATOM     10  N   UNL d   1     -42.181-121.681 -55.675  0.00  0.00    -0.242 NA
ATOM     11  C   UNL d   1     -42.643-121.573 -54.986  0.00  0.00     0.099 A 
ATOM     12  C   UNL d   1     -42.438-121.959 -54.287  0.00  0.00     0.024 A 
ENDBRANCH   4   7
ENDBRANCH   1   2
BRANCH   1  13
ATOM     13  C   UNL d   1     -41.453-123.499 -50.946  0.00  0.00     0.101 C 
BRANCH  13  14
ATOM     14  C   UNL d   1     -41.487-123.301 -50.151  0.00  0.00     0.286 C 
ATOM     15  N   UNL d   1     -41.898-123.797 -49.619  0.00  0.00    -0.207 NA
ATOM     16  O   UNL d   1     -41.122-122.616 -49.863  0.00  0.00    -0.265 OA
BRANCH  15  17
ATOM     17  C   UNL d   1     -41.938-123.602 -48.806  0.00  0.00     0.095 A 
ATOM     18  C   UNL d   1     -42.653-123.613 -48.421  0.00  0.00     0.075 A 
ATOM     19 CL   UNL d   1     -43.363-123.818 -48.825  0.00  0.00    -0.081 Cl
ATOM     20  C   UNL d   1     -42.685-123.417 -47.609  0.00  0.00     0.013 A 
ATOM     21  C   UNL d   1     -42.017-123.219 -47.206  0.00  0.00     0.001 A 
ATOM     22  C   UNL d   1     -41.285-123.204 -47.582  0.00  0.00     0.002 A 
ATOM     23  C   UNL d   1     -41.245-123.400 -48.403  0.00  0.00     0.020 A 
ENDBRANCH  15  17
ENDBRANCH  13  14
ENDBRANCH   1  13
TORSDOF 5
ENDMDL
MODEL 2
REMARK VINA RESULT:      -0.5      0.960      1.111
REMARK  5 active torsions:
REMARK  status: ('A' for Active; 'I' for Inactive)
REMARK    1  A    between atoms: C_10  and  C_3 
REMARK    2  A    between atoms: S_9  and  C_4 
REMARK       I    between atoms: N_6  and  C_7 
REMARK    3  A    between atoms: C_8  and  N_6 
REMARK    4  A    between atoms: C_7  and  C_14 
REMARK    5  A    between atoms: C_14  and  S_9 
ROOT
ATOM      1  S   UNL d   1     -41.559-122.661 -51.323  0.00  0.00    -0.036 SA
ENDROOT
BRANCH   1   2
ATOM      2  C   UNL d   1     -41.672-122.212 -52.029  0.00  0.00     0.236 A 
ATOM      3  O   UNL d   1     -41.697-122.586 -52.767  0.00  0.00    -0.263 OA
ATOM      4  C   UNL d   1     -41.811-122.008 -53.323  0.00  0.00     0.205 A 
ATOM      5  N   UNL d   1     -41.855-121.301 -52.955  0.00  0.00    -0.120 NA
ATOM      6  N   UNL d   1     -41.772-121.400 -52.150  0.00  0.00    -0.114 NA
BRANCH   4   7
ATOM      7  C   UNL d   1     -41.871-122.115 -54.124  0.00  0.00     0.046 A 
ATOM      8  C   UNL d   1     -42.593-122.046 -54.511  0.00  0.00     0.024 A 
ATOM      9  C   UNL d   1     -42.612-122.165 -55.342  0.00  0.00     0.099 A 
ATOM     10  N   UNL d   1     -41.936-122.346 -55.765  0.00  0.00    -0.242 NA
ATOM     11  C   UNL d   1     -41.202-122.416 -55.368  0.00  0.00     0.099 A 
ATOM     12  C   UNL d   1     -41.162-122.303 -54.553  0.00  0.00     0.024 A 
ENDBRANCH   4   7
ENDBRANCH   1   2
BRANCH   1  13
ATOM     13  C   UNL d   1     -41.123-122.348 -50.719  0.00  0.00     0.101 C 
BRANCH  13  14
ATOM     14  C   UNL d   1     -41.391-122.439 -49.949  0.00  0.00     0.286 C 
ATOM     15  N   UNL d   1     -41.346-123.187 -49.580  0.00  0.00    -0.207 NA
ATOM     16  O   UNL d   1     -41.709-121.802 -49.527  0.00  0.00    -0.265 OA
BRANCH  15  17
ATOM     17  C   UNL d   1     -41.618-123.289 -48.796  0.00  0.00     0.095 A 
ATOM     18  C   UNL d   1     -42.358-123.594 -48.659  0.00  0.00     0.075 A 
ATOM     19 CL   UNL d   1     -42.863-123.813 -49.295  0.00  0.00    -0.081 Cl
ATOM     20  C   UNL d   1     -42.622-123.692 -47.872  0.00  0.00     0.013 A 
ATOM     21  C   UNL d   1     -42.153-123.488 -47.250  0.00  0.00     0.001 A 
ATOM     22  C   UNL d   1     -41.401-123.178 -47.373  0.00  0.00     0.002 A 
ATOM     23  C   UNL d   1     -41.126-123.075 -48.165  0.00  0.00     0.020 A 
ENDBRANCH  15  17
ENDBRANCH  13  14
ENDBRANCH   1  13
TORSDOF 5
ENDMDL
