MODEL 1
REMARK VINA RESULT:      -4.7      0.000      0.000
REMARK  3 active torsions:
REMARK  status: ('A' for Active; 'I' for Inactive)
REMARK    1  A    between atoms: N_9  and  C_4 
REMARK       I    between atoms: C_7  and  N_10 
REMARK    2  A    between atoms: C_8  and  C_7 
REMARK    3  A    between atoms: N_10  and  N_9 
ROOT
ATOM      1  C   UNL d   1      57.257  -0.043  31.263  0.00  0.00     0.297 C 
ATOM      2  N   UNL d   1      57.940  -0.347  30.917  0.00  0.00    -0.104 NA
ATOM      3  O   UNL d   1      56.610   0.157  30.793  0.00  0.00    -0.264 OA
ENDROOT
BRANCH   1   4
ATOM      4  C   UNL d   1      57.223   0.063  32.079  0.00  0.00     0.059 A 
ATOM      5  C   UNL d   1      56.652  -0.353  32.516  0.00  0.00     0.005 A 
ATOM      6  C   UNL d   1      56.626  -0.239  33.337  0.00  0.00     0.000 A 
ATOM      7  C   UNL d   1      56.134  -0.858  32.149  0.00  0.00     0.000 A 
ATOM      8  C   UNL d   1      56.066  -0.646  33.776  0.00  0.00     0.000 A 
ATOM      9  C   UNL d   1      57.153   0.274  33.710  0.00  0.00     0.000 A 
ATOM     10  C   UNL d   1      55.545  -1.153  33.412  0.00  0.00     0.000 A 
ATOM     11  C   UNL d   1      55.576  -1.263  32.589  0.00  0.00     0.000 A 
ATOM     12  C   UNL d   1      57.715   0.682  33.268  0.00  0.00     0.000 A 
ATOM     13  C   UNL d   1      57.751   0.577  32.448  0.00  0.00     0.005 A 
ENDBRANCH   1   4
BRANCH   2  14
ATOM     14  N   UNL d   1      57.974  -0.453  30.102  0.00  0.00    -0.127 NA
BRANCH  14  15
ATOM     15  C   UNL d   1      58.706  -0.534  29.726  0.00  0.00     0.178 A 
ATOM     16  N   UNL d   1      58.927  -1.254  29.399  0.00  0.00    -0.240 N 
ATOM     17  C   UNL d   1      59.651  -1.334  29.027  0.00  0.00     0.343 A 
ATOM     18  C   UNL d   1      58.416  -1.900  29.447  0.00  0.00     0.105 C 
ATOM     19  N   UNL d   1      60.162  -0.688  28.980  0.00  0.00    -0.224 N 
ATOM     20  O   UNL d   1      59.871  -2.059  28.699  0.00  0.00    -0.245 OA
ATOM     21  C   UNL d   1      59.955   0.043  29.303  0.00  0.00     0.271 A 
ATOM     22  C   UNL d   1      60.894  -0.768  28.604  0.00  0.00     0.107 C 
ATOM     23  C   UNL d   1      59.218   0.112  29.679  0.00  0.00     0.101 A 
ATOM     24  O   UNL d   1      60.462   0.682  29.256  0.00  0.00    -0.266 OA
ENDBRANCH  14  15
ENDBRANCH   2  14
TORSDOF 3
ENDMDL
MODEL 2
REMARK VINA RESULT:      -4.2      1.200      4.880
REMARK  3 active torsions:
REMARK  status: ('A' for Active; 'I' for Inactive)
REMARK    1  A    between atoms: N_9  and  C_4 
REMARK       I    between atoms: C_7  and  N_10 
REMARK    2  A    between atoms: C_8  and  C_7 
REMARK    3  A    between atoms: N_10  and  N_9 
ROOT
ATOM      1  C   UNL d   1      58.351  -0.771  29.633  0.00  0.00     0.297 C 
ATOM      2  N   UNL d   1      58.240  -0.690  30.445  0.00  0.00    -0.104 NA
ATOM      3  O   UNL d   1      57.888  -0.335  29.108  0.00  0.00    -0.264 OA
ENDROOT
BRANCH   1   4
ATOM      4  C   UNL d   1      58.923  -1.288  29.347  0.00  0.00     0.059 A 
ATOM      5  C   UNL d   1      59.634  -0.979  29.050  0.00  0.00     0.005 A 
ATOM      6  C   UNL d   1      60.204  -1.509  28.764  0.00  0.00     0.000 A 
ATOM      7  C   UNL d   1      59.768  -0.178  29.040  0.00  0.00     0.000 A 
ATOM      8  C   UNL d   1      60.909  -1.212  28.469  0.00  0.00     0.000 A 
ATOM      9  C   UNL d   1      60.068  -2.323  28.773  0.00  0.00     0.000 A 
ATOM     10  C   UNL d   1      61.047  -0.411  28.457  0.00  0.00     0.000 A 
ATOM     11  C   UNL d   1      60.472   0.115  28.746  0.00  0.00     0.000 A 
ATOM     12  C   UNL d   1      59.360  -2.619  29.070  0.00  0.00     0.000 A 
ATOM     13  C   UNL d   1      58.783  -2.101  29.358  0.00  0.00     0.005 A 
ENDBRANCH   1   4
BRANCH   2  14
ATOM     14  N   UNL d   1      57.668  -0.173  30.732  0.00  0.00    -0.127 NA
BRANCH  14  15
ATOM     15  C   UNL d   1      57.313  -0.313  31.466  0.00  0.00     0.178 A 
ATOM     16  N   UNL d   1      57.549   0.112  32.128  0.00  0.00    -0.240 N 
ATOM     17  C   UNL d   1      57.198  -0.026  32.853  0.00  0.00     0.343 A 
ATOM     18  C   UNL d   1      58.142   0.682  32.060  0.00  0.00     0.105 C 
ATOM     19  N   UNL d   1      56.605  -0.596  32.921  0.00  0.00    -0.224 N 
ATOM     20  O   UNL d   1      57.436   0.402  33.518  0.00  0.00    -0.245 OA
ATOM     21  C   UNL d   1      56.357  -1.032  32.265  0.00  0.00     0.271 A 
ATOM     22  C   UNL d   1      56.250  -0.737  33.654  0.00  0.00     0.107 C 
ATOM     23  C   UNL d   1      56.720  -0.882  31.534  0.00  0.00     0.101 A 
ATOM     24  O   UNL d   1      55.769  -1.596  32.332  0.00  0.00    -0.266 OA
ENDBRANCH  14  15
ENDBRANCH   2  14
TORSDOF 3
ENDMDL
MODEL 3
REMARK VINA RESULT:      -3.9      8.579      9.298
REMARK  3 active torsions:
REMARK  status: ('A' for Active; 'I' for Inactive)
REMARK    1  A    between atoms: N_9  and  C_4 
REMARK       I    between atoms: C_7  and  N_10 
REMARK    2  A    between atoms: C_8  and  C_7 
REMARK    3  A    between atoms: N_10  and  N_9 
ROOT
ATOM      1  C   UNL d   1      59.339  -9.271  34.501  0.00  0.00     0.297 C 
ATOM      2  N   UNL d   1      59.546  -9.382  33.712  0.00  0.00    -0.104 NA
ATOM      3  O   UNL d   1      58.599  -9.514  34.772  0.00  0.00    -0.264 OA
ENDROOT
BRANCH   1   4
ATOM      4  C   UNL d   1      59.871  -8.917  35.019  0.00  0.00     0.059 A 
ATOM      5  C   UNL d   1      59.690  -8.173  35.340  0.00  0.00     0.005 A 
ATOM      6  C   UNL d   1      60.233  -7.826  35.861  0.00  0.00     0.000 A 
ATOM      7  C   UNL d   1      58.997  -7.796  35.148  0.00  0.00     0.000 A 
ATOM      8  C   UNL d   1      60.062  -7.092  36.182  0.00  0.00     0.000 A 
ATOM      9  C   UNL d   1      60.937  -8.210  36.056  0.00  0.00     0.000 A 
ATOM     10  C   UNL d   1      59.369  -6.710  35.992  0.00  0.00     0.000 A 
ATOM     11  C   UNL d   1      58.828  -7.063  35.469  0.00  0.00     0.000 A 
ATOM     12  C   UNL d   1      61.108  -8.947  35.733  0.00  0.00     0.000 A 
ATOM     13  C   UNL d   1      60.574  -9.304  35.212  0.00  0.00     0.005 A 
ENDBRANCH   1   4
BRANCH   2  14
ATOM     14  N   UNL d   1      59.014  -9.736  33.194  0.00  0.00    -0.127 NA
BRANCH  14  15
ATOM     15  C   UNL d   1      59.176  -9.756  32.384  0.00  0.00     0.178 A 
ATOM     16  N   UNL d   1      58.562  -9.777  31.838  0.00  0.00    -0.240 N 
ATOM     17  C   UNL d   1      58.724  -9.797  31.037  0.00  0.00     0.343 A 
ATOM     18  C   UNL d   1      57.780  -9.777  32.101  0.00  0.00     0.105 C 
ATOM     19  N   UNL d   1      59.506  -9.797  30.774  0.00  0.00    -0.224 N 
ATOM     20  O   UNL d   1      58.105  -9.818  30.490  0.00  0.00    -0.245 OA
ATOM     21  C   UNL d   1      60.134  -9.777  31.310  0.00  0.00     0.271 A 
ATOM     22  C   UNL d   1      59.669  -9.818  29.964  0.00  0.00     0.107 C 
ATOM     23  C   UNL d   1      59.958  -9.757  32.121  0.00  0.00     0.101 A 
ATOM     24  O   UNL d   1      60.909  -9.777  31.050  0.00  0.00    -0.266 OA
ENDBRANCH  14  15
ENDBRANCH   2  14
TORSDOF 3
ENDMDL
MODEL 4
REMARK VINA RESULT:      -3.4      1.599      4.571
REMARK  3 active torsions:
REMARK  status: ('A' for Active; 'I' for Inactive)
REMARK    1  A    between atoms: N_9  and  C_4 
REMARK       I    between atoms: C_7  and  N_10 
REMARK    2  A    between atoms: C_8  and  C_7 
REMARK    3  A    between atoms: N_10  and  N_9 
ROOT
ATOM      1  C   UNL d   1      58.174   0.328  30.206  0.00  0.00     0.297 C 
ATOM      2  N   UNL d   1      58.097   0.476  31.012  0.00  0.00    -0.104 NA
ATOM      3  O   UNL d   1      57.515   0.379  29.712  0.00  0.00    -0.264 OA
ENDROOT
BRANCH   1   4
ATOM      4  C   UNL d   1      58.909   0.130  29.893  0.00  0.00     0.059 A 
ATOM      5  C   UNL d   1      59.019  -0.626  29.568  0.00  0.00     0.005 A 
ATOM      6  C   UNL d   1      59.763  -0.816  29.256  0.00  0.00     0.000 A 
ATOM      7  C   UNL d   1      58.412  -1.166  29.556  0.00  0.00     0.000 A 
ATOM      8  C   UNL d   1      59.880  -1.559  28.933  0.00  0.00     0.000 A 
ATOM      9  C   UNL d   1      60.379  -0.267  29.268  0.00  0.00     0.000 A 
ATOM     10  C   UNL d   1      59.276  -2.103  28.918  0.00  0.00     0.000 A 
ATOM     11  C   UNL d   1      58.532  -1.907  29.233  0.00  0.00     0.000 A 
ATOM     12  C   UNL d   1      60.261   0.480  29.593  0.00  0.00     0.000 A 
ATOM     13  C   UNL d   1      59.522   0.681  29.907  0.00  0.00     0.005 A 
ENDBRANCH   1   4
BRANCH   2  14
ATOM     14  N   UNL d   1      57.362   0.675  31.325  0.00  0.00    -0.127 NA
BRANCH  14  15
ATOM     15  C   UNL d   1      57.245   0.670  32.143  0.00  0.00     0.178 A 
ATOM     16  N   UNL d   1      56.485   0.673  32.454  0.00  0.00    -0.240 N 
ATOM     17  C   UNL d   1      56.370   0.668  33.263  0.00  0.00     0.343 A 
ATOM     18  C   UNL d   1      55.835   0.680  31.946  0.00  0.00     0.105 C 
ATOM     19  N   UNL d   1      57.020   0.661  33.771  0.00  0.00    -0.224 N 
ATOM     20  O   UNL d   1      55.605   0.670  33.573  0.00  0.00    -0.245 OA
ATOM     21  C   UNL d   1      57.791   0.659  33.475  0.00  0.00     0.271 A 
ATOM     22  C   UNL d   1      56.905   0.657  34.589  0.00  0.00     0.107 C 
ATOM     23  C   UNL d   1      57.895   0.663  32.651  0.00  0.00     0.101 A 
ATOM     24  O   UNL d   1      58.435   0.652  33.978  0.00  0.00    -0.266 OA
ENDBRANCH  14  15
ENDBRANCH   2  14
TORSDOF 3
ENDMDL
MODEL 5
REMARK VINA RESULT:      -2.9      0.816      1.845
REMARK  3 active torsions:
REMARK  status: ('A' for Active; 'I' for Inactive)
REMARK    1  A    between atoms: N_9  and  C_4 
REMARK       I    between atoms: C_7  and  N_10 
REMARK    2  A    between atoms: C_8  and  C_7 
REMARK    3  A    between atoms: N_10  and  N_9 
ROOT
ATOM      1  C   UNL d   1      57.043  -0.128  31.773  0.00  0.00     0.297 C 
ATOM      2  N   UNL d   1      57.249  -0.505  31.071  0.00  0.00    -0.104 NA
ATOM      3  O   UNL d   1      57.295   0.644  31.918  0.00  0.00    -0.264 OA
ENDROOT
BRANCH   1   4
ATOM      4  C   UNL d   1      56.584  -0.523  32.331  0.00  0.00     0.059 A 
ATOM      5  C   UNL d   1      56.593  -0.262  33.119  0.00  0.00     0.005 A 
ATOM      6  C   UNL d   1      56.127  -0.667  33.673  0.00  0.00     0.000 A 
ATOM      7  C   UNL d   1      57.046   0.373  33.342  0.00  0.00     0.000 A 
ATOM      8  C   UNL d   1      56.130  -0.416  34.452  0.00  0.00     0.000 A 
ATOM      9  C   UNL d   1      55.666  -1.312  33.446  0.00  0.00     0.000 A 
ATOM     10  C   UNL d   1      56.583   0.220  34.680  0.00  0.00     0.000 A 
ATOM     11  C   UNL d   1      57.048   0.622  34.121  0.00  0.00     0.000 A 
ATOM     12  C   UNL d   1      55.664  -1.564  32.662  0.00  0.00     0.000 A 
ATOM     13  C   UNL d   1      56.124  -1.168  32.101  0.00  0.00     0.005 A 
ENDBRANCH   1   4
BRANCH   2  14
ATOM     14  N   UNL d   1      57.708  -0.110  30.513  0.00  0.00    -0.127 NA
BRANCH  14  15
ATOM     15  C   UNL d   1      58.210  -0.537  30.013  0.00  0.00     0.178 A 
ATOM     16  N   UNL d   1      58.772  -0.146  29.559  0.00  0.00    -0.240 N 
ATOM     17  C   UNL d   1      59.268  -0.569  29.065  0.00  0.00     0.343 A 
ATOM     18  C   UNL d   1      58.836   0.675  29.602  0.00  0.00     0.105 C 
ATOM     19  N   UNL d   1      59.204  -1.390  29.021  0.00  0.00    -0.224 N 
ATOM     20  O   UNL d   1      59.833  -0.175  28.609  0.00  0.00    -0.245 OA
ATOM     21  C   UNL d   1      58.644  -1.797  29.471  0.00  0.00     0.271 A 
ATOM     22  C   UNL d   1      59.705  -1.817  28.522  0.00  0.00     0.107 C 
ATOM     23  C   UNL d   1      58.146  -1.358  29.969  0.00  0.00     0.101 A 
ATOM     24  O   UNL d   1      58.580  -2.611  29.428  0.00  0.00    -0.266 OA
ENDBRANCH  14  15
ENDBRANCH   2  14
TORSDOF 3
ENDMDL
