MODEL 1
REMARK VINA RESULT:      -3.9      0.000      0.000
REMARK  7 active torsions:
REMARK  status: ('A' for Active; 'I' for Inactive)
REMARK    1  A    between atoms: C_2  and  C_8 
REMARK    2  A    between atoms: O_17  and  C_2 
REMARK    3  A    between atoms: C_15  and  C_3 
REMARK    4  A    between atoms: C_5  and  C_16 
REMARK       I    between atoms: N_9  and  C_5 
REMARK    5  A    between atoms: C_14  and  N_9 
REMARK    6  A    between atoms: C_16  and  C_15 
REMARK    7  A    between atoms: C_21  and  O_17 
ROOT
ATOM      1  C   UNL d   1     -42.494-122.855 -49.930  0.00  0.00     0.064 A 
ATOM      2  C   UNL d   1     -42.987-122.272 -50.264  0.00  0.00     0.007 A 
ATOM      3  C   UNL d   1     -41.686-122.861 -50.122  0.00  0.00     0.007 A 
ATOM      4  C   UNL d   1     -41.870-121.729 -50.960  0.00  0.00     0.085 A 
ATOM      5  C   UNL d   1     -42.671-121.715 -50.775  0.00  0.00     0.019 A 
ATOM      6  C   UNL d   1     -41.385-122.297 -50.635  0.00  0.00     0.019 A 
ENDROOT
BRANCH   4   7
ATOM      7  N   UNL d   1     -41.555-121.162 -51.480  0.00  0.00    -0.208 NA
ATOM      8  C   UNL d   1     -41.433-121.355 -52.271  0.00  0.00     0.279 C 
ATOM      9  O   UNL d   1     -41.123-120.798 -52.789  0.00  0.00    -0.265 OA
BRANCH   8  10
ATOM     10  C   UNL d   1     -41.622-122.108 -52.552  0.00  0.00     0.065 C 
BRANCH  10  11
ATOM     11  C   UNL d   1     -41.156-122.464 -53.125  0.00  0.00     0.030 C 
BRANCH  11  12
ATOM     12  C   UNL d   1     -41.462-122.613 -53.878  0.00  0.00     0.100 A 
ATOM     13  O   UNL d   1     -41.849-122.075 -54.374  0.00  0.00    -0.307 OA
ATOM     14  C   UNL d   1     -42.058-122.458 -55.065  0.00  0.00     0.100 A 
ATOM     15  C   UNL d   1     -41.800-123.244 -55.006  0.00  0.00     0.027 A 
ATOM     16  C   UNL d   1     -42.451-122.128 -55.703  0.00  0.00     0.027 C 
ATOM     17  C   UNL d   1     -41.432-123.339 -54.274  0.00  0.00     0.027 A 
ENDBRANCH  11  12
ENDBRANCH  10  11
ENDBRANCH   8  10
ENDBRANCH   4   7
BRANCH   1  18
ATOM     18  C   UNL d   1     -42.806-123.413 -49.418  0.00  0.00     0.300 C 
ATOM     19  O   UNL d   1     -43.526-123.791 -49.609  0.00  0.00    -0.259 OA
BRANCH  18  20
ATOM     20  O   UNL d   1     -42.417-123.607 -48.712  0.00  0.00    -0.271 OA
BRANCH  20  21
ATOM     21  C   UNL d   1     -42.866-123.704 -48.017  0.00  0.00     0.126 C 
ATOM     22  C   UNL d   1     -42.471-123.817 -47.296  0.00  0.00     0.029 C 
ENDBRANCH  20  21
ENDBRANCH  18  20
ENDBRANCH   1  18
TORSDOF 7
ENDMDL
MODEL 2
REMARK VINA RESULT:      -1.9      0.952      4.924
REMARK  7 active torsions:
REMARK  status: ('A' for Active; 'I' for Inactive)
REMARK    1  A    between atoms: C_2  and  C_8 
REMARK    2  A    between atoms: O_17  and  C_2 
REMARK    3  A    between atoms: C_15  and  C_3 
REMARK    4  A    between atoms: C_5  and  C_16 
REMARK       I    between atoms: N_9  and  C_5 
REMARK    5  A    between atoms: C_14  and  N_9 
REMARK    6  A    between atoms: C_16  and  C_15 
REMARK    7  A    between atoms: C_21  and  O_17 
ROOT
ATOM      1  C   UNL d   1     -41.930-122.233 -53.782  0.00  0.00     0.064 A 
ATOM      2  C   UNL d   1     -41.367-122.669 -53.347  0.00  0.00     0.007 A 
ATOM      3  C   UNL d   1     -42.234-121.531 -53.461  0.00  0.00     0.007 A 
ATOM      4  C   UNL d   1     -41.430-121.703 -52.303  0.00  0.00     0.085 A 
ATOM      5  C   UNL d   1     -41.123-122.400 -52.613  0.00  0.00     0.019 A 
ATOM      6  C   UNL d   1     -41.979-121.275 -52.725  0.00  0.00     0.019 A 
ENDROOT
BRANCH   4   7
ATOM      7  N   UNL d   1     -41.178-121.435 -51.557  0.00  0.00    -0.208 NA
ATOM      8  C   UNL d   1     -41.374-121.863 -50.882  0.00  0.00     0.279 C 
ATOM      9  O   UNL d   1     -41.128-121.603 -50.142  0.00  0.00    -0.265 OA
BRANCH   8  10
ATOM     10  C   UNL d   1     -41.819-122.556 -50.939  0.00  0.00     0.065 C 
BRANCH  10  11
ATOM     11  C   UNL d   1     -41.714-123.161 -50.396  0.00  0.00     0.030 C 
BRANCH  11  12
ATOM     12  C   UNL d   1     -42.325-123.365 -49.877  0.00  0.00     0.100 A 
ATOM     13  O   UNL d   1     -42.269-123.467 -49.057  0.00  0.00    -0.307 OA
ATOM     14  C   UNL d   1     -43.006-123.667 -48.767  0.00  0.00     0.100 A 
ATOM     15  C   UNL d   1     -43.532-123.692 -49.407  0.00  0.00     0.027 A 
ATOM     16  C   UNL d   1     -43.195-123.817 -47.984  0.00  0.00     0.027 C 
ATOM     17  C   UNL d   1     -43.112-123.505 -50.092  0.00  0.00     0.027 A 
ENDBRANCH  11  12
ENDBRANCH  10  11
ENDBRANCH   8  10
ENDBRANCH   4   7
BRANCH   1  18
ATOM     18  C   UNL d   1     -42.176-122.499 -54.516  0.00  0.00     0.300 C 
ATOM     19  O   UNL d   1     -42.269-123.319 -54.649  0.00  0.00    -0.259 OA
BRANCH  18  20
ATOM     20  O   UNL d   1     -42.335-121.965 -55.131  0.00  0.00    -0.271 OA
BRANCH  20  21
ATOM     21  C   UNL d   1     -42.795-122.218 -55.776  0.00  0.00     0.126 C 
ATOM     22  C   UNL d   1     -42.604-121.946 -56.537  0.00  0.00     0.029 C 
ENDBRANCH  20  21
ENDBRANCH  18  20
ENDBRANCH   1  18
TORSDOF 7
ENDMDL
