MODEL 1
REMARK VINA RESULT:      -1.4      0.000      0.000
REMARK  5 active torsions:
REMARK  status: ('A' for Active; 'I' for Inactive)
REMARK    1  A    between atoms: C_10  and  N_1 
REMARK    2  A    between atoms: C_7  and  C_4 
REMARK    3  A    between atoms: O_16  and  C_9 
REMARK    4  A    between atoms: C_15  and  C_10 
REMARK    5  A    between atoms: O_17  and  C_11 
ROOT
ATOM      1  N   UNL d   1      32.155  16.874 -24.673  0.00  0.00    -0.193 N 
ATOM      2  N   UNL d   1      31.358  16.955 -24.464  0.00  0.00    -0.163 NA
ATOM      3  C   UNL d   1      32.440  16.135 -24.870  0.00  0.00     0.281 A 
ATOM      4  C   UNL d   1      30.864  16.295 -24.457  0.00  0.00     0.102 A 
ATOM      5  C   UNL d   1      31.961  15.473 -24.867  0.00  0.00     0.064 A 
ATOM      6  C   UNL d   1      31.165  15.554 -24.658  0.00  0.00     0.026 A 
ATOM      7  O   UNL d   1      33.235  16.054 -25.078  0.00  0.00    -0.265 OA
ENDROOT
BRANCH   4   8
ATOM      8  C   UNL d   1      30.081  16.375 -24.252  0.00  0.00     0.021 A 
ATOM      9  C   UNL d   1      29.641  17.037 -24.512  0.00  0.00     0.028 A 
ATOM     10  C   UNL d   1      28.854  17.110 -24.302  0.00  0.00     0.116 A 
ATOM     11  C   UNL d   1      28.488  16.537 -23.835  0.00  0.00     0.116 A 
ATOM     12  C   UNL d   1      28.924  15.871 -23.571  0.00  0.00     0.026 A 
ATOM     13  C   UNL d   1      29.715  15.801 -23.785  0.00  0.00     0.004 A 
BRANCH  10  14
ATOM     14  O   UNL d   1      28.423  17.762 -24.558  0.00  0.00    -0.326 OA
ATOM     15  C   UNL d   1      28.761  18.512 -24.561  0.00  0.00     0.181 C 
ENDBRANCH  10  14
BRANCH  11  16
ATOM     16  O   UNL d   1      27.694  16.607 -23.620  0.00  0.00    -0.326 OA
ATOM     17  C   UNL d   1      27.352  16.029 -23.140  0.00  0.00     0.181 C 
ENDBRANCH  11  16
ENDBRANCH   4   8
BRANCH   1  18
ATOM     18  C   UNL d   1      32.641  17.535 -24.678  0.00  0.00     0.104 C 
BRANCH  18  19
ATOM     19  C   UNL d   1      32.738  17.971 -23.992  0.00  0.00     0.019 A 
ATOM     20  C   UNL d   1      32.938  17.593 -23.286  0.00  0.00     0.002 A 
ATOM     21  C   UNL d   1      33.035  18.031 -22.597  0.00  0.00     0.000 A 
ATOM     22  C   UNL d   1      32.928  18.856 -22.623  0.00  0.00     0.000 A 
ATOM     23  C   UNL d   1      32.728  19.231 -23.326  0.00  0.00     0.000 A 
ATOM     24  C   UNL d   1      32.633  18.783 -24.015  0.00  0.00     0.002 A 
ENDBRANCH  18  19
ENDBRANCH   1  18
TORSDOF 5
ENDMDL
MODEL 2
REMARK VINA RESULT:       0.5      2.715      4.957
REMARK  5 active torsions:
REMARK  status: ('A' for Active; 'I' for Inactive)
REMARK    1  A    between atoms: C_10  and  N_1 
REMARK    2  A    between atoms: C_7  and  C_4 
REMARK    3  A    between atoms: O_16  and  C_9 
REMARK    4  A    between atoms: C_15  and  C_10 
REMARK    5  A    between atoms: O_17  and  C_11 
ROOT
ATOM      1  N   UNL d   1      32.712  18.376 -23.631  0.00  0.00    -0.193 N 
ATOM      2  N   UNL d   1      32.711  19.182 -23.448  0.00  0.00    -0.163 NA
ATOM      3  C   UNL d   1      32.978  17.842 -23.072  0.00  0.00     0.281 A 
ATOM      4  C   UNL d   1      32.974  19.439 -22.709  0.00  0.00     0.102 A 
ATOM      5  C   UNL d   1      33.241  18.083 -22.337  0.00  0.00     0.064 A 
ATOM      6  C   UNL d   1      33.239  18.889 -22.154  0.00  0.00     0.026 A 
ATOM      7  O   UNL d   1      32.980  17.037 -23.255  0.00  0.00    -0.265 OA
ENDROOT
BRANCH   4   8
ATOM      8  C   UNL d   1      32.972  20.232 -22.529  0.00  0.00     0.021 A 
ATOM      9  C   UNL d   1      32.701  20.495 -21.783  0.00  0.00     0.028 A 
ATOM     10  C   UNL d   1      32.702  21.294 -21.609  0.00  0.00     0.116 A 
ATOM     11  C   UNL d   1      32.968  21.845 -22.163  0.00  0.00     0.116 A 
ATOM     12  C   UNL d   1      33.241  21.587 -22.912  0.00  0.00     0.026 A 
ATOM     13  C   UNL d   1      33.238  20.783 -23.083  0.00  0.00     0.004 A 
BRANCH  10  14
ATOM     14  O   UNL d   1      32.435  21.551 -20.875  0.00  0.00    -0.326 OA
ATOM     15  C   UNL d   1      31.660  21.411 -20.639  0.00  0.00     0.181 C 
ENDBRANCH  10  14
BRANCH  11  16
ATOM     16  O   UNL d   1      32.971  22.653 -21.990  0.00  0.00    -0.326 OA
ATOM     17  C   UNL d   1      33.202  23.189 -22.574  0.00  0.00     0.181 C 
ENDBRANCH  11  16
ENDBRANCH   4   8
BRANCH   1  18
ATOM     18  C   UNL d   1      32.449  18.127 -24.368  0.00  0.00     0.104 C 
BRANCH  18  19
ATOM     19  C   UNL d   1      31.672  17.889 -24.459  0.00  0.00     0.019 A 
ATOM     20  C   UNL d   1      31.101  18.428 -24.714  0.00  0.00     0.002 A 
ATOM     21  C   UNL d   1      30.320  18.189 -24.806  0.00  0.00     0.000 A 
ATOM     22  C   UNL d   1      30.116  17.399 -24.639  0.00  0.00     0.000 A 
ATOM     23  C   UNL d   1      30.685  16.864 -24.386  0.00  0.00     0.000 A 
ATOM     24  C   UNL d   1      31.468  17.113 -24.296  0.00  0.00     0.002 A 
ENDBRANCH  18  19
ENDBRANCH   1  18
TORSDOF 5
ENDMDL
