MODEL 1
REMARK VINA RESULT:      -9.7      0.000      0.000
REMARK  5 active torsions:
REMARK  status: ('A' for Active; 'I' for Inactive)
REMARK    1  A    between atoms: C_2  and  S_1 
REMARK    2  A    between atoms: N_3  and  S_1 
REMARK    3  A    between atoms: C_10  and  N_3 
REMARK    4  A    between atoms: C_9  and  C_5 
REMARK    5  A    between atoms: O_14  and  C_8 
ROOT
ATOM      1  C   UNL d   1      52.977  32.870  53.377  0.00  0.00     0.127 A 
ATOM      2  C   UNL d   1      53.582  32.885  53.937  0.00  0.00     0.011 A 
ATOM      3  C   UNL d   1      53.793  33.595  54.297  0.00  0.00    -0.022 A 
ATOM      4  C   UNL d   1      52.589  33.565  53.182  0.00  0.00     0.106 A 
ATOM      5  C   UNL d   1      53.399  34.289  54.097  0.00  0.00    -0.002 A 
ATOM      6  C   UNL d   1      52.794  34.274  53.536  0.00  0.00     0.025 A 
ENDROOT
BRANCH   1   7
ATOM      7  S   UNL d   1      52.772  32.161  53.023  0.00  0.00     0.287 S 
ATOM      8  O   UNL d   1      53.426  32.226  52.527  0.00  0.00    -0.198 OA
ATOM      9  O   UNL d   1      52.122  32.091  53.512  0.00  0.00    -0.198 OA
BRANCH   7  10
ATOM     10  N   UNL d   1      52.571  31.448  52.662  0.00  0.00    -0.157 NA
BRANCH  10  11
ATOM     11  C   UNL d   1      52.726  30.737  53.046  0.00  0.00     0.113 A 
ATOM     12  C   UNL d   1      52.120  30.325  53.407  0.00  0.00     0.119 A 
ATOM     13  N   UNL d   1      52.276  29.614  53.792  0.00  0.00    -0.241 NA
ATOM     14  C   UNL d   1      53.050  29.312  53.814  0.00  0.00     0.099 A 
ATOM     15  C   UNL d   1      53.657  29.734  53.447  0.00  0.00     0.022 A 
ATOM     16  C   UNL d   1      53.501  30.445  53.063  0.00  0.00     0.023 A 
ENDBRANCH  10  11
ENDBRANCH   7  10
ENDBRANCH   1   7
BRANCH   4  17
ATOM     17  O   UNL d   1      51.984  33.550  52.622  0.00  0.00    -0.327 OA
ATOM     18  C   UNL d   1      51.585  34.244  52.425  0.00  0.00     0.181 C 
ENDBRANCH   4  17
BRANCH   3  19
ATOM     19  C   UNL d   1      54.398  33.610  54.858  0.00  0.00     0.019 C 
ATOM     20  C   UNL d   1      55.003  33.625  55.418  0.00  0.00     0.004 C 
ATOM     21  C   UNL d   1      54.957  33.662  54.253  0.00  0.00     0.004 C 
ATOM     22  C   UNL d   1      53.839  33.558  55.462  0.00  0.00     0.004 C 
ENDBRANCH   3  19
TORSDOF 5
ENDMDL
MODEL 2
REMARK VINA RESULT:      -9.3      1.035      2.196
REMARK  5 active torsions:
REMARK  status: ('A' for Active; 'I' for Inactive)
REMARK    1  A    between atoms: C_2  and  S_1 
REMARK    2  A    between atoms: N_3  and  S_1 
REMARK    3  A    between atoms: C_10  and  N_3 
REMARK    4  A    between atoms: C_9  and  C_5 
REMARK    5  A    between atoms: O_14  and  C_8 
ROOT
ATOM      1  C   UNL d   1      53.492  32.902  53.903  0.00  0.00     0.127 A 
ATOM      2  C   UNL d   1      52.808  33.115  53.494  0.00  0.00     0.011 A 
ATOM      3  C   UNL d   1      52.503  33.876  53.570  0.00  0.00    -0.022 A 
ATOM      4  C   UNL d   1      53.863  33.451  54.384  0.00  0.00     0.106 A 
ATOM      5  C   UNL d   1      52.881  34.423  54.054  0.00  0.00    -0.002 A 
ATOM      6  C   UNL d   1      53.565  34.210  54.464  0.00  0.00     0.025 A 
ENDROOT
BRANCH   1   7
ATOM      7  S   UNL d   1      53.790  32.143  53.823  0.00  0.00     0.287 S 
ATOM      8  O   UNL d   1      54.105  32.351  53.091  0.00  0.00    -0.198 OA
ATOM      9  O   UNL d   1      53.480  31.932  54.548  0.00  0.00    -0.198 OA
BRANCH   7  10
ATOM     10  N   UNL d   1      54.093  31.382  53.736  0.00  0.00    -0.157 NA
BRANCH  10  11
ATOM     11  C   UNL d   1      53.583  30.754  53.585  0.00  0.00     0.113 A 
ATOM     12  C   UNL d   1      53.375  30.242  54.186  0.00  0.00     0.119 A 
ATOM     13  N   UNL d   1      52.865  29.613  54.034  0.00  0.00    -0.241 NA
ATOM     14  C   UNL d   1      52.561  29.498  53.269  0.00  0.00     0.099 A 
ATOM     15  C   UNL d   1      52.777  30.020  52.668  0.00  0.00     0.022 A 
ATOM     16  C   UNL d   1      53.286  30.648  52.820  0.00  0.00     0.023 A 
ENDBRANCH  10  11
ENDBRANCH   7  10
ENDBRANCH   1   7
BRANCH   4  17
ATOM     17  O   UNL d   1      54.547  33.238  54.793  0.00  0.00    -0.327 OA
ATOM     18  C   UNL d   1      54.957  33.800  55.234  0.00  0.00     0.181 C 
ENDBRANCH   4  17
BRANCH   3  19
ATOM     19  C   UNL d   1      51.819  34.090  53.161  0.00  0.00     0.019 C 
ATOM     20  C   UNL d   1      51.135  34.304  52.752  0.00  0.00     0.004 C 
ATOM     21  C   UNL d   1      52.278  34.480  52.597  0.00  0.00     0.004 C 
ATOM     22  C   UNL d   1      51.360  33.700  53.725  0.00  0.00     0.004 C 
ENDBRANCH   3  19
TORSDOF 5
ENDMDL
MODEL 3
REMARK VINA RESULT:      -9.1      1.163      2.963
REMARK  5 active torsions:
REMARK  status: ('A' for Active; 'I' for Inactive)
REMARK    1  A    between atoms: C_2  and  S_1 
REMARK    2  A    between atoms: N_3  and  S_1 
REMARK    3  A    between atoms: C_10  and  N_3 
REMARK    4  A    between atoms: C_9  and  C_5 
REMARK    5  A    between atoms: O_14  and  C_8 
ROOT
ATOM      1  C   UNL d   1      53.004  32.175  53.354  0.00  0.00     0.127 A 
ATOM      2  C   UNL d   1      53.430  32.742  53.775  0.00  0.00     0.011 A 
ATOM      3  C   UNL d   1      54.084  32.518  54.223  0.00  0.00    -0.022 A 
ATOM      4  C   UNL d   1      53.238  31.390  53.384  0.00  0.00     0.106 A 
ATOM      5  C   UNL d   1      54.312  31.729  54.249  0.00  0.00    -0.002 A 
ATOM      6  C   UNL d   1      53.887  31.161  53.827  0.00  0.00     0.025 A 
ENDROOT
BRANCH   1   7
ATOM      7  S   UNL d   1      52.355  32.404  52.911  0.00  0.00     0.287 S 
ATOM      8  O   UNL d   1      52.860  32.639  52.304  0.00  0.00    -0.198 OA
ATOM      9  O   UNL d   1      51.851  32.172  53.509  0.00  0.00    -0.198 OA
BRANCH   7  10
ATOM     10  N   UNL d   1      51.706  32.636  52.459  0.00  0.00    -0.157 NA
BRANCH  10  11
ATOM     11  C   UNL d   1      51.309  33.333  52.643  0.00  0.00     0.113 A 
ATOM     12  C   UNL d   1      50.691  33.324  53.177  0.00  0.00     0.119 A 
ATOM     13  N   UNL d   1      50.294  34.022  53.360  0.00  0.00    -0.241 NA
ATOM     14  C   UNL d   1      50.520  34.737  53.002  0.00  0.00     0.099 A 
ATOM     15  C   UNL d   1      51.145  34.737  52.464  0.00  0.00     0.022 A 
ATOM     16  C   UNL d   1      51.542  34.040  52.281  0.00  0.00     0.023 A 
ENDBRANCH  10  11
ENDBRANCH   7  10
ENDBRANCH   1   7
BRANCH   4  17
ATOM     17  O   UNL d   1      52.812  30.823  52.962  0.00  0.00    -0.327 OA
ATOM     18  C   UNL d   1      53.000  30.024  53.040  0.00  0.00     0.181 C 
ENDBRANCH   4  17
BRANCH   3  19
ATOM     19  C   UNL d   1      54.509  33.086  54.644  0.00  0.00     0.019 C 
ATOM     20  C   UNL d   1      54.935  33.653  55.066  0.00  0.00     0.004 C 
ATOM     21  C   UNL d   1      54.045  32.939  55.310  0.00  0.00     0.004 C 
ATOM     22  C   UNL d   1      54.974  33.232  53.979  0.00  0.00     0.004 C 
ENDBRANCH   3  19
TORSDOF 5
ENDMDL
MODEL 4
REMARK VINA RESULT:      -8.9      1.537      3.561
REMARK  5 active torsions:
REMARK  status: ('A' for Active; 'I' for Inactive)
REMARK    1  A    between atoms: C_2  and  S_1 
REMARK    2  A    between atoms: N_3  and  S_1 
REMARK    3  A    between atoms: C_10  and  N_3 
REMARK    4  A    between atoms: C_9  and  C_5 
REMARK    5  A    between atoms: O_14  and  C_8 
ROOT
ATOM      1  C   UNL d   1      53.136  32.961  53.732  0.00  0.00     0.127 A 
ATOM      2  C   UNL d   1      52.923  32.251  53.368  0.00  0.00     0.011 A 
ATOM      3  C   UNL d   1      53.302  31.551  53.578  0.00  0.00    -0.022 A 
ATOM      4  C   UNL d   1      53.724  32.962  54.302  0.00  0.00     0.106 A 
ATOM      5  C   UNL d   1      53.891  31.559  54.152  0.00  0.00    -0.002 A 
ATOM      6  C   UNL d   1      54.103  32.268  54.516  0.00  0.00     0.025 A 
ENDROOT
BRANCH   1   7
ATOM      7  S   UNL d   1      52.756  33.654  53.518  0.00  0.00     0.287 S 
ATOM      8  O   UNL d   1      53.285  33.744  52.894  0.00  0.00    -0.198 OA
ATOM      9  O   UNL d   1      52.229  33.569  54.136  0.00  0.00    -0.198 OA
BRANCH   7  10
ATOM     10  N   UNL d   1      52.379  34.352  53.298  0.00  0.00    -0.157 NA
BRANCH  10  11
ATOM     11  C   UNL d   1      51.682  34.321  52.860  0.00  0.00     0.113 A 
ATOM     12  C   UNL d   1      51.713  34.253  52.047  0.00  0.00     0.119 A 
ATOM     13  N   UNL d   1      51.016  34.221  51.609  0.00  0.00    -0.241 NA
ATOM     14  C   UNL d   1      50.280  34.258  51.993  0.00  0.00     0.099 A 
ATOM     15  C   UNL d   1      50.258  34.327  52.815  0.00  0.00     0.022 A 
ATOM     16  C   UNL d   1      50.954  34.358  53.252  0.00  0.00     0.023 A 
ENDBRANCH  10  11
ENDBRANCH   7  10
ENDBRANCH   1   7
BRANCH   4  17
ATOM     17  O   UNL d   1      53.936  33.671  54.667  0.00  0.00    -0.327 OA
ATOM     18  C   UNL d   1      54.587  33.698  55.171  0.00  0.00     0.181 C 
ENDBRANCH   4  17
BRANCH   3  19
ATOM     19  C   UNL d   1      53.089  30.842  53.214  0.00  0.00     0.019 C 
ATOM     20  C   UNL d   1      52.877  30.133  52.850  0.00  0.00     0.004 C 
ATOM     21  C   UNL d   1      52.364  30.857  53.607  0.00  0.00     0.004 C 
ATOM     22  C   UNL d   1      53.814  30.827  52.821  0.00  0.00     0.004 C 
ENDBRANCH   3  19
TORSDOF 5
ENDMDL
MODEL 5
REMARK VINA RESULT:      -8.2      1.447      3.447
REMARK  5 active torsions:
REMARK  status: ('A' for Active; 'I' for Inactive)
REMARK    1  A    between atoms: C_2  and  S_1 
REMARK    2  A    between atoms: N_3  and  S_1 
REMARK    3  A    between atoms: C_10  and  N_3 
REMARK    4  A    between atoms: C_9  and  C_5 
REMARK    5  A    between atoms: O_14  and  C_8 
ROOT
ATOM      1  C   UNL d   1      53.020  32.411  53.378  0.00  0.00     0.127 A 
ATOM      2  C   UNL d   1      52.599  33.119  53.339  0.00  0.00     0.011 A 
ATOM      3  C   UNL d   1      51.855  33.137  52.987  0.00  0.00    -0.022 A 
ATOM      4  C   UNL d   1      52.692  31.728  53.064  0.00  0.00     0.106 A 
ATOM      5  C   UNL d   1      51.531  32.449  52.675  0.00  0.00    -0.002 A 
ATOM      6  C   UNL d   1      51.952  31.740  52.714  0.00  0.00     0.025 A 
ENDROOT
BRANCH   1   7
ATOM      7  S   UNL d   1      53.759  32.399  53.728  0.00  0.00     0.287 S 
ATOM      8  O   UNL d   1      54.088  32.689  53.031  0.00  0.00    -0.198 OA
ATOM      9  O   UNL d   1      53.439  32.111  54.422  0.00  0.00    -0.198 OA
BRANCH   7  10
ATOM     10  N   UNL d   1      54.507  32.390  54.075  0.00  0.00    -0.157 NA
BRANCH  10  11
ATOM     11  C   UNL d   1      54.735  33.005  54.572  0.00  0.00     0.113 A 
ATOM     12  C   UNL d   1      55.220  33.598  54.292  0.00  0.00     0.119 A 
ATOM     13  N   UNL d   1      55.449  34.214  54.790  0.00  0.00    -0.241 NA
ATOM     14  C   UNL d   1      55.185  34.233  55.578  0.00  0.00     0.099 A 
ATOM     15  C   UNL d   1      54.695  33.629  55.852  0.00  0.00     0.022 A 
ATOM     16  C   UNL d   1      54.467  33.014  55.355  0.00  0.00     0.023 A 
ENDBRANCH  10  11
ENDBRANCH   7  10
ENDBRANCH   1   7
BRANCH   4  17
ATOM     17  O   UNL d   1      53.113  31.020  53.103  0.00  0.00    -0.327 OA
ATOM     18  C   UNL d   1      52.759  30.316  52.861  0.00  0.00     0.181 C 
ENDBRANCH   4  17
BRANCH   3  19
ATOM     19  C   UNL d   1      51.434  33.846  52.948  0.00  0.00     0.019 C 
ATOM     20  C   UNL d   1      51.013  34.554  52.909  0.00  0.00     0.004 C 
ATOM     21  C   UNL d   1      51.001  33.626  53.616  0.00  0.00     0.004 C 
ATOM     22  C   UNL d   1      51.866  34.066  52.281  0.00  0.00     0.004 C 
ENDBRANCH   3  19
TORSDOF 5
ENDMDL
MODEL 6
REMARK VINA RESULT:      -7.1      1.434      3.325
REMARK  5 active torsions:
REMARK  status: ('A' for Active; 'I' for Inactive)
REMARK    1  A    between atoms: C_2  and  S_1 
REMARK    2  A    between atoms: N_3  and  S_1 
REMARK    3  A    between atoms: C_10  and  N_3 
REMARK    4  A    between atoms: C_9  and  C_5 
REMARK    5  A    between atoms: O_14  and  C_8 
ROOT
ATOM      1  C   UNL d   1      52.847  32.565  53.391  0.00  0.00     0.127 A 
ATOM      2  C   UNL d   1      53.216  31.835  53.499  0.00  0.00     0.011 A 
ATOM      3  C   UNL d   1      52.828  31.141  53.286  0.00  0.00    -0.022 A 
ATOM      4  C   UNL d   1      52.093  32.593  53.070  0.00  0.00     0.106 A 
ATOM      5  C   UNL d   1      52.071  31.177  52.964  0.00  0.00    -0.002 A 
ATOM      6  C   UNL d   1      51.702  31.907  52.856  0.00  0.00     0.025 A 
ENDROOT
BRANCH   1   7
ATOM      7  S   UNL d   1      53.238  33.251  53.606  0.00  0.00     0.287 S 
ATOM      8  O   UNL d   1      53.688  33.202  52.917  0.00  0.00    -0.198 OA
ATOM      9  O   UNL d   1      52.795  33.305  54.289  0.00  0.00    -0.198 OA
BRANCH   7  10
ATOM     10  N   UNL d   1      53.636  33.942  53.815  0.00  0.00    -0.157 NA
BRANCH  10  11
ATOM     11  C   UNL d   1      54.198  33.924  54.416  0.00  0.00     0.113 A 
ATOM     12  C   UNL d   1      53.984  34.103  55.183  0.00  0.00     0.119 A 
ATOM     13  N   UNL d   1      54.548  34.085  55.784  0.00  0.00    -0.241 NA
ATOM     14  C   UNL d   1      55.335  33.883  55.611  0.00  0.00     0.099 A 
ATOM     15  C   UNL d   1      55.543  33.703  54.833  0.00  0.00     0.022 A 
ATOM     16  C   UNL d   1      54.980  33.721  54.233  0.00  0.00     0.023 A 
ENDBRANCH  10  11
ENDBRANCH   7  10
ENDBRANCH   1   7
BRANCH   4  17
ATOM     17  O   UNL d   1      51.724  33.323  52.962  0.00  0.00    -0.327 OA
ATOM     18  C   UNL d   1      50.940  33.356  52.710  0.00  0.00     0.181 C 
ENDBRANCH   4  17
BRANCH   3  19
ATOM     19  C   UNL d   1      53.197  30.412  53.394  0.00  0.00     0.019 C 
ATOM     20  C   UNL d   1      53.566  29.682  53.502  0.00  0.00     0.004 C 
ATOM     21  C   UNL d   1      53.045  30.455  54.204  0.00  0.00     0.004 C 
ATOM     22  C   UNL d   1      53.349  30.368  52.584  0.00  0.00     0.004 C 
ENDBRANCH   3  19
TORSDOF 5
ENDMDL
