MODEL 1
REMARK VINA RESULT:      22.5      0.000      0.000
REMARK  4 active torsions:
REMARK  status: ('A' for Active; 'I' for Inactive)
REMARK    1  A    between atoms: N_2  and  C_1 
REMARK    2  A    between atoms: N_11  and  C_6 
REMARK    3  A    between atoms: C_13  and  N_11 
REMARK    4  A    between atoms: O_20  and  C_14 
ROOT
ATOM      1  C   UNL d   1      45.631 -14.979  44.716  0.00  0.00     0.752 A 
ATOM      2  N   UNL d   1      46.214 -15.564  44.693  0.00  0.00    -0.040 NA
ATOM      3  C   UNL d   1      46.007 -16.357  44.756  0.00  0.00     0.182 A 
ATOM      4  N   UNL d   1      44.838 -15.196  44.804  0.00  0.00    -0.059 NA
ATOM      5  C   UNL d   1      45.214 -16.574  44.843  0.00  0.00     0.059 A 
ATOM      6  C   UNL d   1      44.627 -15.992  44.867  0.00  0.00     0.103 A 
ATOM      7  C   UNL d   1      43.835 -16.209  44.955  0.00  0.00     0.021 C 
ENDROOT
BRANCH   3   8
ATOM      8  N   UNL d   1      46.587 -16.939  44.733  0.00  0.00    -0.226 NA
BRANCH   8   9
ATOM      9  C   UNL d   1      46.470 -17.635  44.298  0.00  0.00     0.083 A 
ATOM     10  C   UNL d   1      46.491 -17.598  43.469  0.00  0.00     0.021 A 
ATOM     11  C   UNL d   1      46.373 -18.297  43.036  0.00  0.00     0.026 A 
ATOM     12  C   UNL d   1      46.237 -19.010  43.422  0.00  0.00     0.094 A 
ATOM     13  C   UNL d   1      46.218 -19.034  44.248  0.00  0.00     0.026 A 
ATOM     14  C   UNL d   1      46.334 -18.345  44.688  0.00  0.00     0.021 A 
BRANCH  12  15
ATOM     15  O   UNL d   1      46.122 -19.694  42.990  0.00  0.00    -0.328 OA
ATOM     16  C   UNL d   1      46.270 -19.701  42.183  0.00  0.00     0.181 C 
ENDBRANCH  12  15
ENDBRANCH   8   9
ENDBRANCH   3   8
BRANCH   1  17
ATOM     17  N   UNL d   1      45.807 -14.262  44.660  0.00  0.00    -0.058 N 
ATOM     18  N   UNL d   1      46.598 -13.272  44.955  0.00  0.00    -0.151 NA
ATOM     19  C   UNL d   1      46.160 -12.807  44.543  0.00  0.00     0.103 A 
ATOM     20  C   UNL d   1      46.337 -12.083  44.486  0.00  0.00     0.022 C 
ATOM     21  C   UNL d   1      45.554 -13.079  44.198  0.00  0.00     0.041 A 
ATOM     22  C   UNL d   1      45.374 -13.801  44.253  0.00  0.00     0.102 A 
ATOM     23  C   UNL d   1      44.763 -14.073  43.904  0.00  0.00     0.021 C 
ENDBRANCH   1  17
TORSDOF 4
ENDMDL
MODEL 2
REMARK VINA RESULT:      25.1      1.885      4.649
REMARK  4 active torsions:
REMARK  status: ('A' for Active; 'I' for Inactive)
REMARK    1  A    between atoms: N_2  and  C_1 
REMARK    2  A    between atoms: N_11  and  C_6 
REMARK    3  A    between atoms: C_13  and  N_11 
REMARK    4  A    between atoms: O_20  and  C_14 
ROOT
ATOM      1  C   UNL d   1      45.702 -17.204  43.902  0.00  0.00     0.752 A 
ATOM      2  N   UNL d   1      46.203 -16.558  44.024  0.00  0.00    -0.040 NA
ATOM      3  C   UNL d   1      45.942 -15.907  44.452  0.00  0.00     0.182 A 
ATOM      4  N   UNL d   1      44.937 -17.192  44.214  0.00  0.00    -0.059 NA
ATOM      5  C   UNL d   1      45.176 -15.895  44.763  0.00  0.00     0.059 A 
ATOM      6  C   UNL d   1      44.671 -16.539  44.644  0.00  0.00     0.103 A 
ATOM      7  C   UNL d   1      43.906 -16.527  44.955  0.00  0.00     0.021 C 
ENDROOT
BRANCH   3   8
ATOM      8  N   UNL d   1      46.440 -15.265  44.573  0.00  0.00    -0.226 NA
BRANCH   8   9
ATOM      9  C   UNL d   1      46.191 -14.497  44.385  0.00  0.00     0.083 A 
ATOM     10  C   UNL d   1      45.889 -14.348  43.626  0.00  0.00     0.021 A 
ATOM     11  C   UNL d   1      45.640 -13.577  43.440  0.00  0.00     0.026 A 
ATOM     12  C   UNL d   1      45.693 -12.975  43.998  0.00  0.00     0.094 A 
ATOM     13  C   UNL d   1      45.996 -13.136  44.750  0.00  0.00     0.026 A 
ATOM     14  C   UNL d   1      46.246 -13.898  44.945  0.00  0.00     0.021 A 
BRANCH  12  15
ATOM     15  O   UNL d   1      45.447 -12.219  43.808  0.00  0.00    -0.328 OA
ATOM     16  C   UNL d   1      45.049 -12.080  43.105  0.00  0.00     0.181 C 
ENDBRANCH  12  15
ENDBRANCH   8   9
ENDBRANCH   3   8
BRANCH   1  17
ATOM     17  N   UNL d   1      45.929 -17.796  43.518  0.00  0.00    -0.058 N 
ATOM     18  N   UNL d   1      45.942 -18.481  42.413  0.00  0.00    -0.151 NA
ATOM     19  C   UNL d   1      46.391 -18.997  42.743  0.00  0.00     0.103 A 
ATOM     20  C   UNL d   1      46.620 -19.594  42.357  0.00  0.00     0.022 C 
ATOM     21  C   UNL d   1      46.600 -18.902  43.456  0.00  0.00     0.041 A 
ATOM     22  C   UNL d   1      46.374 -18.307  43.845  0.00  0.00     0.102 A 
ATOM     23  C   UNL d   1      46.586 -18.212  44.563  0.00  0.00     0.021 C 
ENDBRANCH   1  17
TORSDOF 4
ENDMDL
