MODEL 1
REMARK VINA RESULT:      -3.7      0.000      0.000
REMARK  3 active torsions:
REMARK  status: ('A' for Active; 'I' for Inactive)
REMARK    1  A    between atoms: C_4  and  C_1 
REMARK       I    between atoms: N_8  and  C_4 
REMARK    2  A    between atoms: C_15  and  C_11 
REMARK    3  A    between atoms: C_12  and  C_15 
ROOT
ATOM      1  C   UNL d   1     -41.692-122.535 -51.206  0.00  0.00     0.120 A 
ATOM      2  C   UNL d   1     -42.013-121.882 -51.603  0.00  0.00     0.305 A 
ATOM      3  O   UNL d   1     -42.037-121.873 -52.441  0.00  0.00    -0.273 OA
ATOM      4  C   UNL d   1     -41.391-123.188 -51.637  0.00  0.00     0.012 A 
ATOM      5  C   UNL d   1     -41.744-122.510 -52.867  0.00  0.00     0.103 A 
ATOM      6  C   UNL d   1     -41.419-123.170 -52.465  0.00  0.00     0.023 A 
ATOM      7  O   UNL d   1     -42.308-121.240 -51.178  0.00  0.00    -0.259 OA
ATOM      8  C   UNL d   1     -41.763-122.512 -53.698  0.00  0.00     0.023 A 
ATOM      9  C   UNL d   1     -41.123-123.814 -52.898  0.00  0.00     0.002 A 
ATOM     10  C   UNL d   1     -41.150-123.800 -53.725  0.00  0.00     0.000 A 
ATOM     11  C   UNL d   1     -41.468-123.153 -54.123  0.00  0.00     0.002 A 
ENDROOT
BRANCH   1  12
ATOM     12  C   UNL d   1     -41.668-122.543 -50.383  0.00  0.00     0.270 C 
ATOM     13  N   UNL d   1     -42.152-123.055 -49.957  0.00  0.00    -0.269 N 
ATOM     14  C   UNL d   1     -42.129-123.063 -49.133  0.00  0.00     0.102 C 
ATOM     15  C   UNL d   1     -42.663-123.561 -50.361  0.00  0.00     0.102 C 
ATOM     16  O   UNL d   1     -41.158-122.037 -49.979  0.00  0.00    -0.266 OA
ENDBRANCH   1  12
BRANCH   8  17
ATOM     17  C   UNL d   1     -42.082-121.863 -54.097  0.00  0.00     0.002 C 
BRANCH  17  18
ATOM     18  C   UNL d   1     -42.089-121.848 -54.921  0.00  0.00     0.000 C 
ATOM     19  C   UNL d   1     -42.503-121.257 -55.319  0.00  0.00     0.000 C 
ENDBRANCH  17  18
ENDBRANCH   8  17
TORSDOF 3
ENDMDL
MODEL 2
REMARK VINA RESULT:      -3.5      1.651      3.864
REMARK  3 active torsions:
REMARK  status: ('A' for Active; 'I' for Inactive)
REMARK    1  A    between atoms: C_4  and  C_1 
REMARK       I    between atoms: N_8  and  C_4 
REMARK    2  A    between atoms: C_15  and  C_11 
REMARK    3  A    between atoms: C_12  and  C_15 
ROOT
ATOM      1  C   UNL d   1     -41.657-122.415 -53.748  0.00  0.00     0.120 A 
ATOM      2  C   UNL d   1     -41.742-123.171 -53.418  0.00  0.00     0.305 A 
ATOM      3  O   UNL d   1     -41.650-123.278 -52.592  0.00  0.00    -0.273 OA
ATOM      4  C   UNL d   1     -41.479-121.757 -53.261  0.00  0.00     0.012 A 
ATOM      5  C   UNL d   1     -41.475-122.636 -52.111  0.00  0.00     0.103 A 
ATOM      6  C   UNL d   1     -41.390-121.873 -52.445  0.00  0.00     0.023 A 
ATOM      7  O   UNL d   1     -41.916-123.818 -53.898  0.00  0.00    -0.259 OA
ATOM      8  C   UNL d   1     -41.382-122.732 -51.290  0.00  0.00     0.023 A 
ATOM      9  C   UNL d   1     -41.213-121.224 -51.957  0.00  0.00     0.002 A 
ATOM     10  C   UNL d   1     -41.123-121.336 -51.142  0.00  0.00     0.000 A 
ATOM     11  C   UNL d   1     -41.207-122.085 -50.810  0.00  0.00     0.002 A 
ENDROOT
BRANCH   1  12
ATOM     12  C   UNL d   1     -41.747-122.310 -54.560  0.00  0.00     0.270 C 
ATOM     13  N   UNL d   1     -42.424-121.949 -54.861  0.00  0.00    -0.269 N 
ATOM     14  C   UNL d   1     -42.515-121.844 -55.673  0.00  0.00     0.102 C 
ATOM     15  C   UNL d   1     -43.012-121.693 -54.342  0.00  0.00     0.102 C 
ATOM     16  O   UNL d   1     -41.160-122.566 -55.078  0.00  0.00    -0.266 OA
ENDBRANCH   1  12
BRANCH   8  17
ATOM     17  C   UNL d   1     -41.466-123.483 -50.958  0.00  0.00     0.002 C 
BRANCH  17  18
ATOM     18  C   UNL d   1     -41.414-123.581 -50.142  0.00  0.00     0.000 C 
ATOM     19  C   UNL d   1     -42.076-123.817 -49.711  0.00  0.00     0.000 C 
ENDBRANCH  17  18
ENDBRANCH   8  17
TORSDOF 3
ENDMDL
