MODEL 1
REMARK VINA RESULT:      57.1      0.000      0.000
REMARK  4 active torsions:
REMARK  status: ('A' for Active; 'I' for Inactive)
REMARK    1  A    between atoms: N_2  and  C_1 
REMARK    2  A    between atoms: C_16  and  N_6 
REMARK    3  A    between atoms: C_14  and  C_7 
REMARK    4  A    between atoms: N_8  and  C_12 
ROOT
ATOM      1  N   UNL d   1      45.989 -17.659  43.722  0.00  0.00    -0.288 N 
ATOM      2  C   UNL d   1      45.931 -17.890  42.955  0.00  0.00     0.196 A 
ATOM      3  S   UNL d   1      46.337 -18.601  42.859  0.00  0.00    -0.092 SA
ATOM      4  C   UNL d   1      46.428 -18.209  44.133  0.00  0.00     0.268 A 
ATOM      5  C   UNL d   1      46.646 -18.794  43.605  0.00  0.00     0.093 A 
ATOM      6  O   UNL d   1      46.627 -18.189  44.953  0.00  0.00    -0.266 OA
ENDROOT
BRANCH   1   7
ATOM      7  C   UNL d   1      45.632 -16.956  43.986  0.00  0.00     0.139 A 
ATOM      8  C   UNL d   1      45.942 -16.197  43.838  0.00  0.00     0.296 A 
ATOM      9  N   UNL d   1      45.431 -15.632  44.189  0.00  0.00    -0.209 N 
ATOM     10  O   UNL d   1      46.647 -16.064  43.409  0.00  0.00    -0.264 OA
ATOM     11  N   UNL d   1      44.816 -16.036  44.546  0.00  0.00    -0.238 N 
ATOM     12  C   UNL d   1      44.939 -16.858  44.421  0.00  0.00     0.102 A 
ATOM     13  C   UNL d   1      44.190 -15.714  44.954  0.00  0.00     0.120 C 
ATOM     14  C   UNL d   1      44.443 -17.459  44.693  0.00  0.00     0.022 C 
BRANCH   9  15
ATOM     15  C   UNL d   1      45.454 -14.811  44.224  0.00  0.00     0.085 A 
ATOM     16  C   UNL d   1      45.111 -14.356  43.651  0.00  0.00     0.019 A 
ATOM     17  C   UNL d   1      45.134 -13.535  43.685  0.00  0.00     0.002 A 
ATOM     18  C   UNL d   1      45.514 -13.166  44.313  0.00  0.00     0.000 A 
ATOM     19  C   UNL d   1      45.860 -13.615  44.890  0.00  0.00     0.002 A 
ATOM     20  C   UNL d   1      45.845 -14.446  44.869  0.00  0.00     0.019 A 
ENDBRANCH   9  15
ENDBRANCH   1   7
BRANCH   2  21
ATOM     21  C   UNL d   1      45.831 -18.064  42.154  0.00  0.00    -0.001 A 
ATOM     22  C   UNL d   1      46.445 -18.432  41.726  0.00  0.00    -0.001 A 
ATOM     23  C   UNL d   1      46.341 -18.608  40.916  0.00  0.00     0.023 A 
ATOM     24  C   UNL d   1      45.634 -18.417  40.544  0.00  0.00     0.127 A 
ATOM     25  C   UNL d   1      45.025 -18.051  40.971  0.00  0.00     0.023 A 
ATOM     26  C   UNL d   1      45.128 -17.876  41.781  0.00  0.00    -0.001 A 
BRANCH  24  27
ATOM     27  N   UNL d   1      45.549 -18.595  39.754  0.00  0.00    -0.114 N 
ATOM     28  O   UNL d   1      45.734 -19.330  39.424  0.00  0.00    -0.532 OA
ATOM     29  O   UNL d   1      45.271 -18.081  39.176  0.00  0.00    -0.532 OA
ENDBRANCH  24  27
ENDBRANCH   2  21
TORSDOF 4
ENDMDL
