MODEL 1
REMARK VINA RESULT:      -1.4      0.000      0.000
REMARK  9 active torsions:
REMARK  status: ('A' for Active; 'I' for Inactive)
REMARK    1  A    between atoms: C_19  and  N_1 
REMARK    2  A    between atoms: S_15  and  C_2 
REMARK    3  A    between atoms: C_7  and  C_10 
REMARK       I    between atoms: N_12  and  C_7 
REMARK    4  A    between atoms: C_20  and  N_12 
REMARK    5  A    between atoms: C_22  and  S_15 
REMARK    6  A    between atoms: C_24  and  C_19 
REMARK    7  A    between atoms: C_21  and  C_20 
REMARK    8  A    between atoms: C_27  and  C_24 
REMARK    9  A    between atoms: C_26  and  C_27 
ROOT
ATOM      1  N   UNL d   1      32.003  21.559 -20.360  0.00  0.00    -0.195 NA
ATOM      2  C   UNL d   1      32.139  20.981 -20.934  0.00  0.00     0.086 C 
ATOM      3  C   UNL d   1      32.274  20.404 -21.506  0.00  0.00     0.170 C 
ENDROOT
BRANCH   3   4
ATOM      4  S   UNL d   1      32.737  20.575 -22.161  0.00  0.00    -0.060 SA
BRANCH   4   5
ATOM      5  C   UNL d   1      32.709  20.072 -22.840  0.00  0.00     0.178 A 
ATOM      6  N   UNL d   1      32.959  20.351 -23.576  0.00  0.00    -0.253 N 
ATOM      7  C   UNL d   1      32.930  19.861 -24.235  0.00  0.00     0.268 A 
ATOM      8  C   UNL d   1      32.647  19.080 -24.154  0.00  0.00     0.074 A 
ATOM      9  O   UNL d   1      33.179  20.133 -24.974  0.00  0.00    -0.267 OA
ATOM     10  C   UNL d   1      32.400  18.804 -23.426  0.00  0.00     0.088 A 
ATOM     11  C   UNL d   1      32.619  18.586 -24.816  0.00  0.00     0.006 A 
ATOM     12  C   UNL d   1      32.121  18.031 -23.351  0.00  0.00     0.024 A 
ATOM     13  N   UNL d   1      32.429  19.297 -22.767  0.00  0.00    -0.222 NA
ATOM     14  C   UNL d   1      32.092  17.540 -24.009  0.00  0.00     0.059 A 
ATOM     15  C   UNL d   1      32.340  17.816 -24.738  0.00  0.00     0.005 A 
BRANCH   6  16
ATOM     16  C   UNL d   1      33.241  21.137 -23.646  0.00  0.00     0.085 C 
BRANCH  16  17
ATOM     17  C   UNL d   1      33.029  21.575 -24.313  0.00  0.00     0.019 C 
BRANCH  17  18
ATOM     18  C   UNL d   1      33.191  22.393 -24.323  0.00  0.00     0.002 C 
BRANCH  18  19
ATOM     19  C   UNL d   1      32.866  22.866 -24.933  0.00  0.00     0.000 C 
ATOM     20  C   UNL d   1      32.918  23.682 -24.874  0.00  0.00     0.000 C 
ENDBRANCH  18  19
ENDBRANCH  17  18
ENDBRANCH  16  17
ENDBRANCH   6  16
BRANCH  14  21
ATOM     21  C   UNL d   1      31.814  16.768 -23.934  0.00  0.00     0.279 C 
ATOM     22  N   UNL d   1      31.010  16.622 -23.834  0.00  0.00    -0.204 NA
ATOM     23  O   UNL d   1      32.342  16.134 -23.958  0.00  0.00    -0.265 OA
BRANCH  22  24
ATOM     24  C   UNL d   1      30.731  15.846 -23.759  0.00  0.00     0.127 C 
BRANCH  24  25
ATOM     25  C   UNL d   1      29.914  15.703 -23.708  0.00  0.00     0.119 A 
ATOM     26  O   UNL d   1      29.408  15.572 -24.343  0.00  0.00    -0.304 OA
ATOM     27  C   UNL d   1      28.646  15.453 -24.043  0.00  0.00     0.123 A 
ATOM     28  C   UNL d   1      28.689  15.512 -23.218  0.00  0.00     0.029 A 
ATOM     29  C   UNL d   1      29.469  15.666 -23.016  0.00  0.00     0.028 A 
ENDBRANCH  24  25
ENDBRANCH  22  24
ENDBRANCH  14  21
ENDBRANCH   4   5
ENDBRANCH   3   4
TORSDOF 9
ENDMDL
