MODEL 1
REMARK VINA RESULT:      41.2      0.000      0.000
REMARK  4 active torsions:
REMARK  status: ('A' for Active; 'I' for Inactive)
REMARK    1  A    between atoms: N_7  and  C_2 
REMARK    2  A    between atoms: C_5  and  C_10 
REMARK    3  A    between atoms: N_6  and  N_7 
REMARK    4  A    between atoms: C_10  and  N_6 
ROOT
ATOM      1  C   UNL d   1      61.133  49.193  50.537  0.00  0.00     0.125 C 
ENDROOT
BRANCH   1   2
ATOM      2  C   UNL d   1      60.440  49.366  50.974  0.00  0.00     0.060 A 
ATOM      3  C   UNL d   1      60.493  49.532  51.786  0.00  0.00     0.197 A 
ATOM      4  C   UNL d   1      59.800  49.704  52.218  0.00  0.00     0.043 A 
ATOM      5  O   UNL d   1      61.215  49.532  52.179  0.00  0.00    -0.286 OA
ATOM      6  C   UNL d   1      59.075  49.707  51.841  0.00  0.00     0.010 A 
ATOM      7  C   UNL d   1      59.031  49.541  51.035  0.00  0.00     0.035 A 
ATOM      8  C   UNL d   1      59.699  49.370  50.591  0.00  0.00     0.011 A 
ATOM      9 BR   UNL d   1      58.283  49.543  50.638  0.00  0.00    -0.049 Br
ENDBRANCH   1   2
BRANCH   1  10
ATOM     10  N   UNL d   1      61.233  48.454  50.144  0.00  0.00    -0.144 NA
BRANCH  10  11
ATOM     11  N   UNL d   1      61.788  47.927  50.395  0.00  0.00    -0.121 NA
BRANCH  11  12
ATOM     12  C   UNL d   1      61.822  47.170  50.059  0.00  0.00     0.217 A 
ATOM     13  N   UNL d   1      62.325  46.836  49.529  0.00  0.00    -0.181 NA
ATOM     14  C   UNL d   1      62.085  46.084  49.410  0.00  0.00     0.288 A 
ATOM     15  O   UNL d   1      62.445  45.540  48.906  0.00  0.00    -0.265 OA
ATOM     16  C   UNL d   1      61.443  45.920  49.845  0.00  0.00     0.101 A 
ATOM     17  S   UNL d   1      61.254  46.601  50.272  0.00  0.00    -0.041 SA
ENDBRANCH  11  12
ENDBRANCH  10  11
ENDBRANCH   1  10
TORSDOF 4
ENDMDL
