MODEL 1
REMARK VINA RESULT:      31.5      0.000      0.000
REMARK  3 active torsions:
REMARK  status: ('A' for Active; 'I' for Inactive)
REMARK    1  A    between atoms: N_10  and  C_3 
REMARK    2  A    between atoms: C_11  and  C_4 
REMARK    3  A    between atoms: C_12  and  N_10 
ROOT
ATOM      1  C   UNL d   1      45.382 -14.911  44.464  0.00  0.00     0.167 A 
ATOM      2  N   UNL d   1      45.883 -15.560  44.588  0.00  0.00    -0.195 N 
ATOM      3  C   UNL d   1      45.567 -16.279  44.831  0.00  0.00     0.167 A 
ATOM      4  C   UNL d   1      45.847 -14.283  44.229  0.00  0.00     0.057 A 
ATOM      5  N   UNL d   1      46.645 -15.317  44.427  0.00  0.00    -0.161 NA
ATOM      6  N   UNL d   1      44.574 -14.992  44.584  0.00  0.00    -0.227 NA
ATOM      7  C   UNL d   1      44.750 -16.353  44.950  0.00  0.00     0.058 A 
ATOM      8  C   UNL d   1      46.631 -14.541  44.208  0.00  0.00     0.124 A 
ATOM      9  C   UNL d   1      44.260 -15.719  44.829  0.00  0.00     0.086 A 
ATOM     10  C   UNL d   1      43.444 -15.810  44.953  0.00  0.00     0.021 C 
ENDROOT
BRANCH   3  11
ATOM     11  N   UNL d   1      46.067 -16.927  44.955  0.00  0.00    -0.227 NA
BRANCH  11  12
ATOM     12  C   UNL d   1      46.042 -17.566  44.439  0.00  0.00     0.083 A 
ATOM     13  C   UNL d   1      45.854 -17.621  43.639  0.00  0.00     0.019 A 
ATOM     14  C   UNL d   1      45.926 -18.411  43.416  0.00  0.00     0.002 A 
ATOM     15  C   UNL d   1      46.157 -18.846  44.068  0.00  0.00     0.002 A 
ATOM     16  C   UNL d   1      46.232 -18.330  44.710  0.00  0.00     0.019 A 
ENDBRANCH  11  12
ENDBRANCH   3  11
BRANCH   4  17
ATOM     17  C   UNL d   1      45.506 -13.549  44.061  0.00  0.00     0.004 A 
ATOM     18  C   UNL d   1      45.457 -12.978  44.641  0.00  0.00     0.000 A 
ATOM     19  C   UNL d   1      45.115 -12.241  44.477  0.00  0.00     0.000 A 
ATOM     20  C   UNL d   1      44.822 -12.090  43.715  0.00  0.00     0.000 A 
ATOM     21  C   UNL d   1      44.875 -12.671  43.134  0.00  0.00     0.000 A 
ATOM     22  C   UNL d   1      45.213 -13.394  43.306  0.00  0.00     0.000 A 
ENDBRANCH   4  17
TORSDOF 3
ENDMDL
MODEL 2
REMARK VINA RESULT:      32.3      1.118      1.941
REMARK  3 active torsions:
REMARK  status: ('A' for Active; 'I' for Inactive)
REMARK    1  A    between atoms: N_10  and  C_3 
REMARK    2  A    between atoms: C_11  and  C_4 
REMARK    3  A    between atoms: C_12  and  N_10 
ROOT
ATOM      1  C   UNL d   1      45.781 -16.356  43.827  0.00  0.00     0.167 A 
ATOM      2  N   UNL d   1      46.202 -16.980  44.175  0.00  0.00    -0.195 N 
ATOM      3  C   UNL d   1      46.220 -17.715  43.808  0.00  0.00     0.167 A 
ATOM      4  C   UNL d   1      45.863 -15.704  44.312  0.00  0.00     0.057 A 
ATOM      5  N   UNL d   1      46.534 -16.697  44.865  0.00  0.00    -0.161 NA
ATOM      6  N   UNL d   1      45.384 -16.478  43.119  0.00  0.00    -0.227 NA
ATOM      7  C   UNL d   1      45.817 -17.831  43.093  0.00  0.00     0.058 A 
ATOM      8  C   UNL d   1      46.332 -15.922  44.955  0.00  0.00     0.124 A 
ATOM      9  C   UNL d   1      45.405 -17.220  42.753  0.00  0.00     0.086 A 
ATOM     10  C   UNL d   1      45.007 -17.353  42.036  0.00  0.00     0.021 C 
ENDROOT
BRANCH   3  11
ATOM     11  N   UNL d   1      46.641 -18.337  44.155  0.00  0.00    -0.227 NA
BRANCH  11  12
ATOM     12  C   UNL d   1      46.387 -19.111  44.047  0.00  0.00     0.083 A 
ATOM     13  C   UNL d   1      46.374 -19.600  43.383  0.00  0.00     0.019 A 
ATOM     14  C   UNL d   1      46.055 -20.325  43.610  0.00  0.00     0.002 A 
ATOM     15  C   UNL d   1      45.870 -20.292  44.405  0.00  0.00     0.002 A 
ATOM     16  C   UNL d   1      46.072 -19.541  44.687  0.00  0.00     0.019 A 
ENDBRANCH  11  12
ENDBRANCH   3  11
BRANCH   4  17
ATOM     17  C   UNL d   1      45.502 -14.987  44.112  0.00  0.00     0.004 A 
ATOM     18  C   UNL d   1      45.929 -14.406  43.731  0.00  0.00     0.000 A 
ATOM     19  C   UNL d   1      45.571 -13.686  43.530  0.00  0.00     0.000 A 
ATOM     20  C   UNL d   1      44.772 -13.563  43.721  0.00  0.00     0.000 A 
ATOM     21  C   UNL d   1      44.347 -14.153  44.106  0.00  0.00     0.000 A 
ATOM     22  C   UNL d   1      44.710 -14.859  44.300  0.00  0.00     0.000 A 
ENDBRANCH   4  17
TORSDOF 3
ENDMDL
