MODEL 1
REMARK VINA RESULT:      32.5      0.000      0.000
REMARK  3 active torsions:
REMARK  status: ('A' for Active; 'I' for Inactive)
REMARK    1  A    between atoms: C_8  and  C_2 
REMARK    2  A    between atoms: O_11  and  C_8 
REMARK    3  A    between atoms: C_12  and  O_11 
ROOT
ATOM      1  O   UNL d   1      12.848  12.388  -3.781  0.00  0.00    -0.302 OA
ENDROOT
BRANCH   1   2
ATOM      2  C   UNL d   1      13.347  11.789  -3.501  0.00  0.00     0.161 C 
BRANCH   2   3
ATOM      3  C   UNL d   1      13.584  11.787  -2.711  0.00  0.00     0.188 A 
ATOM      4  N   UNL d   1      13.065  11.783  -2.040  0.00  0.00    -0.224 NA
ATOM      5  C   UNL d   1      13.523  11.783  -1.375  0.00  0.00     0.101 A 
ATOM      6  C   UNL d   1      14.342  11.787  -1.620  0.00  0.00     0.101 A 
ATOM      7  C   UNL d   1      13.369  11.780  -0.555  0.00  0.00     0.021 A 
ATOM      8  C   UNL d   1      14.942  11.787  -1.055  0.00  0.00     0.021 A 
ATOM      9  N   UNL d   1      14.356  11.789  -2.427  0.00  0.00    -0.224 NA
ATOM     10  C   UNL d   1      14.752  11.784  -0.251  0.00  0.00     0.002 A 
ATOM     11  C   UNL d   1      13.961  11.781  -0.014  0.00  0.00     0.002 A 
ENDBRANCH   2   3
ENDBRANCH   1   2
BRANCH   1  12
ATOM     12  C   UNL d   1      13.145  12.900  -4.357  0.00  0.00     0.100 A 
ATOM     13  C   UNL d   1      13.160  13.698  -4.265  0.00  0.00     0.025 A 
ATOM     14  C   UNL d   1      13.463  14.186  -4.858  0.00  0.00     0.002 A 
ATOM     15  C   UNL d   1      13.469  15.024  -4.739  0.00  0.00     0.000 A 
ATOM     16  C   UNL d   1      13.750  13.876  -5.542  0.00  0.00     0.000 A 
ATOM     17  C   UNL d   1      13.771  15.512  -5.331  0.00  0.00     0.000 A 
ATOM     18  C   UNL d   1      14.079  15.180  -6.064  0.00  0.00     0.000 A 
ATOM     19  C   UNL d   1      14.053  14.364  -6.134  0.00  0.00     0.000 A 
ATOM     20  C   UNL d   1      13.745  13.034  -5.663  0.00  0.00     0.002 A 
ATOM     21  C   UNL d   1      13.443  12.546  -5.071  0.00  0.00     0.025 A 
ENDBRANCH   1  12
TORSDOF 3
ENDMDL
