MODEL 1
REMARK VINA RESULT:      21.7      0.000      0.000
REMARK  4 active torsions:
REMARK  status: ('A' for Active; 'I' for Inactive)
REMARK    1  A    between atoms: C_5  and  C_1 
REMARK       I    between atoms: N_8  and  C_5 
REMARK    2  A    between atoms: C_10  and  N_8 
REMARK    3  A    between atoms: C_13  and  C_10 
REMARK    4  A    between atoms: C_11  and  C_13 
ROOT
ATOM      1  C   UNL d   1      14.222  12.479  -1.092  0.00  0.00     0.299 C 
ATOM      2  O   UNL d   1      13.936  11.799  -0.736  0.00  0.00    -0.263 OA
ATOM      3  N   UNL d   1      13.870  12.763  -1.784  0.00  0.00    -0.205 NA
ENDROOT
BRANCH   1   4
ATOM      4  C   UNL d   1      14.862  12.883  -0.761  0.00  0.00     0.162 A 
ATOM      5  N   UNL d   1      15.584  12.551  -0.563  0.00  0.00    -0.143 NA
ATOM      6  N   UNL d   1      16.068  13.149  -0.246  0.00  0.00    -0.148 NA
ATOM      7  C   UNL d   1      15.623  13.853  -0.256  0.00  0.00     0.105 A 
ATOM      8  C   UNL d   1      14.880  13.686  -0.574  0.00  0.00     0.044 A 
ATOM      9  C   UNL d   1      15.808  14.610  -0.016  0.00  0.00     0.021 A 
ATOM     10  C   UNL d   1      14.328  14.289  -0.646  0.00  0.00     0.003 A 
ATOM     11  C   UNL d   1      14.511  15.042  -0.408  0.00  0.00     0.000 A 
ATOM     12  C   UNL d   1      15.248  15.205  -0.094  0.00  0.00     0.002 A 
ENDBRANCH   1   4
BRANCH   3  13
ATOM     13  C   UNL d   1      13.230  12.359  -2.116  0.00  0.00     0.102 C 
BRANCH  13  14
ATOM     14  C   UNL d   1      13.356  11.868  -2.772  0.00  0.00     0.021 C 
BRANCH  14  15
ATOM     15  C   UNL d   1      13.257  12.183  -3.534  0.00  0.00     0.002 A 
ATOM     16  C   UNL d   1      12.868  12.911  -3.619  0.00  0.00     0.000 A 
ATOM     17  C   UNL d   1      12.769  13.226  -4.381  0.00  0.00     0.000 A 
ATOM     18  C   UNL d   1      13.050  12.825  -5.037  0.00  0.00     0.000 A 
ATOM     19  C   UNL d   1      13.432  12.104  -4.938  0.00  0.00     0.000 A 
ATOM     20  C   UNL d   1      13.537  11.783  -4.201  0.00  0.00     0.000 A 
ENDBRANCH  14  15
ENDBRANCH  13  14
ENDBRANCH   3  13
TORSDOF 4
ENDMDL
