MODEL 1
REMARK VINA RESULT:      -3.4      0.000      0.000
REMARK  1 active torsions:
REMARK  status: ('A' for Active; 'I' for Inactive)
REMARK    1  A    between atoms: C_15  and  C_10 
ROOT
ATOM      1  C   UNL d   1      33.096  22.480 -21.022  0.00  0.00     0.111 A 
ATOM      2  C   UNL d   1      33.134  21.094 -21.351  0.00  0.00     0.062 A 
ATOM      3  C   UNL d   1      33.070  21.279 -22.135  0.00  0.00     0.105 A 
ATOM      4  C   UNL d   1      33.032  22.665 -21.806  0.00  0.00     0.213 A 
ATOM      5  C   UNL d   1      33.147  21.696 -20.786  0.00  0.00     0.018 A 
ATOM      6  O   UNL d   1      33.019  22.068 -22.369  0.00  0.00    -0.287 OA
ATOM      7  C   UNL d   1      33.189  20.277 -21.086  0.00  0.00     0.198 A 
ATOM      8  C   UNL d   1      33.110  23.086 -20.455  0.00  0.00     0.105 C 
ATOM      9  C   UNL d   1      33.055  20.666 -22.739  0.00  0.00     0.025 A 
ATOM     10  C   UNL d   1      33.108  19.862 -22.487  0.00  0.00     0.005 A 
ATOM     11  C   UNL d   1      33.175  19.668 -21.663  0.00  0.00     0.042 A 
ATOM     12  N   UNL d   1      33.122  23.678 -19.914  0.00  0.00    -0.191 NA
ATOM     13  O   UNL d   1      33.238  20.134 -20.478  0.00  0.00    -0.286 OA
ATOM     14  N   UNL d   1      32.981  23.459 -22.038  0.00  0.00    -0.120 N 
ATOM     15  C   UNL d   1      33.216  21.468 -19.955  0.00  0.00     0.001 C 
ENDROOT
BRANCH  10  16
ATOM     16  C   UNL d   1      33.094  19.276 -23.048  0.00  0.00     0.000 A 
ATOM     17  C   UNL d   1      33.240  19.436 -23.843  0.00  0.00     0.000 A 
ATOM     18  C   UNL d   1      33.222  18.842 -24.389  0.00  0.00     0.000 A 
ATOM     19  C   UNL d   1      33.057  18.054 -24.162  0.00  0.00     0.000 A 
ATOM     20  C   UNL d   1      32.914  17.904 -23.370  0.00  0.00     0.000 A 
ATOM     21  C   UNL d   1      32.931  18.515 -22.803  0.00  0.00     0.000 A 
ENDBRANCH  10  16
TORSDOF 1
ENDMDL
MODEL 2
REMARK VINA RESULT:      -3.3      0.962      1.834
REMARK  1 active torsions:
REMARK  status: ('A' for Active; 'I' for Inactive)
REMARK    1  A    between atoms: C_15  and  C_10 
ROOT
ATOM      1  C   UNL d   1      32.970  21.812 -21.581  0.00  0.00     0.111 A 
ATOM      2  C   UNL d   1      32.980  20.796 -22.581  0.00  0.00     0.062 A 
ATOM      3  C   UNL d   1      32.815  20.241 -22.018  0.00  0.00     0.105 A 
ATOM      4  C   UNL d   1      32.805  21.256 -21.018  0.00  0.00     0.213 A 
ATOM      5  C   UNL d   1      33.059  21.589 -22.366  0.00  0.00     0.018 A 
ATOM      6  O   UNL d   1      32.726  20.467 -21.230  0.00  0.00    -0.287 OA
ATOM      7  C   UNL d   1      33.077  20.581 -23.408  0.00  0.00     0.198 A 
ATOM      8  C   UNL d   1      33.050  22.608 -21.363  0.00  0.00     0.105 C 
ATOM      9  C   UNL d   1      32.728  19.410 -22.222  0.00  0.00     0.025 A 
ATOM     10  C   UNL d   1      32.822  19.189 -23.032  0.00  0.00     0.005 A 
ATOM     11  C   UNL d   1      32.995  19.773 -23.624  0.00  0.00     0.042 A 
ATOM     12  N   UNL d   1      33.125  23.376 -21.144  0.00  0.00    -0.191 NA
ATOM     13  O   UNL d   1      33.205  21.012 -23.845  0.00  0.00    -0.286 OA
ATOM     14  N   UNL d   1      32.716  21.486 -20.227  0.00  0.00    -0.120 N 
ATOM     15  C   UNL d   1      33.236  22.161 -22.989  0.00  0.00     0.001 C 
ENDROOT
BRANCH  10  16
ATOM     16  C   UNL d   1      32.742  18.409 -23.237  0.00  0.00     0.000 A 
ATOM     17  C   UNL d   1      33.238  17.829 -22.925  0.00  0.00     0.000 A 
ATOM     18  C   UNL d   1      33.147  17.055 -23.138  0.00  0.00     0.000 A 
ATOM     19  C   UNL d   1      32.550  16.826 -23.677  0.00  0.00     0.000 A 
ATOM     20  C   UNL d   1      32.062  17.409 -23.981  0.00  0.00     0.000 A 
ATOM     21  C   UNL d   1      32.154  18.208 -23.763  0.00  0.00     0.000 A 
ENDBRANCH  10  16
TORSDOF 1
ENDMDL
MODEL 3
REMARK VINA RESULT:      -3.2      2.566      4.657
REMARK  1 active torsions:
REMARK  status: ('A' for Active; 'I' for Inactive)
REMARK    1  A    between atoms: C_15  and  C_10 
ROOT
ATOM      1  C   UNL d   1      33.008  17.431 -23.972  0.00  0.00     0.111 A 
ATOM      2  C   UNL d   1      33.108  18.810 -23.625  0.00  0.00     0.062 A 
ATOM      3  C   UNL d   1      33.049  18.617 -22.843  0.00  0.00     0.105 A 
ATOM      4  C   UNL d   1      32.949  17.238 -23.190  0.00  0.00     0.213 A 
ATOM      5  C   UNL d   1      33.089  18.216 -24.198  0.00  0.00     0.018 A 
ATOM      6  O   UNL d   1      32.968  17.827 -22.619  0.00  0.00    -0.287 OA
ATOM      7  C   UNL d   1      33.193  19.627 -23.880  0.00  0.00     0.198 A 
ATOM      8  C   UNL d   1      32.988  16.833 -24.546  0.00  0.00     0.105 C 
ATOM      9  C   UNL d   1      33.068  19.222 -22.231  0.00  0.00     0.025 A 
ATOM     10  C   UNL d   1      33.150  20.027 -22.473  0.00  0.00     0.005 A 
ATOM     11  C   UNL d   1      33.213  20.229 -23.295  0.00  0.00     0.042 A 
ATOM     12  N   UNL d   1      32.968  16.249 -25.095  0.00  0.00    -0.191 NA
ATOM     13  O   UNL d   1      33.239  19.777 -24.487  0.00  0.00    -0.286 OA
ATOM     14  N   UNL d   1      32.868  16.444 -22.967  0.00  0.00    -0.120 N 
ATOM     15  C   UNL d   1      33.154  18.452 -25.027  0.00  0.00     0.001 C 
ENDROOT
BRANCH  10  16
ATOM     16  C   UNL d   1      33.169  20.605 -21.904  0.00  0.00     0.000 A 
ATOM     17  C   UNL d   1      33.156  21.405 -22.102  0.00  0.00     0.000 A 
ATOM     18  C   UNL d   1      33.176  21.969 -21.525  0.00  0.00     0.000 A 
ATOM     19  C   UNL d   1      33.209  21.756 -20.717  0.00  0.00     0.000 A 
ATOM     20  C   UNL d   1      33.221  20.959 -20.530  0.00  0.00     0.000 A 
ATOM     21  C   UNL d   1      33.201  20.374 -21.123  0.00  0.00     0.000 A 
ENDBRANCH  10  16
TORSDOF 1
ENDMDL
MODEL 4
REMARK VINA RESULT:      -2.4      2.129      4.079
REMARK  1 active torsions:
REMARK  status: ('A' for Active; 'I' for Inactive)
REMARK    1  A    between atoms: C_15  and  C_10 
ROOT
ATOM      1  C   UNL d   1      33.150  18.471 -23.385  0.00  0.00     0.111 A 
ATOM      2  C   UNL d   1      33.178  19.586 -22.498  0.00  0.00     0.062 A 
ATOM      3  C   UNL d   1      33.142  20.089 -23.129  0.00  0.00     0.105 A 
ATOM      4  C   UNL d   1      33.114  18.975 -24.016  0.00  0.00     0.213 A 
ATOM      5  C   UNL d   1      33.182  18.770 -22.621  0.00  0.00     0.018 A 
ATOM      6  O   UNL d   1      33.110  19.786 -23.895  0.00  0.00    -0.287 OA
ATOM      7  C   UNL d   1      33.212  19.881 -21.690  0.00  0.00     0.198 A 
ATOM      8  C   UNL d   1      33.154  17.651 -23.512  0.00  0.00     0.105 C 
ATOM      9  C   UNL d   1      33.137  20.942 -23.020  0.00  0.00     0.025 A 
ATOM     10  C   UNL d   1      33.170  21.241 -22.230  0.00  0.00     0.005 A 
ATOM     11  C   UNL d   1      33.208  20.712 -21.567  0.00  0.00     0.042 A 
ATOM     12  N   UNL d   1      33.157  16.860 -23.643  0.00  0.00    -0.191 NA
ATOM     13  O   UNL d   1      33.239  19.491 -21.200  0.00  0.00    -0.286 OA
ATOM     14  N   UNL d   1      33.082  18.668 -24.786  0.00  0.00    -0.120 N 
ATOM     15  C   UNL d   1      33.220  18.256 -21.927  0.00  0.00     0.001 C 
ENDROOT
BRANCH  10  16
ATOM     16  C   UNL d   1      33.166  22.044 -22.116  0.00  0.00     0.000 A 
ATOM     17  C   UNL d   1      33.089  22.372 -21.364  0.00  0.00     0.000 A 
ATOM     18  C   UNL d   1      33.086  23.173 -21.266  0.00  0.00     0.000 A 
ATOM     19  C   UNL d   1      33.161  23.687 -21.923  0.00  0.00     0.000 A 
ATOM     20  C   UNL d   1      33.238  23.351 -22.666  0.00  0.00     0.000 A 
ATOM     21  C   UNL d   1      33.241  22.525 -22.770  0.00  0.00     0.000 A 
ENDBRANCH  10  16
TORSDOF 1
ENDMDL
MODEL 5
REMARK VINA RESULT:      -1.6      1.094      1.998
REMARK  1 active torsions:
REMARK  status: ('A' for Active; 'I' for Inactive)
REMARK    1  A    between atoms: C_15  and  C_10 
ROOT
ATOM      1  C   UNL d   1      32.893  22.576 -19.895  0.00  0.00     0.111 A 
ATOM      2  C   UNL d   1      32.840  22.241 -21.279  0.00  0.00     0.062 A 
ATOM      3  C   UNL d   1      33.048  21.480 -21.103  0.00  0.00     0.105 A 
ATOM      4  C   UNL d   1      33.102  21.815 -19.719  0.00  0.00     0.213 A 
ATOM      5  C   UNL d   1      32.760  22.797 -20.675  0.00  0.00     0.018 A 
ATOM      6  O   UNL d   1      33.181  21.261 -20.319  0.00  0.00    -0.287 OA
ATOM      7  C   UNL d   1      32.697  22.490 -22.091  0.00  0.00     0.198 A 
ATOM      8  C   UNL d   1      32.814  23.133 -19.286  0.00  0.00     0.105 C 
ATOM      9  C   UNL d   1      33.136  20.887 -21.720  0.00  0.00     0.025 A 
ATOM     10  C   UNL d   1      32.998  21.123 -22.519  0.00  0.00     0.005 A 
ATOM     11  C   UNL d   1      32.778  21.922 -22.704  0.00  0.00     0.042 A 
ATOM     12  N   UNL d   1      32.739  23.666 -18.691  0.00  0.00    -0.191 NA
ATOM     13  O   UNL d   1      32.535  23.080 -22.227  0.00  0.00    -0.286 OA
ATOM     14  N   UNL d   1      33.235  21.598 -18.930  0.00  0.00    -0.120 N 
ATOM     15  C   UNL d   1      32.536  23.603 -20.893  0.00  0.00     0.001 C 
ENDROOT
BRANCH  10  16
ATOM     16  C   UNL d   1      33.077  20.571 -23.108  0.00  0.00     0.000 A 
ATOM     17  C   UNL d   1      33.143  19.767 -22.941  0.00  0.00     0.000 A 
ATOM     18  C   UNL d   1      33.222  19.230 -23.538  0.00  0.00     0.000 A 
ATOM     19  C   UNL d   1      33.239  19.477 -24.338  0.00  0.00     0.000 A 
ATOM     20  C   UNL d   1      33.173  20.278 -24.494  0.00  0.00     0.000 A 
ATOM     21  C   UNL d   1      33.092  20.834 -23.880  0.00  0.00     0.000 A 
ENDBRANCH  10  16
TORSDOF 1
ENDMDL
