MODEL 1
REMARK VINA RESULT:      -6.7      0.000      0.000
REMARK  4 active torsions:
REMARK  status: ('A' for Active; 'I' for Inactive)
REMARK    1  A    between atoms: C_11  and  C_3 
REMARK    2  A    between atoms: C_10  and  N_5 
REMARK    3  A    between atoms: O_17  and  C_11 
REMARK    4  A    between atoms: C_22  and  O_17 
ROOT
ATOM      1  C   UNL d   1     -39.153  13.828  18.000  0.00  0.00     0.086 A 
ATOM      2  C   UNL d   1     -39.463  14.299  17.398  0.00  0.00     0.038 A 
ATOM      3  C   UNL d   1     -39.992  14.913  17.564  0.00  0.00     0.165 A 
ATOM      4  C   UNL d   1     -39.381  13.979  18.779  0.00  0.00     0.282 A 
ATOM      5  N   UNL d   1     -39.900  14.579  18.953  0.00  0.00    -0.194 N 
ATOM      6  N   UNL d   1     -40.205  15.046  18.345  0.00  0.00    -0.157 NA
ATOM      7  C   UNL d   1     -38.648  13.271  17.657  0.00  0.00     0.137 A 
ATOM      8  C   UNL d   1     -39.147  14.033  16.678  0.00  0.00     0.039 A 
ATOM      9  S   UNL d   1     -38.645  13.399  16.842  0.00  0.00    -0.066 SA
ATOM     10  O   UNL d   1     -39.075  13.512  19.387  0.00  0.00    -0.265 OA
ATOM     11  N   UNL d   1     -38.226  12.697  18.061  0.00  0.00    -0.141 N 
ENDROOT
BRANCH   5  12
ATOM     12  C   UNL d   1     -40.124  14.725  19.739  0.00  0.00     0.087 A 
ATOM     13  C   UNL d   1     -39.690  15.243  20.196  0.00  0.00     0.031 A 
ATOM     14  C   UNL d   1     -39.898  15.398  20.970  0.00  0.00     0.059 A 
ATOM     15 CL   UNL d   1     -39.458  15.922  21.432  0.00  0.00    -0.082 Cl
ATOM     16  C   UNL d   1     -40.565  15.018  21.298  0.00  0.00     0.011 A 
ATOM     17  C   UNL d   1     -41.003  14.495  20.837  0.00  0.00     0.002 A 
ATOM     18  C   UNL d   1     -40.784  14.347  20.058  0.00  0.00     0.019 A 
ENDBRANCH   5  12
BRANCH   3  19
ATOM     19  C   UNL d   1     -40.298  15.380  16.957  0.00  0.00     0.320 C 
ATOM     20  O   UNL d   1     -39.809  15.907  16.556  0.00  0.00    -0.257 OA
BRANCH  19  21
ATOM     21  O   UNL d   1     -41.099  15.316  16.752  0.00  0.00    -0.270 OA
BRANCH  21  22
ATOM     22  C   UNL d   1     -41.470  15.922  16.334  0.00  0.00     0.126 C 
ATOM     23  C   UNL d   1     -42.258  15.841  16.098  0.00  0.00     0.029 C 
ENDBRANCH  21  22
ENDBRANCH  19  21
ENDBRANCH   3  19
TORSDOF 4
ENDMDL
MODEL 2
REMARK VINA RESULT:      -6.5      8.764     10.028
REMARK  4 active torsions:
REMARK  status: ('A' for Active; 'I' for Inactive)
REMARK    1  A    between atoms: C_11  and  C_3 
REMARK    2  A    between atoms: C_10  and  N_5 
REMARK    3  A    between atoms: O_17  and  C_11 
REMARK    4  A    between atoms: C_22  and  O_17 
ROOT
ATOM      1  C   UNL d   1     -48.796  12.145  23.250  0.00  0.00     0.086 A 
ATOM      2  C   UNL d   1     -49.417  12.666  23.095  0.00  0.00     0.038 A 
ATOM      3  C   UNL d   1     -49.273  13.440  22.841  0.00  0.00     0.165 A 
ATOM      4  C   UNL d   1     -48.021  12.409  23.147  0.00  0.00     0.282 A 
ATOM      5  N   UNL d   1     -47.869  13.167  22.898  0.00  0.00    -0.194 N 
ATOM      6  N   UNL d   1     -48.495  13.682  22.745  0.00  0.00    -0.157 NA
ATOM      7  C   UNL d   1     -49.119  11.423  23.491  0.00  0.00     0.137 A 
ATOM      8  C   UNL d   1     -50.129  12.264  23.241  0.00  0.00     0.039 A 
ATOM      9  S   UNL d   1     -49.940  11.499  23.485  0.00  0.00    -0.066 SA
ATOM     10  O   UNL d   1     -47.395  11.894  23.299  0.00  0.00    -0.265 OA
ATOM     11  N   UNL d   1     -48.694  10.754  23.698  0.00  0.00    -0.141 N 
ENDROOT
BRANCH   5  12
ATOM     12  C   UNL d   1     -47.086  13.426  22.796  0.00  0.00     0.087 A 
ATOM     13  C   UNL d   1     -46.588  13.023  22.291  0.00  0.00     0.031 A 
ATOM     14  C   UNL d   1     -45.815  13.265  22.180  0.00  0.00     0.059 A 
ATOM     15 CL   UNL d   1     -45.311  12.857  21.670  0.00  0.00    -0.082 Cl
ATOM     16  C   UNL d   1     -45.534  13.935  22.590  0.00  0.00     0.011 A 
ATOM     17  C   UNL d   1     -46.038  14.343  23.099  0.00  0.00     0.002 A 
ATOM     18  C   UNL d   1     -46.814  14.089  23.203  0.00  0.00     0.019 A 
ENDBRANCH   5  12
BRANCH   3  19
ATOM     19  C   UNL d   1     -49.899  13.955  22.688  0.00  0.00     0.320 C 
ATOM     20  O   UNL d   1     -50.372  13.843  22.024  0.00  0.00    -0.257 OA
BRANCH  19  21
ATOM     21  O   UNL d   1     -50.049  14.586  23.206  0.00  0.00    -0.270 OA
BRANCH  21  22
ATOM     22  C   UNL d   1     -50.478  15.239  22.949  0.00  0.00     0.126 C 
ATOM     23  C   UNL d   1     -50.649  15.856  23.473  0.00  0.00     0.029 C 
ENDBRANCH  21  22
ENDBRANCH  19  21
ENDBRANCH   3  19
TORSDOF 4
ENDMDL
MODEL 3
REMARK VINA RESULT:      -6.0      8.541      9.976
REMARK  4 active torsions:
REMARK  status: ('A' for Active; 'I' for Inactive)
REMARK    1  A    between atoms: C_11  and  C_3 
REMARK    2  A    between atoms: C_10  and  N_5 
REMARK    3  A    between atoms: O_17  and  C_11 
REMARK    4  A    between atoms: C_22  and  O_17 
ROOT
ATOM      1  C   UNL d   1     -47.544  14.085  22.642  0.00  0.00     0.086 A 
ATOM      2  C   UNL d   1     -46.958  13.570  22.912  0.00  0.00     0.038 A 
ATOM      3  C   UNL d   1     -47.124  12.772  23.056  0.00  0.00     0.165 A 
ATOM      4  C   UNL d   1     -48.305  13.790  22.517  0.00  0.00     0.282 A 
ATOM      5  N   UNL d   1     -48.477  13.009  22.655  0.00  0.00    -0.194 N 
ATOM      6  N   UNL d   1     -47.887  12.500  22.925  0.00  0.00    -0.157 NA
ATOM      7  C   UNL d   1     -47.206  14.834  22.553  0.00  0.00     0.137 A 
ATOM      8  C   UNL d   1     -46.254  14.003  22.990  0.00  0.00     0.039 A 
ATOM      9  S   UNL d   1     -46.412  14.782  22.768  0.00  0.00    -0.066 SA
ATOM     10  O   UNL d   1     -48.895  14.299  22.247  0.00  0.00    -0.265 OA
ATOM     11  N   UNL d   1     -47.597  15.507  22.295  0.00  0.00    -0.141 N 
ENDROOT
BRANCH   5  12
ATOM     12  C   UNL d   1     -49.245  12.720  22.527  0.00  0.00     0.087 A 
ATOM     13  C   UNL d   1     -49.710  12.508  23.163  0.00  0.00     0.031 A 
ATOM     14  C   UNL d   1     -50.467  12.221  23.055  0.00  0.00     0.059 A 
ATOM     15 CL   UNL d   1     -50.937  12.006  23.698  0.00  0.00    -0.082 Cl
ATOM     16  C   UNL d   1     -50.768  12.146  22.280  0.00  0.00     0.011 A 
ATOM     17  C   UNL d   1     -50.299  12.360  21.637  0.00  0.00     0.002 A 
ATOM     18  C   UNL d   1     -49.537  12.647  21.760  0.00  0.00     0.019 A 
ENDBRANCH   5  12
BRANCH   3  19
ATOM     19  C   UNL d   1     -46.533  12.263  23.326  0.00  0.00     0.320 C 
ATOM     20  O   UNL d   1     -45.856  12.569  23.681  0.00  0.00    -0.257 OA
BRANCH  19  21
ATOM     21  O   UNL d   1     -46.625  11.443  23.239  0.00  0.00    -0.270 OA
BRANCH  21  22
ATOM     22  C   UNL d   1     -46.178  10.925  23.698  0.00  0.00     0.126 C 
ATOM     23  C   UNL d   1     -45.680  10.374  23.335  0.00  0.00     0.029 C 
ENDBRANCH  21  22
ENDBRANCH  19  21
ENDBRANCH   3  19
TORSDOF 4
ENDMDL
MODEL 4
REMARK VINA RESULT:      -5.9      8.223      9.603
REMARK  4 active torsions:
REMARK  status: ('A' for Active; 'I' for Inactive)
REMARK    1  A    between atoms: C_11  and  C_3 
REMARK    2  A    between atoms: C_10  and  N_5 
REMARK    3  A    between atoms: O_17  and  C_11 
REMARK    4  A    between atoms: C_22  and  O_17 
ROOT
ATOM      1  C   UNL d   1     -48.159  14.406  22.564  0.00  0.00     0.086 A 
ATOM      2  C   UNL d   1     -48.822  13.920  22.491  0.00  0.00     0.038 A 
ATOM      3  C   UNL d   1     -48.752  13.096  22.492  0.00  0.00     0.165 A 
ATOM      4  C   UNL d   1     -47.416  14.054  22.639  0.00  0.00     0.282 A 
ATOM      5  N   UNL d   1     -47.336  13.247  22.641  0.00  0.00    -0.194 N 
ATOM      6  N   UNL d   1     -48.004  12.768  22.568  0.00  0.00    -0.157 NA
ATOM      7  C   UNL d   1     -48.412  15.193  22.543  0.00  0.00     0.137 A 
ATOM      8  C   UNL d   1     -49.490  14.410  22.425  0.00  0.00     0.039 A 
ATOM      9  S   UNL d   1     -49.232  15.193  22.458  0.00  0.00    -0.066 SA
ATOM     10  O   UNL d   1     -46.748  14.533  22.712  0.00  0.00    -0.265 OA
ATOM     11  N   UNL d   1     -47.929  15.852  22.599  0.00  0.00    -0.141 N 
ENDROOT
BRANCH   5  12
ATOM     12  C   UNL d   1     -46.585  12.899  22.717  0.00  0.00     0.087 A 
ATOM     13  C   UNL d   1     -45.994  13.092  22.189  0.00  0.00     0.031 A 
ATOM     14  C   UNL d   1     -45.250  12.760  22.250  0.00  0.00     0.059 A 
ATOM     15 CL   UNL d   1     -44.652  12.955  21.716  0.00  0.00    -0.082 Cl
ATOM     16  C   UNL d   1     -45.095  12.215  22.862  0.00  0.00     0.011 A 
ATOM     17  C   UNL d   1     -45.692  12.020  23.396  0.00  0.00     0.002 A 
ATOM     18  C   UNL d   1     -46.438  12.362  23.324  0.00  0.00     0.019 A 
ENDBRANCH   5  12
BRANCH   3  19
ATOM     19  C   UNL d   1     -49.419  12.617  22.419  0.00  0.00     0.320 C 
ATOM     20  O   UNL d   1     -49.777  12.519  21.684  0.00  0.00    -0.257 OA
BRANCH  19  21
ATOM     21  O   UNL d   1     -49.728  12.236  23.088  0.00  0.00    -0.270 OA
BRANCH  21  22
ATOM     22  C   UNL d   1     -50.418  11.791  23.029  0.00  0.00     0.126 C 
ATOM     23  C   UNL d   1     -50.888  11.663  23.697  0.00  0.00     0.029 C 
ENDBRANCH  21  22
ENDBRANCH  19  21
ENDBRANCH   3  19
TORSDOF 4
ENDMDL
MODEL 5
REMARK VINA RESULT:      -5.9      8.779     10.133
REMARK  4 active torsions:
REMARK  status: ('A' for Active; 'I' for Inactive)
REMARK    1  A    between atoms: C_11  and  C_3 
REMARK    2  A    between atoms: C_10  and  N_5 
REMARK    3  A    between atoms: O_17  and  C_11 
REMARK    4  A    between atoms: C_22  and  O_17 
ROOT
ATOM      1  C   UNL d   1     -47.176  13.920  22.796  0.00  0.00     0.086 A 
ATOM      2  C   UNL d   1     -47.308  13.125  22.974  0.00  0.00     0.038 A 
ATOM      3  C   UNL d   1     -48.061  12.850  23.175  0.00  0.00     0.165 A 
ATOM      4  C   UNL d   1     -47.814  14.443  22.823  0.00  0.00     0.282 A 
ATOM      5  N   UNL d   1     -48.558  14.183  23.020  0.00  0.00    -0.194 N 
ATOM      6  N   UNL d   1     -48.681  13.387  23.196  0.00  0.00    -0.157 NA
ATOM      7  C   UNL d   1     -46.374  14.015  22.619  0.00  0.00     0.137 A 
ATOM      8  C   UNL d   1     -46.582  12.726  22.906  0.00  0.00     0.039 A 
ATOM      9  S   UNL d   1     -46.010  13.278  22.687  0.00  0.00    -0.066 SA
ATOM     10  O   UNL d   1     -47.690  15.239  22.647  0.00  0.00    -0.265 OA
ATOM     11  N   UNL d   1     -46.011  14.720  22.413  0.00  0.00    -0.141 N 
ENDROOT
BRANCH   5  12
ATOM     12  C   UNL d   1     -49.195  14.716  23.045  0.00  0.00     0.087 A 
ATOM     13  C   UNL d   1     -49.785  14.669  22.483  0.00  0.00     0.031 A 
ATOM     14  C   UNL d   1     -50.418  15.185  22.493  0.00  0.00     0.059 A 
ATOM     15 CL   UNL d   1     -51.014  15.138  21.925  0.00  0.00    -0.082 Cl
ATOM     16  C   UNL d   1     -50.461  15.767  23.089  0.00  0.00     0.011 A 
ATOM     17  C   UNL d   1     -49.865  15.814  23.657  0.00  0.00     0.002 A 
ATOM     18  C   UNL d   1     -49.232  15.289  23.636  0.00  0.00     0.019 A 
ENDBRANCH   5  12
BRANCH   3  19
ATOM     19  C   UNL d   1     -48.185  12.054  23.352  0.00  0.00     0.320 C 
ATOM     20  O   UNL d   1     -47.584  11.610  23.698  0.00  0.00    -0.257 OA
BRANCH  19  21
ATOM     21  O   UNL d   1     -48.916  11.702  23.179  0.00  0.00    -0.270 OA
BRANCH  21  22
ATOM     22  C   UNL d   1     -49.223  11.120  23.673  0.00  0.00     0.126 C 
ATOM     23  C   UNL d   1     -50.039  10.985  23.698  0.00  0.00     0.029 C 
ENDBRANCH  21  22
ENDBRANCH  19  21
ENDBRANCH   3  19
TORSDOF 4
ENDMDL
MODEL 6
REMARK VINA RESULT:      -5.7      8.729      9.945
REMARK  4 active torsions:
REMARK  status: ('A' for Active; 'I' for Inactive)
REMARK    1  A    between atoms: C_11  and  C_3 
REMARK    2  A    between atoms: C_10  and  N_5 
REMARK    3  A    between atoms: O_17  and  C_11 
REMARK    4  A    between atoms: C_22  and  O_17 
ROOT
ATOM      1  C   UNL d   1     -47.253  11.668  23.379  0.00  0.00     0.086 A 
ATOM      2  C   UNL d   1     -46.875  12.392  23.264  0.00  0.00     0.038 A 
ATOM      3  C   UNL d   1     -47.306  13.075  23.085  0.00  0.00     0.165 A 
ATOM      4  C   UNL d   1     -48.075  11.634  23.314  0.00  0.00     0.282 A 
ATOM      5  N   UNL d   1     -48.506  12.299  23.139  0.00  0.00    -0.194 N 
ATOM      6  N   UNL d   1     -48.122  13.019  23.024  0.00  0.00    -0.157 NA
ATOM      7  C   UNL d   1     -46.676  11.100  23.547  0.00  0.00     0.137 A 
ATOM      8  C   UNL d   1     -46.059  12.272  23.361  0.00  0.00     0.039 A 
ATOM      9  S   UNL d   1     -45.941  11.474  23.535  0.00  0.00    -0.066 SA
ATOM     10  O   UNL d   1     -48.460  10.913  23.428  0.00  0.00    -0.265 OA
ATOM     11  N   UNL d   1     -46.816  10.307  23.698  0.00  0.00    -0.141 N 
ENDROOT
BRANCH   5  12
ATOM     12  C   UNL d   1     -49.334  12.257  23.074  0.00  0.00     0.087 A 
ATOM     13  C   UNL d   1     -49.700  12.511  22.390  0.00  0.00     0.031 A 
ATOM     14  C   UNL d   1     -50.513  12.477  22.311  0.00  0.00     0.059 A 
ATOM     15 CL   UNL d   1     -50.883  12.734  21.620  0.00  0.00    -0.082 Cl
ATOM     16  C   UNL d   1     -50.973  12.178  22.940  0.00  0.00     0.011 A 
ATOM     17  C   UNL d   1     -50.602  11.922  23.630  0.00  0.00     0.002 A 
ATOM     18  C   UNL d   1     -49.783  11.961  23.698  0.00  0.00     0.019 A 
ENDBRANCH   5  12
BRANCH   3  19
ATOM     19  C   UNL d   1     -46.921  13.796  22.971  0.00  0.00     0.320 C 
ATOM     20  O   UNL d   1     -46.184  13.929  23.314  0.00  0.00    -0.257 OA
BRANCH  19  21
ATOM     21  O   UNL d   1     -47.278  14.385  22.509  0.00  0.00    -0.270 OA
BRANCH  21  22
ATOM     22  C   UNL d   1     -47.046  15.171  22.588  0.00  0.00     0.126 C 
ATOM     23  C   UNL d   1     -47.488  15.772  22.232  0.00  0.00     0.029 C 
ENDBRANCH  21  22
ENDBRANCH  19  21
ENDBRANCH   3  19
TORSDOF 4
ENDMDL
MODEL 7
REMARK VINA RESULT:      -4.3      8.586      9.876
REMARK  4 active torsions:
REMARK  status: ('A' for Active; 'I' for Inactive)
REMARK    1  A    between atoms: C_11  and  C_3 
REMARK    2  A    between atoms: C_10  and  N_5 
REMARK    3  A    between atoms: O_17  and  C_11 
REMARK    4  A    between atoms: C_22  and  O_17 
ROOT
ATOM      1  C   UNL d   1     -46.993  11.984  23.386  0.00  0.00     0.086 A 
ATOM      2  C   UNL d   1     -47.697  11.553  23.353  0.00  0.00     0.038 A 
ATOM      3  C   UNL d   1     -48.412  11.917  23.153  0.00  0.00     0.165 A 
ATOM      4  C   UNL d   1     -47.014  12.791  23.215  0.00  0.00     0.282 A 
ATOM      5  N   UNL d   1     -47.710  13.157  23.018  0.00  0.00    -0.194 N 
ATOM      6  N   UNL d   1     -48.410  12.721  22.987  0.00  0.00    -0.157 NA
ATOM      7  C   UNL d   1     -46.385  11.466  23.599  0.00  0.00     0.137 A 
ATOM      8  C   UNL d   1     -47.522  10.765  23.547  0.00  0.00     0.039 A 
ATOM      9  S   UNL d   1     -46.712  10.716  23.698  0.00  0.00    -0.066 SA
ATOM     10  O   UNL d   1     -46.314  13.228  23.245  0.00  0.00    -0.265 OA
ATOM     11  N   UNL d   1     -45.596  11.669  23.693  0.00  0.00    -0.141 N 
ENDROOT
BRANCH   5  12
ATOM     12  C   UNL d   1     -47.724  13.970  22.847  0.00  0.00     0.087 A 
ATOM     13  C   UNL d   1     -48.408  14.399  22.964  0.00  0.00     0.031 A 
ATOM     14  C   UNL d   1     -48.438  15.199  22.801  0.00  0.00     0.059 A 
ATOM     15 CL   UNL d   1     -49.130  15.631  22.919  0.00  0.00    -0.082 Cl
ATOM     16  C   UNL d   1     -47.756  15.581  22.510  0.00  0.00     0.011 A 
ATOM     17  C   UNL d   1     -47.064  15.149  22.391  0.00  0.00     0.002 A 
ATOM     18  C   UNL d   1     -47.047  14.343  22.559  0.00  0.00     0.019 A 
ENDBRANCH   5  12
BRANCH   3  19
ATOM     19  C   UNL d   1     -49.111  11.481  23.123  0.00  0.00     0.320 C 
ATOM     20  O   UNL d   1     -49.218  10.915  22.534  0.00  0.00    -0.257 OA
BRANCH  19  21
ATOM     21  O   UNL d   1     -49.705  11.614  23.687  0.00  0.00    -0.270 OA
BRANCH  21  22
ATOM     22  C   UNL d   1     -50.498  11.530  23.481  0.00  0.00     0.126 C 
ATOM     23  C   UNL d   1     -50.986  12.195  23.431  0.00  0.00     0.029 C 
ENDBRANCH  21  22
ENDBRANCH  19  21
ENDBRANCH   3  19
TORSDOF 4
ENDMDL
MODEL 8
REMARK VINA RESULT:      -3.9      8.699      9.890
REMARK  4 active torsions:
REMARK  status: ('A' for Active; 'I' for Inactive)
REMARK    1  A    between atoms: C_11  and  C_3 
REMARK    2  A    between atoms: C_10  and  N_5 
REMARK    3  A    between atoms: O_17  and  C_11 
REMARK    4  A    between atoms: C_22  and  O_17 
ROOT
ATOM      1  C   UNL d   1     -47.118  13.968  22.734  0.00  0.00     0.086 A 
ATOM      2  C   UNL d   1     -47.645  14.603  22.708  0.00  0.00     0.038 A 
ATOM      3  C   UNL d   1     -48.448  14.500  22.877  0.00  0.00     0.165 A 
ATOM      4  C   UNL d   1     -47.407  13.221  22.934  0.00  0.00     0.282 A 
ATOM      5  N   UNL d   1     -48.193  13.109  23.102  0.00  0.00    -0.194 N 
ATOM      6  N   UNL d   1     -48.713  13.749  23.074  0.00  0.00    -0.157 NA
ATOM      7  C   UNL d   1     -46.365  14.249  22.539  0.00  0.00     0.137 A 
ATOM      8  C   UNL d   1     -47.215  15.281  22.496  0.00  0.00     0.039 A 
ATOM      9  S   UNL d   1     -46.427  15.058  22.393  0.00  0.00    -0.066 SA
ATOM     10  O   UNL d   1     -46.886  12.581  22.962  0.00  0.00    -0.265 OA
ATOM     11  N   UNL d   1     -45.682  13.799  22.500  0.00  0.00    -0.141 N 
ENDROOT
BRANCH   5  12
ATOM     12  C   UNL d   1     -48.477  12.355  23.302  0.00  0.00     0.087 A 
ATOM     13  C   UNL d   1     -49.280  12.211  23.307  0.00  0.00     0.031 A 
ATOM     14  C   UNL d   1     -49.575  11.475  23.501  0.00  0.00     0.059 A 
ATOM     15 CL   UNL d   1     -50.387  11.330  23.506  0.00  0.00    -0.082 Cl
ATOM     16  C   UNL d   1     -49.045  10.861  23.697  0.00  0.00     0.011 A 
ATOM     17  C   UNL d   1     -48.234  11.006  23.693  0.00  0.00     0.002 A 
ATOM     18  C   UNL d   1     -47.949  11.752  23.495  0.00  0.00     0.019 A 
ENDBRANCH   5  12
BRANCH   3  19
ATOM     19  C   UNL d   1     -48.968  15.139  22.849  0.00  0.00     0.320 C 
ATOM     20  O   UNL d   1     -48.811  15.818  23.289  0.00  0.00    -0.257 OA
BRANCH  19  21
ATOM     21  O   UNL d   1     -49.648  15.096  22.377  0.00  0.00    -0.270 OA
BRANCH  21  22
ATOM     22  C   UNL d   1     -50.329  15.506  22.593  0.00  0.00     0.126 C 
ATOM     23  C   UNL d   1     -51.064  15.278  22.290  0.00  0.00     0.029 C 
ENDBRANCH  21  22
ENDBRANCH  19  21
ENDBRANCH   3  19
TORSDOF 4
ENDMDL
MODEL 9
REMARK VINA RESULT:      -3.8      1.671      2.072
REMARK  4 active torsions:
REMARK  status: ('A' for Active; 'I' for Inactive)
REMARK    1  A    between atoms: C_11  and  C_3 
REMARK    2  A    between atoms: C_10  and  N_5 
REMARK    3  A    between atoms: O_17  and  C_11 
REMARK    4  A    between atoms: C_22  and  O_17 
ROOT
ATOM      1  C   UNL d   1     -39.064  15.529  19.498  0.00  0.00     0.086 A 
ATOM      2  C   UNL d   1     -39.192  15.480  18.685  0.00  0.00     0.038 A 
ATOM      3  C   UNL d   1     -39.919  15.228  18.381  0.00  0.00     0.165 A 
ATOM      4  C   UNL d   1     -39.678  15.322  20.010  0.00  0.00     0.282 A 
ATOM      5  N   UNL d   1     -40.395  15.074  19.722  0.00  0.00    -0.194 N 
ATOM      6  N   UNL d   1     -40.515  15.027  18.907  0.00  0.00    -0.157 NA
ATOM      7  C   UNL d   1     -38.291  15.796  19.622  0.00  0.00     0.137 A 
ATOM      8  C   UNL d   1     -38.494  15.717  18.302  0.00  0.00     0.039 A 
ATOM      9  S   UNL d   1     -37.942  15.911  18.884  0.00  0.00    -0.066 SA
ATOM     10  O   UNL d   1     -39.557  15.369  20.825  0.00  0.00    -0.265 OA
ATOM     11  N   UNL d   1     -37.940  15.921  20.351  0.00  0.00    -0.141 N 
ENDROOT
BRANCH   5  12
ATOM     12  C   UNL d   1     -41.008  14.867  20.243  0.00  0.00     0.087 A 
ATOM     13  C   UNL d   1     -41.168  14.080  20.389  0.00  0.00     0.031 A 
ATOM     14  C   UNL d   1     -41.767  13.860  20.898  0.00  0.00     0.059 A 
ATOM     15 CL   UNL d   1     -41.928  13.064  21.046  0.00  0.00    -0.082 Cl
ATOM     16  C   UNL d   1     -42.221  14.450  21.274  0.00  0.00     0.011 A 
ATOM     17  C   UNL d   1     -42.060  15.244  21.126  0.00  0.00     0.002 A 
ATOM     18  C   UNL d   1     -41.454  15.454  20.611  0.00  0.00     0.019 A 
ENDBRANCH   5  12
BRANCH   3  19
ATOM     19  C   UNL d   1     -40.040  15.182  17.566  0.00  0.00     0.320 C 
ATOM     20  O   UNL d   1     -39.723  14.554  17.138  0.00  0.00    -0.257 OA
BRANCH  19  21
ATOM     21  O   UNL d   1     -40.482  15.769  17.181  0.00  0.00    -0.270 OA
BRANCH  21  22
ATOM     22  C   UNL d   1     -40.837  15.610  16.455  0.00  0.00     0.126 C 
ATOM     23  C   UNL d   1     -41.592  15.903  16.289  0.00  0.00     0.029 C 
ENDBRANCH  21  22
ENDBRANCH  19  21
ENDBRANCH   3  19
TORSDOF 4
ENDMDL
