MODEL 1
REMARK VINA RESULT:       6.1      0.000      0.000
REMARK  6 active torsions:
REMARK  status: ('A' for Active; 'I' for Inactive)
REMARK    1  A    between atoms: C_12  and  N_3 
REMARK    2  A    between atoms: C_8  and  C_4 
REMARK    3  A    between atoms: O_23  and  C_11 
REMARK    4  A    between atoms: C_19  and  C_12 
REMARK    5  A    between atoms: N_13  and  C_19 
REMARK    6  A    between atoms: O_26  and  C_17 
ROOT
ATOM      1  C   UNL d   1      32.675  20.402 -22.299  0.00  0.00     0.083 A 
ATOM      2  C   UNL d   1      32.768  19.880 -21.667  0.00  0.00     0.161 A 
ATOM      3  N   UNL d   1      32.914  21.125 -21.215  0.00  0.00    -0.270 N 
ATOM      4  C   UNL d   1      32.765  21.162 -22.016  0.00  0.00     0.074 A 
ATOM      5  C   UNL d   1      32.918  20.331 -20.990  0.00  0.00     0.288 A 
ATOM      6  C   UNL d   1      32.519  20.113 -23.054  0.00  0.00     0.201 A 
ATOM      7  O   UNL d   1      32.706  19.069 -21.790  0.00  0.00    -0.302 OA
ATOM      8  C   UNL d   1      32.456  19.301 -23.176  0.00  0.00     0.064 A 
ATOM      9  C   UNL d   1      32.549  18.779 -22.544  0.00  0.00     0.103 A 
ATOM     10  O   UNL d   1      33.046  20.035 -20.232  0.00  0.00    -0.264 OA
ATOM     11  O   UNL d   1      32.425  20.636 -23.686  0.00  0.00    -0.286 OA
ATOM     12  C   UNL d   1      32.301  19.018 -23.926  0.00  0.00     0.035 A 
ATOM     13  C   UNL d   1      32.487  17.968 -22.667  0.00  0.00     0.027 A 
ATOM     14  C   UNL d   1      32.237  18.200 -24.054  0.00  0.00     0.140 A 
ATOM     15  C   UNL d   1      32.332  17.685 -23.416  0.00  0.00     0.032 A 
ATOM     16  F   UNL d   1      32.081  17.911 -24.809  0.00  0.00    -0.204 F 
ENDROOT
BRANCH   4  17
ATOM     17  C   UNL d   1      32.715  21.860 -22.461  0.00  0.00     0.041 A 
ATOM     18  C   UNL d   1      32.148  22.429 -22.281  0.00  0.00     0.118 A 
ATOM     19  C   UNL d   1      32.103  23.120 -22.725  0.00  0.00     0.116 A 
ATOM     20  C   UNL d   1      32.627  23.244 -23.353  0.00  0.00     0.026 A 
ATOM     21  C   UNL d   1      33.197  22.673 -23.534  0.00  0.00     0.002 A 
ATOM     22  C   UNL d   1      33.240  21.979 -23.086  0.00  0.00     0.004 A 
BRANCH  18  23
ATOM     23  O   UNL d   1      31.628  22.303 -21.656  0.00  0.00    -0.326 OA
ATOM     24  C   UNL d   1      31.090  22.913 -21.492  0.00  0.00     0.181 C 
ENDBRANCH  18  23
BRANCH  19  25
ATOM     25  O   UNL d   1      31.534  23.691 -22.544  0.00  0.00    -0.326 OA
ATOM     26  C   UNL d   1      30.779  23.638 -22.867  0.00  0.00     0.181 C 
ENDBRANCH  19  25
ENDBRANCH   4  17
BRANCH   3  27
ATOM     27  C   UNL d   1      33.041  21.763 -20.707  0.00  0.00     0.102 C 
BRANCH  27  28
ATOM     28  C   UNL d   1      33.240  21.636 -19.915  0.00  0.00     0.100 C 
BRANCH  28  29
ATOM     29  N   UNL d   1      33.051  22.199 -19.343  0.00  0.00    -0.298 N 
ATOM     30  C   UNL d   1      32.691  21.964 -18.640  0.00  0.00     0.107 A 
ATOM     31  C   UNL d   1      32.502  22.520 -18.071  0.00  0.00     0.142 A 
ATOM     32  O   UNL d   1      32.675  23.321 -18.204  0.00  0.00    -0.300 OA
ATOM     33  C   UNL d   1      33.035  23.556 -18.906  0.00  0.00     0.142 A 
ATOM     34  C   UNL d   1      33.225  22.996 -19.481  0.00  0.00     0.107 A 
ENDBRANCH  28  29
ENDBRANCH  27  28
ENDBRANCH   3  27
TORSDOF 6
ENDMDL
