MODEL 1
REMARK VINA RESULT:      -5.2      0.000      0.000
REMARK  2 active torsions:
REMARK  status: ('A' for Active; 'I' for Inactive)
REMARK    1  A    between atoms: N_2  and  S_1 
REMARK    2  A    between atoms: C_3  and  S_1 
ROOT
ATOM      1  N   UNL d   1     -41.721-122.836 -50.935  0.00  0.00    -0.229 N 
ATOM      2  C   UNL d   1     -41.572-123.432 -51.473  0.00  0.00     0.092 A 
ATOM      3  C   UNL d   1     -41.423-123.230 -52.259  0.00  0.00     0.018 A 
ATOM      4  C   UNL d   1     -41.726-122.041 -51.164  0.00  0.00     0.092 A 
ATOM      5  C   UNL d   1     -41.427-122.421 -52.492  0.00  0.00     0.003 A 
ATOM      6  C   UNL d   1     -41.581-121.842 -51.930  0.00  0.00     0.020 A 
ATOM      7  C   UNL d   1     -41.269-123.817 -52.822  0.00  0.00     0.002 A 
ATOM      8  C   UNL d   1     -41.278-122.228 -53.278  0.00  0.00     0.000 A 
ATOM      9  C   UNL d   1     -41.123-123.609 -53.599  0.00  0.00     0.000 A 
ATOM     10  C   UNL d   1     -41.127-122.814 -53.827  0.00  0.00     0.000 A 
ENDROOT
BRANCH   1  11
ATOM     11  S   UNL d   1     -41.875-123.046 -50.126  0.00  0.00     0.277 S 
ATOM     12  O   UNL d   1     -41.133-122.721 -49.903  0.00  0.00    -0.199 OA
ATOM     13  O   UNL d   1     -42.614-123.372 -50.343  0.00  0.00    -0.199 OA
BRANCH  11  14
ATOM     14  C   UNL d   1     -42.037-123.255 -49.353  0.00  0.00     0.133 A 
ATOM     15  S   UNL d   1     -42.721-123.070 -48.967  0.00  0.00    -0.074 SA
ATOM     16  C   UNL d   1     -42.678-123.388 -48.167  0.00  0.00     0.036 A 
ATOM     17  C   UNL d   1     -41.925-123.777 -48.092  0.00  0.00     0.008 A 
ATOM     18  C   UNL d   1     -41.543-123.696 -48.805  0.00  0.00     0.020 A 
ENDBRANCH  11  14
ENDBRANCH   1  11
TORSDOF 2
ENDMDL
MODEL 2
REMARK VINA RESULT:      -5.2      0.944      3.900
REMARK  2 active torsions:
REMARK  status: ('A' for Active; 'I' for Inactive)
REMARK    1  A    between atoms: N_2  and  S_1 
REMARK    2  A    between atoms: C_3  and  S_1 
ROOT
ATOM      1  N   UNL d   1     -41.974-122.925 -50.201  0.00  0.00    -0.229 N 
ATOM      2  C   UNL d   1     -41.430-123.189 -49.652  0.00  0.00     0.092 A 
ATOM      3  C   UNL d   1     -41.660-123.250 -48.862  0.00  0.00     0.018 A 
ATOM      4  C   UNL d   1     -42.744-122.720 -49.979  0.00  0.00     0.092 A 
ATOM      5  C   UNL d   1     -42.444-123.041 -48.637  0.00  0.00     0.003 A 
ATOM      6  C   UNL d   1     -42.970-122.779 -49.210  0.00  0.00     0.020 A 
ATOM      7  C   UNL d   1     -41.125-123.515 -48.288  0.00  0.00     0.002 A 
ATOM      8  C   UNL d   1     -42.665-123.105 -47.846  0.00  0.00     0.000 A 
ATOM      9  C   UNL d   1     -41.360-123.572 -47.508  0.00  0.00     0.000 A 
ATOM     10  C   UNL d   1     -42.130-123.367 -47.286  0.00  0.00     0.000 A 
ENDROOT
BRANCH   1  11
ATOM     11  S   UNL d   1     -41.735-122.863 -51.014  0.00  0.00     0.277 S 
ATOM     12  O   UNL d   1     -41.976-123.658 -51.143  0.00  0.00    -0.199 OA
ATOM     13  O   UNL d   1     -41.494-122.072 -50.891  0.00  0.00    -0.199 OA
BRANCH  11  14
ATOM     14  C   UNL d   1     -41.500-122.788 -51.793  0.00  0.00     0.133 A 
ATOM     15  S   UNL d   1     -41.356-123.411 -52.286  0.00  0.00    -0.074 SA
ATOM     16  C   UNL d   1     -41.123-123.102 -53.056  0.00  0.00     0.036 A 
ATOM     17  C   UNL d   1     -41.134-122.253 -53.000  0.00  0.00     0.008 A 
ATOM     18  C   UNL d   1     -41.361-122.068 -52.241  0.00  0.00     0.020 A 
ENDBRANCH  11  14
ENDBRANCH   1  11
TORSDOF 2
ENDMDL
