MODEL 1
REMARK VINA RESULT:      -5.5      0.000      0.000
REMARK  4 active torsions:
REMARK  status: ('A' for Active; 'I' for Inactive)
REMARK    1  A    between atoms: C_17  and  C_4 
REMARK    2  A    between atoms: C_6  and  C_8 
REMARK       I    between atoms: C_8  and  N_16 
REMARK    3  A    between atoms: N_16  and  C_18 
REMARK    4  A    between atoms: C_18  and  C_17 
ROOT
ATOM      1  C   UNL d   1     -46.214  13.110  22.615  0.00  0.00     0.042 C 
ENDROOT
BRANCH   1   2
ATOM      2  C   UNL d   1     -46.914  13.554  22.599  0.00  0.00     0.103 A 
ATOM      3  N   UNL d   1     -47.674  13.268  22.440  0.00  0.00    -0.221 NA
ATOM      4  C   UNL d   1     -48.205  13.907  22.483  0.00  0.00     0.179 A 
ATOM      5  N   UNL d   1     -47.769  14.588  22.668  0.00  0.00    -0.282 N 
ATOM      6  S   UNL d   1     -48.996  14.123  22.412  0.00  0.00    -0.048 SA
ATOM      7  C   UNL d   1     -46.971  14.364  22.739  0.00  0.00     0.101 A 
ATOM      8  C   UNL d   1     -48.294  15.220  22.711  0.00  0.00     0.089 A 
ATOM      9  C   UNL d   1     -49.051  14.937  22.553  0.00  0.00     0.057 A 
ENDBRANCH   1   2
BRANCH   1  10
ATOM     10  C   UNL d   1     -46.188  12.406  23.049  0.00  0.00     0.104 C 
BRANCH  10  11
ATOM     11  N   UNL d   1     -45.479  11.969  23.094  0.00  0.00    -0.206 NA
ATOM     12  C   UNL d   1     -45.487  11.198  23.393  0.00  0.00     0.285 C 
ATOM     13  O   UNL d   1     -46.198  10.861  23.647  0.00  0.00    -0.265 OA
BRANCH  12  14
ATOM     14  C   UNL d   1     -44.785  10.765  23.437  0.00  0.00     0.087 A 
ATOM     15  S   UNL d   1     -44.711   9.977  23.697  0.00  0.00    -0.082 SA
ATOM     16  C   UNL d   1     -43.914   9.771  23.649  0.00  0.00     0.036 A 
ATOM     17  C   UNL d   1     -43.501  10.435  23.358  0.00  0.00     0.008 A 
ATOM     18  C   UNL d   1     -44.042  11.031  23.234  0.00  0.00     0.012 A 
ENDBRANCH  12  14
ENDBRANCH  10  11
ENDBRANCH   1  10
TORSDOF 4
ENDMDL
MODEL 2
REMARK VINA RESULT:      -5.5      1.563      2.257
REMARK  4 active torsions:
REMARK  status: ('A' for Active; 'I' for Inactive)
REMARK    1  A    between atoms: C_17  and  C_4 
REMARK    2  A    between atoms: C_6  and  C_8 
REMARK       I    between atoms: C_8  and  N_16 
REMARK    3  A    between atoms: N_16  and  C_18 
REMARK    4  A    between atoms: C_18  and  C_17 
ROOT
ATOM      1  C   UNL d   1     -48.486  13.734  22.553  0.00  0.00     0.042 C 
ENDROOT
BRANCH   1   2
ATOM      2  C   UNL d   1     -49.117  14.200  22.820  0.00  0.00     0.103 A 
ATOM      3  N   UNL d   1     -49.827  13.927  23.147  0.00  0.00    -0.221 NA
ATOM      4  C   UNL d   1     -50.296  14.588  23.335  0.00  0.00     0.179 A 
ATOM      5  N   UNL d   1     -49.873  15.268  23.123  0.00  0.00    -0.282 N 
ATOM      6  S   UNL d   1     -51.019  14.825  23.651  0.00  0.00    -0.048 SA
ATOM      7  C   UNL d   1     -49.145  15.024  22.806  0.00  0.00     0.101 A 
ATOM      8  C   UNL d   1     -50.337  15.922  23.309  0.00  0.00     0.089 A 
ATOM      9  C   UNL d   1     -51.044  15.651  23.635  0.00  0.00     0.057 A 
ENDBRANCH   1   2
BRANCH   1  10
ATOM     10  C   UNL d   1     -47.806  13.663  23.019  0.00  0.00     0.104 C 
BRANCH  10  11
ATOM     11  N   UNL d   1     -47.411  12.931  23.072  0.00  0.00    -0.206 NA
ATOM     12  C   UNL d   1     -46.604  12.908  23.255  0.00  0.00     0.285 C 
ATOM     13  O   UNL d   1     -46.191  13.613  23.385  0.00  0.00    -0.265 OA
BRANCH  12  14
ATOM     14  C   UNL d   1     -46.213  12.184  23.307  0.00  0.00     0.087 A 
ATOM     15  S   UNL d   1     -46.493  11.503  23.698  0.00  0.00    -0.082 SA
ATOM     16  C   UNL d   1     -45.924  10.912  23.609  0.00  0.00     0.036 A 
ATOM     17  C   UNL d   1     -45.296  11.233  23.164  0.00  0.00     0.008 A 
ATOM     18  C   UNL d   1     -45.485  12.005  22.988  0.00  0.00     0.012 A 
ENDBRANCH  12  14
ENDBRANCH  10  11
ENDBRANCH   1  10
TORSDOF 4
ENDMDL
MODEL 3
REMARK VINA RESULT:      -5.5      1.598      5.159
REMARK  4 active torsions:
REMARK  status: ('A' for Active; 'I' for Inactive)
REMARK    1  A    between atoms: C_17  and  C_4 
REMARK    2  A    between atoms: C_6  and  C_8 
REMARK       I    between atoms: C_8  and  N_16 
REMARK    3  A    between atoms: N_16  and  C_18 
REMARK    4  A    between atoms: C_18  and  C_17 
ROOT
ATOM      1  C   UNL d   1     -47.057  13.816  23.140  0.00  0.00     0.042 C 
ENDROOT
BRANCH   1   2
ATOM      2  C   UNL d   1     -46.639  13.101  23.189  0.00  0.00     0.103 A 
ATOM      3  N   UNL d   1     -45.905  12.935  22.844  0.00  0.00    -0.221 NA
ATOM      4  C   UNL d   1     -45.699  12.153  23.039  0.00  0.00     0.179 A 
ATOM      5  N   UNL d   1     -46.308  11.838  23.505  0.00  0.00    -0.282 N 
ATOM      6  S   UNL d   1     -45.122  11.573  22.947  0.00  0.00    -0.048 SA
ATOM      7  C   UNL d   1     -46.886  12.428  23.595  0.00  0.00     0.101 A 
ATOM      8  C   UNL d   1     -46.103  11.065  23.698  0.00  0.00     0.089 A 
ATOM      9  C   UNL d   1     -45.373  10.898  23.355  0.00  0.00     0.057 A 
ENDBRANCH   1   2
BRANCH   1  10
ATOM     10  C   UNL d   1     -47.798  13.829  22.773  0.00  0.00     0.104 C 
BRANCH  10  11
ATOM     11  N   UNL d   1     -48.422  14.270  23.108  0.00  0.00    -0.206 NA
ATOM     12  C   UNL d   1     -49.054  14.518  22.636  0.00  0.00     0.285 C 
ATOM     13  O   UNL d   1     -49.066  14.328  21.831  0.00  0.00    -0.265 OA
BRANCH  12  14
ATOM     14  C   UNL d   1     -49.671  14.954  22.967  0.00  0.00     0.087 A 
ATOM     15  S   UNL d   1     -50.473  14.731  22.986  0.00  0.00    -0.082 SA
ATOM     16  C   UNL d   1     -50.891  15.330  23.369  0.00  0.00     0.036 A 
ATOM     17  C   UNL d   1     -50.342  15.920  23.583  0.00  0.00     0.008 A 
ATOM     18  C   UNL d   1     -49.606  15.679  23.333  0.00  0.00     0.012 A 
ENDBRANCH  12  14
ENDBRANCH  10  11
ENDBRANCH   1  10
TORSDOF 4
ENDMDL
MODEL 4
REMARK VINA RESULT:      -5.5      1.757      2.517
REMARK  4 active torsions:
REMARK  status: ('A' for Active; 'I' for Inactive)
REMARK    1  A    between atoms: C_17  and  C_4 
REMARK    2  A    between atoms: C_6  and  C_8 
REMARK       I    between atoms: C_8  and  N_16 
REMARK    3  A    between atoms: N_16  and  C_18 
REMARK    4  A    between atoms: C_18  and  C_17 
ROOT
ATOM      1  C   UNL d   1     -48.380  13.698  22.468  0.00  0.00     0.042 C 
ENDROOT
BRANCH   1   2
ATOM      2  C   UNL d   1     -49.016  14.136  22.768  0.00  0.00     0.103 A 
ATOM      3  N   UNL d   1     -49.090  14.961  22.769  0.00  0.00    -0.221 NA
ATOM      4  C   UNL d   1     -49.816  15.155  23.125  0.00  0.00     0.179 A 
ATOM      5  N   UNL d   1     -50.190  14.448  23.343  0.00  0.00    -0.282 N 
ATOM      6  S   UNL d   1     -50.306  15.780  23.344  0.00  0.00    -0.048 SA
ATOM      7  C   UNL d   1     -49.691  13.821  23.120  0.00  0.00     0.101 A 
ATOM      8  C   UNL d   1     -50.908  14.640  23.695  0.00  0.00     0.089 A 
ATOM      9  C   UNL d   1     -50.983  15.460  23.697  0.00  0.00     0.057 A 
ENDBRANCH   1   2
BRANCH   1  10
ATOM     10  C   UNL d   1     -47.658  13.700  22.871  0.00  0.00     0.104 C 
BRANCH  10  11
ATOM     11  N   UNL d   1     -46.975  13.387  22.508  0.00  0.00    -0.206 NA
ATOM     12  C   UNL d   1     -46.260  13.364  22.922  0.00  0.00     0.285 C 
ATOM     13  O   UNL d   1     -46.221  13.652  23.696  0.00  0.00    -0.265 OA
BRANCH  12  14
ATOM     14  C   UNL d   1     -45.585  13.053  22.563  0.00  0.00     0.087 A 
ATOM     15  S   UNL d   1     -45.243  12.311  22.722  0.00  0.00    -0.082 SA
ATOM     16  C   UNL d   1     -44.580  12.231  22.238  0.00  0.00     0.036 A 
ATOM     17  C   UNL d   1     -44.517  12.926  21.782  0.00  0.00     0.008 A 
ATOM     18  C   UNL d   1     -45.134  13.417  21.990  0.00  0.00     0.012 A 
ENDBRANCH  12  14
ENDBRANCH  10  11
ENDBRANCH   1  10
TORSDOF 4
ENDMDL
MODEL 5
REMARK VINA RESULT:      -5.4      1.514      4.985
REMARK  4 active torsions:
REMARK  status: ('A' for Active; 'I' for Inactive)
REMARK    1  A    between atoms: C_17  and  C_4 
REMARK    2  A    between atoms: C_6  and  C_8 
REMARK       I    between atoms: C_8  and  N_16 
REMARK    3  A    between atoms: N_16  and  C_18 
REMARK    4  A    between atoms: C_18  and  C_17 
ROOT
ATOM      1  C   UNL d   1     -46.966  12.168  23.477  0.00  0.00     0.042 C 
ENDROOT
BRANCH   1   2
ATOM      2  C   UNL d   1     -46.281  11.700  23.482  0.00  0.00     0.103 A 
ATOM      3  N   UNL d   1     -45.515  11.947  23.289  0.00  0.00    -0.221 NA
ATOM      4  C   UNL d   1     -45.005  11.294  23.371  0.00  0.00     0.179 A 
ATOM      5  N   UNL d   1     -45.460  10.646  23.616  0.00  0.00    -0.282 N 
ATOM      6  S   UNL d   1     -44.223  11.046  23.303  0.00  0.00    -0.048 SA
ATOM      7  C   UNL d   1     -46.248  10.901  23.683  0.00  0.00     0.101 A 
ATOM      8  C   UNL d   1     -44.955  10.001  23.698  0.00  0.00     0.089 A 
ATOM      9  C   UNL d   1     -44.192  10.245  23.505  0.00  0.00     0.057 A 
ENDBRANCH   1   2
BRANCH   1  10
ATOM     10  C   UNL d   1     -47.332  12.345  22.757  0.00  0.00     0.104 C 
BRANCH  10  11
ATOM     11  N   UNL d   1     -48.136  12.567  22.741  0.00  0.00    -0.206 NA
ATOM     12  C   UNL d   1     -48.477  12.835  22.037  0.00  0.00     0.285 C 
ATOM     13  O   UNL d   1     -48.021  12.883  21.349  0.00  0.00    -0.265 OA
BRANCH  12  14
ATOM     14  C   UNL d   1     -49.273  13.054  22.021  0.00  0.00     0.087 A 
ATOM     15  S   UNL d   1     -49.573  13.820  22.155  0.00  0.00    -0.082 SA
ATOM     16  C   UNL d   1     -50.394  13.784  22.085  0.00  0.00     0.036 A 
ATOM     17  C   UNL d   1     -50.595  12.994  21.908  0.00  0.00     0.008 A 
ATOM     18  C   UNL d   1     -49.905  12.562  21.872  0.00  0.00     0.012 A 
ENDBRANCH  12  14
ENDBRANCH  10  11
ENDBRANCH   1  10
TORSDOF 4
ENDMDL
MODEL 6
REMARK VINA RESULT:      -5.3      2.072      4.490
REMARK  4 active torsions:
REMARK  status: ('A' for Active; 'I' for Inactive)
REMARK    1  A    between atoms: C_17  and  C_4 
REMARK    2  A    between atoms: C_6  and  C_8 
REMARK       I    between atoms: C_8  and  N_16 
REMARK    3  A    between atoms: N_16  and  C_18 
REMARK    4  A    between atoms: C_18  and  C_17 
ROOT
ATOM      1  C   UNL d   1     -47.007  12.840  23.294  0.00  0.00     0.042 C 
ENDROOT
BRANCH   1   2
ATOM      2  C   UNL d   1     -46.261  12.810  22.933  0.00  0.00     0.103 A 
ATOM      3  N   UNL d   1     -45.680  12.232  23.049  0.00  0.00    -0.221 NA
ATOM      4  C   UNL d   1     -45.025  12.424  22.575  0.00  0.00     0.179 A 
ATOM      5  N   UNL d   1     -45.203  13.123  22.166  0.00  0.00    -0.282 N 
ATOM      6  S   UNL d   1     -44.267  12.187  22.356  0.00  0.00    -0.048 SA
ATOM      7  C   UNL d   1     -45.968  13.358  22.391  0.00  0.00     0.101 A 
ATOM      8  C   UNL d   1     -44.554  13.313  21.698  0.00  0.00     0.089 A 
ATOM      9  C   UNL d   1     -43.976  12.738  21.812  0.00  0.00     0.057 A 
ENDBRANCH   1   2
BRANCH   1  10
ATOM     10  C   UNL d   1     -47.595  12.310  23.057  0.00  0.00     0.104 C 
BRANCH  10  11
ATOM     11  N   UNL d   1     -48.399  12.499  23.174  0.00  0.00    -0.206 NA
ATOM     12  C   UNL d   1     -48.987  11.963  22.949  0.00  0.00     0.285 C 
ATOM     13  O   UNL d   1     -48.778  11.240  22.607  0.00  0.00    -0.265 OA
BRANCH  12  14
ATOM     14  C   UNL d   1     -49.783  12.150  23.065  0.00  0.00     0.087 A 
ATOM     15  S   UNL d   1     -50.259  12.604  22.554  0.00  0.00    -0.082 SA
ATOM     16  C   UNL d   1     -51.012  12.650  22.887  0.00  0.00     0.036 A 
ATOM     17  C   UNL d   1     -50.995  12.222  23.603  0.00  0.00     0.008 A 
ATOM     18  C   UNL d   1     -50.243  11.924  23.698  0.00  0.00     0.012 A 
ENDBRANCH  12  14
ENDBRANCH  10  11
ENDBRANCH   1  10
TORSDOF 4
ENDMDL
MODEL 7
REMARK VINA RESULT:      -4.8      7.626      7.922
REMARK  4 active torsions:
REMARK  status: ('A' for Active; 'I' for Inactive)
REMARK    1  A    between atoms: C_17  and  C_4 
REMARK    2  A    between atoms: C_6  and  C_8 
REMARK       I    between atoms: C_8  and  N_16 
REMARK    3  A    between atoms: N_16  and  C_18 
REMARK    4  A    between atoms: C_18  and  C_17 
ROOT
ATOM      1  C   UNL d   1     -40.362  14.387  19.925  0.00  0.00     0.042 C 
ENDROOT
BRANCH   1   2
ATOM      2  C   UNL d   1     -40.464  14.654  19.147  0.00  0.00     0.103 A 
ATOM      3  N   UNL d   1     -40.315  14.225  18.455  0.00  0.00    -0.221 NA
ATOM      4  C   UNL d   1     -40.495  14.711  17.805  0.00  0.00     0.179 A 
ATOM      5  N   UNL d   1     -40.756  15.441  18.098  0.00  0.00    -0.282 N 
ATOM      6  S   UNL d   1     -40.514  14.745  16.982  0.00  0.00    -0.048 SA
ATOM      7  C   UNL d   1     -40.735  15.402  18.928  0.00  0.00     0.101 A 
ATOM      8  C   UNL d   1     -40.934  15.922  17.455  0.00  0.00     0.089 A 
ATOM      9  C   UNL d   1     -40.786  15.495  16.765  0.00  0.00     0.057 A 
ENDBRANCH   1   2
BRANCH   1  10
ATOM     10  C   UNL d   1     -39.613  14.429  20.274  0.00  0.00     0.104 C 
BRANCH  10  11
ATOM     11  N   UNL d   1     -39.518  14.238  21.080  0.00  0.00    -0.206 NA
ATOM     12  C   UNL d   1     -38.760  14.190  21.408  0.00  0.00     0.285 C 
ATOM     13  O   UNL d   1     -38.096  14.332  20.934  0.00  0.00    -0.265 OA
BRANCH  12  14
ATOM     14  C   UNL d   1     -38.665  14.001  22.205  0.00  0.00     0.087 A 
ATOM     15  S   UNL d   1     -38.560  14.543  22.828  0.00  0.00    -0.082 SA
ATOM     16  C   UNL d   1     -38.489  14.112  23.528  0.00  0.00     0.036 A 
ATOM     17  C   UNL d   1     -38.551  13.304  23.331  0.00  0.00     0.008 A 
ATOM     18  C   UNL d   1     -38.658  13.251  22.525  0.00  0.00     0.012 A 
ENDBRANCH  12  14
ENDBRANCH  10  11
ENDBRANCH   1  10
TORSDOF 4
ENDMDL
