MODEL 1
REMARK VINA RESULT:      -0.8      0.000      0.000
REMARK  5 active torsions:
REMARK  status: ('A' for Active; 'I' for Inactive)
REMARK    1  A    between atoms: C_2  and  C_1 
REMARK    2  A    between atoms: C_3  and  C_2 
REMARK    3  A    between atoms: C_6  and  C_3 
REMARK    4  A    between atoms: O_15  and  C_12 
REMARK    5  A    between atoms: O_14  and  C_13 
ROOT
ATOM      1  C   UNL d   1     -41.791-122.349 -51.451  0.00  0.00     0.143 C 
ATOM      2  C   UNL d   1     -41.462-121.692 -51.046  0.00  0.00     0.107 C 
ATOM      3  N   UNL d   1     -41.133-121.035 -50.654  0.00  0.00    -0.191 NA
ENDROOT
BRANCH   1   4
ATOM      4  C   UNL d   1     -41.733-122.402 -52.284  0.00  0.00     0.175 A 
ATOM      5  N   UNL d   1     -41.904-121.839 -52.848  0.00  0.00    -0.225 NA
ATOM      6  C   UNL d   1     -41.768-122.131 -53.565  0.00  0.00     0.101 A 
ATOM      7  C   UNL d   1     -41.842-121.822 -54.299  0.00  0.00     0.021 A 
ATOM      8  C   UNL d   1     -41.499-122.908 -53.494  0.00  0.00     0.101 A 
ATOM      9  C   UNL d   1     -41.655-122.264 -54.984  0.00  0.00     0.002 A 
ATOM     10  C   UNL d   1     -41.394-123.022 -54.875  0.00  0.00     0.002 A 
ATOM     11  C   UNL d   1     -41.322-123.329 -54.134  0.00  0.00     0.021 A 
ATOM     12  N   UNL d   1     -41.481-123.068 -52.674  0.00  0.00    -0.225 NA
ENDBRANCH   1   4
BRANCH   1  13
ATOM     13  C   UNL d   1     -42.162-122.924 -50.999  0.00  0.00     0.212 C 
ATOM     14  O   UNL d   1     -42.171-123.709 -51.267  0.00  0.00    -0.286 OA
BRANCH  13  15
ATOM     15  C   UNL d   1     -42.527-122.740 -50.286  0.00  0.00     0.084 A 
ATOM     16  C   UNL d   1     -42.143-122.922 -49.586  0.00  0.00     0.099 A 
ATOM     17  C   UNL d   1     -42.509-122.738 -48.849  0.00  0.00     0.024 A 
ATOM     18  C   UNL d   1     -43.255-122.374 -48.859  0.00  0.00     0.004 A 
ATOM     19  C   UNL d   1     -43.637-122.192 -49.576  0.00  0.00     0.024 A 
ATOM     20  C   UNL d   1     -43.251-122.387 -50.293  0.00  0.00     0.099 A 
BRANCH  16  21
ATOM     21  O   UNL d   1     -41.399-123.285 -49.552  0.00  0.00    -0.328 OA
ATOM     22  C   UNL d   1     -41.167-123.688 -48.858  0.00  0.00     0.181 C 
ENDBRANCH  16  21
BRANCH  20  23
ATOM     23  O   UNL d   1     -43.628-122.208 -51.009  0.00  0.00    -0.328 OA
ATOM     24  C   UNL d   1     -44.432-122.032 -51.037  0.00  0.00     0.181 C 
ENDBRANCH  20  23
ENDBRANCH  13  15
ENDBRANCH   1  13
TORSDOF 5
ENDMDL
MODEL 2
REMARK VINA RESULT:       0.9      1.282      2.091
REMARK  5 active torsions:
REMARK  status: ('A' for Active; 'I' for Inactive)
REMARK    1  A    between atoms: C_2  and  C_1 
REMARK    2  A    between atoms: C_3  and  C_2 
REMARK    3  A    between atoms: C_6  and  C_3 
REMARK    4  A    between atoms: O_15  and  C_12 
REMARK    5  A    between atoms: O_14  and  C_13 
ROOT
ATOM      1  C   UNL d   1     -41.967-122.478 -52.558  0.00  0.00     0.143 C 
ATOM      2  C   UNL d   1     -41.544-123.149 -52.282  0.00  0.00     0.107 C 
ATOM      3  N   UNL d   1     -41.123-123.817 -52.020  0.00  0.00    -0.191 NA
ENDROOT
BRANCH   1   4
ATOM      4  C   UNL d   1     -42.025-122.324 -53.378  0.00  0.00     0.175 A 
ATOM      5  N   UNL d   1     -42.669-122.072 -53.810  0.00  0.00    -0.225 NA
ATOM      6  C   UNL d   1     -42.471-122.001 -54.567  0.00  0.00     0.101 A 
ATOM      7  C   UNL d   1     -42.882-121.778 -55.216  0.00  0.00     0.021 A 
ATOM      8  C   UNL d   1     -41.677-122.207 -54.658  0.00  0.00     0.101 A 
ATOM      9  C   UNL d   1     -42.527-121.750 -55.973  0.00  0.00     0.002 A 
ATOM     10  C   UNL d   1     -41.747-121.959 -56.024  0.00  0.00     0.002 A 
ATOM     11  C   UNL d   1     -41.338-122.183 -55.367  0.00  0.00     0.021 A 
ATOM     12  N   UNL d   1     -41.406-122.411 -53.894  0.00  0.00    -0.225 NA
ENDBRANCH   1   4
BRANCH   1  13
ATOM     13  C   UNL d   1     -42.311-121.992 -51.994  0.00  0.00     0.212 C 
ATOM     14  O   UNL d   1     -43.027-121.611 -52.169  0.00  0.00    -0.286 OA
BRANCH  13  15
ATOM     15  C   UNL d   1     -41.964-121.872 -51.259  0.00  0.00     0.084 A 
ATOM     16  C   UNL d   1     -41.486-121.216 -51.148  0.00  0.00     0.099 A 
ATOM     17  C   UNL d   1     -41.125-121.085 -50.397  0.00  0.00     0.024 A 
ATOM     18  C   UNL d   1     -41.268-121.632 -49.790  0.00  0.00     0.004 A 
ATOM     19  C   UNL d   1     -41.755-122.296 -49.913  0.00  0.00     0.024 A 
ATOM     20  C   UNL d   1     -42.101-122.402 -50.668  0.00  0.00     0.099 A 
BRANCH  16  21
ATOM     21  O   UNL d   1     -41.329-120.658 -51.740  0.00  0.00    -0.328 OA
ATOM     22  C   UNL d   1     -41.150-119.870 -51.528  0.00  0.00     0.181 C 
ENDBRANCH  16  21
BRANCH  20  23
ATOM     23  O   UNL d   1     -42.587-123.062 -50.794  0.00  0.00    -0.328 OA
ATOM     24  C   UNL d   1     -43.046-123.377 -50.188  0.00  0.00     0.181 C 
ENDBRANCH  20  23
ENDBRANCH  13  15
ENDBRANCH   1  13
TORSDOF 5
ENDMDL
