MODEL 1
REMARK VINA RESULT:     127.3      0.000      0.000
REMARK  7 active torsions:
REMARK  status: ('A' for Active; 'I' for Inactive)
REMARK    1  A    between atoms: S_2  and  N_1 
REMARK    2  A    between atoms: C_3  and  N_1 
REMARK       I    between atoms: C_4  and  N_1 
REMARK    3  A    between atoms: C_10  and  S_2 
REMARK    4  A    between atoms: C_15  and  C_4 
REMARK    5  A    between atoms: C_6  and  O_8 
REMARK    6  A    between atoms: C_18  and  C_6 
REMARK    7  A    between atoms: O_8  and  C_7 
ROOT
ATOM      1  C   UNL d   1     -48.625  28.545  35.310  0.00  0.00     0.078 A 
ATOM      2  C   UNL d   1     -49.166  28.239  35.844  0.00  0.00     0.019 A 
ATOM      3  C   UNL d   1     -49.705  27.372  34.891  0.00  0.00     0.103 A 
ATOM      4  C   UNL d   1     -49.696  27.665  35.643  0.00  0.00     0.024 A 
ATOM      5  C   UNL d   1     -48.629  28.254  34.551  0.00  0.00     0.020 A 
ATOM      6  C   UNL d   1     -49.164  27.673  34.346  0.00  0.00     0.026 A 
ATOM      7  C   UNL d   1     -49.153  28.543  36.611  0.00  0.00     0.002 A 
ATOM      8  C   UNL d   1     -50.242  27.358  36.184  0.00  0.00     0.002 A 
ATOM      9  C   UNL d   1     -49.694  28.237  37.146  0.00  0.00     0.000 A 
ATOM     10  C   UNL d   1     -50.225  27.662  36.944  0.00  0.00     0.000 A 
ENDROOT
BRANCH   1  11
ATOM     11  N   UNL d   1     -48.071  29.149  35.531  0.00  0.00    -0.198 N 
ATOM     12  C   UNL d   1     -47.506  28.983  36.136  0.00  0.00     0.274 C 
ATOM     13  O   UNL d   1     -47.499  28.250  36.497  0.00  0.00    -0.266 OA
BRANCH  11  14
ATOM     14  S   UNL d   1     -48.068  29.897  35.173  0.00  0.00     0.274 S 
ATOM     15  O   UNL d   1     -48.576  30.211  35.796  0.00  0.00    -0.200 OA
ATOM     16  O   UNL d   1     -47.583  29.593  34.579  0.00  0.00    -0.200 OA
BRANCH  14  17
ATOM     17  C   UNL d   1     -48.050  30.661  34.783  0.00  0.00     0.104 A 
ATOM     18  C   UNL d   1     -48.649  31.158  34.863  0.00  0.00     0.013 A 
ATOM     19  C   UNL d   1     -48.660  31.921  34.489  0.00  0.00     0.001 A 
ATOM     20  C   UNL d   1     -48.022  32.140  34.031  0.00  0.00     0.000 A 
ATOM     21  C   UNL d   1     -47.344  31.600  33.929  0.00  0.00     0.001 A 
ATOM     22  C   UNL d   1     -48.070  32.901  33.679  0.00  0.00     0.000 C 
ATOM     23  C   UNL d   1     -47.370  30.836  34.323  0.00  0.00     0.013 A 
ENDBRANCH  14  17
ENDBRANCH  11  14
BRANCH  12  24
ATOM     24  C   UNL d   1     -46.978  29.569  36.343  0.00  0.00     0.060 A 
ATOM     25  C   UNL d   1     -47.109  29.989  37.064  0.00  0.00     0.025 A 
ATOM     26  C   UNL d   1     -46.604  30.574  37.297  0.00  0.00     0.099 A 
ATOM     27  N   UNL d   1     -45.957  30.772  36.842  0.00  0.00    -0.242 NA
ATOM     28  C   UNL d   1     -45.818  30.364  36.129  0.00  0.00     0.099 A 
ATOM     29  C   UNL d   1     -46.308  29.784  35.888  0.00  0.00     0.025 A 
ENDBRANCH  12  24
ENDBRANCH   1  11
BRANCH   3  30
ATOM     30  O   UNL d   1     -50.259  26.767  34.669  0.00  0.00    -0.273 OA
BRANCH  30  31
ATOM     31  C   UNL d   1     -50.500  26.601  33.886  0.00  0.00     0.300 C 
ATOM     32  O   UNL d   1     -50.524  27.150  33.307  0.00  0.00    -0.259 OA
BRANCH  31  33
ATOM     33  C   UNL d   1     -50.722  25.830  33.709  0.00  0.00     0.067 A 
ATOM     34  C   UNL d   1     -51.516  25.577  33.737  0.00  0.00     0.026 A 
ATOM     35  C   UNL d   1     -51.708  24.767  33.546  0.00  0.00     0.099 A 
ATOM     36  N   UNL d   1     -51.139  24.257  33.344  0.00  0.00    -0.242 NA
ATOM     37  C   UNL d   1     -50.362  24.464  33.307  0.00  0.00     0.099 A 
ATOM     38  C   UNL d   1     -50.169  25.257  33.492  0.00  0.00     0.026 A 
ENDBRANCH  31  33
ENDBRANCH  30  31
ENDBRANCH   3  30
TORSDOF 7
ENDMDL
