MODEL 1
REMARK VINA RESULT:      -9.8      0.000      0.000
REMARK  3 active torsions:
REMARK  status: ('A' for Active; 'I' for Inactive)
REMARK    1  A    between atoms: C_8  and  C_1 
REMARK    2  A    between atoms: N_7  and  C_8 
REMARK    3  A    between atoms: C_13  and  C_8 
ROOT
ATOM      1  C   UNL d   1      53.219  32.361  53.679  0.00  0.00     0.075 C 
ENDROOT
BRANCH   1   2
ATOM      2  N   UNL d   1      53.238  31.555  53.520  0.00  0.00    -0.303 N 
ATOM      3  C   UNL d   1      53.136  31.009  54.120  0.00  0.00     0.080 A 
ATOM      4  C   UNL d   1      53.156  30.200  53.953  0.00  0.00     0.018 A 
ATOM      5  C   UNL d   1      53.054  29.653  54.554  0.00  0.00     0.002 C 
ATOM      6  C   UNL d   1      53.279  29.937  53.180  0.00  0.00     0.003 A 
ATOM      7  C   UNL d   1      53.381  30.498  52.584  0.00  0.00     0.019 A 
ATOM      8  C   UNL d   1      53.361  31.306  52.748  0.00  0.00     0.080 A 
ENDBRANCH   1   2
BRANCH   1   9
ATOM      9  C   UNL d   1      52.569  32.806  53.432  0.00  0.00     0.106 A 
ATOM     10  C   UNL d   1      52.519  33.248  52.730  0.00  0.00     0.290 A 
ATOM     11  N   UNL d   1      51.777  33.603  52.704  0.00  0.00    -0.169 N 
ATOM     12  O   UNL d   1      53.112  33.318  52.159  0.00  0.00    -0.265 OA
ATOM     13  N   UNL d   1      51.288  34.090  52.265  0.00  0.00    -0.138 NA
ATOM     14  C   UNL d   1      51.368  33.383  53.386  0.00  0.00     0.200 A 
ATOM     15  C   UNL d   1      50.575  34.176  52.668  0.00  0.00     0.222 A 
ATOM     16  N   UNL d   1      50.625  33.738  53.362  0.00  0.00    -0.197 NA
ATOM     17  S   UNL d   1      51.853  32.894  53.834  0.00  0.00    -0.042 SA
ENDBRANCH   1   9
BRANCH   1  18
ATOM     18  C   UNL d   1      53.835  32.722  54.078  0.00  0.00     0.017 A 
ATOM     19  C   UNL d   1      54.520  32.909  53.684  0.00  0.00     0.002 A 
ATOM     20  C   UNL d   1      55.122  33.265  54.084  0.00  0.00     0.000 A 
ATOM     21  C   UNL d   1      55.050  33.444  54.899  0.00  0.00     0.000 A 
ATOM     22  C   UNL d   1      54.370  33.256  55.281  0.00  0.00     0.000 A 
ATOM     23  C   UNL d   1      53.746  32.891  54.882  0.00  0.00     0.002 A 
ENDBRANCH   1  18
TORSDOF 3
ENDMDL
MODEL 2
REMARK VINA RESULT:      -9.4      0.399      2.361
REMARK  3 active torsions:
REMARK  status: ('A' for Active; 'I' for Inactive)
REMARK    1  A    between atoms: C_8  and  C_1 
REMARK    2  A    between atoms: N_7  and  C_8 
REMARK    3  A    between atoms: C_13  and  C_8 
ROOT
ATOM      1  C   UNL d   1      53.151  32.309  53.569  0.00  0.00     0.075 C 
ENDROOT
BRANCH   1   2
ATOM      2  N   UNL d   1      53.820  32.669  53.881  0.00  0.00    -0.303 N 
ATOM      3  C   UNL d   1      53.847  32.885  54.670  0.00  0.00     0.080 A 
ATOM      4  C   UNL d   1      54.524  33.247  54.977  0.00  0.00     0.018 A 
ATOM      5  C   UNL d   1      54.552  33.463  55.766  0.00  0.00     0.002 C 
ATOM      6  C   UNL d   1      55.175  33.394  54.492  0.00  0.00     0.003 A 
ATOM      7  C   UNL d   1      55.134  33.172  53.698  0.00  0.00     0.019 A 
ATOM      8  C   UNL d   1      54.461  32.810  53.389  0.00  0.00     0.080 A 
ENDBRANCH   1   2
BRANCH   1   9
ATOM      9  C   UNL d   1      52.502  32.774  53.360  0.00  0.00     0.106 A 
ATOM     10  C   UNL d   1      52.407  33.187  52.644  0.00  0.00     0.290 A 
ATOM     11  N   UNL d   1      51.683  33.576  52.668  0.00  0.00    -0.169 N 
ATOM     12  O   UNL d   1      52.949  33.201  52.020  0.00  0.00    -0.265 OA
ATOM     13  N   UNL d   1      51.178  34.067  52.250  0.00  0.00    -0.138 NA
ATOM     14  C   UNL d   1      51.329  33.407  53.394  0.00  0.00     0.200 A 
ATOM     15  C   UNL d   1      50.510  34.205  52.711  0.00  0.00     0.222 A 
ATOM     16  N   UNL d   1      50.604  33.797  53.418  0.00  0.00    -0.197 NA
ATOM     17  S   UNL d   1      51.830  32.915  53.819  0.00  0.00    -0.042 SA
ENDBRANCH   1   9
BRANCH   1  18
ATOM     18  C   UNL d   1      53.123  31.497  53.466  0.00  0.00     0.017 A 
ATOM     19  C   UNL d   1      53.241  31.178  52.728  0.00  0.00     0.002 A 
ATOM     20  C   UNL d   1      53.213  30.378  52.635  0.00  0.00     0.000 A 
ATOM     21  C   UNL d   1      53.064  29.874  53.286  0.00  0.00     0.000 A 
ATOM     22  C   UNL d   1      52.948  30.198  54.012  0.00  0.00     0.000 A 
ATOM     23  C   UNL d   1      52.975  31.016  54.120  0.00  0.00     0.002 A 
ENDBRANCH   1  18
TORSDOF 3
ENDMDL
MODEL 3
REMARK VINA RESULT:      -9.1      1.289      2.761
REMARK  3 active torsions:
REMARK  status: ('A' for Active; 'I' for Inactive)
REMARK    1  A    between atoms: C_8  and  C_1 
REMARK    2  A    between atoms: N_7  and  C_8 
REMARK    3  A    between atoms: C_13  and  C_8 
ROOT
ATOM      1  C   UNL d   1      53.011  32.444  53.561  0.00  0.00     0.075 C 
ENDROOT
BRANCH   1   2
ATOM      2  N   UNL d   1      53.045  31.639  53.399  0.00  0.00    -0.303 N 
ATOM      3  C   UNL d   1      53.042  31.092  54.008  0.00  0.00     0.080 A 
ATOM      4  C   UNL d   1      53.076  30.284  53.838  0.00  0.00     0.018 A 
ATOM      5  C   UNL d   1      53.073  29.736  54.446  0.00  0.00     0.002 C 
ATOM      6  C   UNL d   1      53.113  30.023  53.056  0.00  0.00     0.003 A 
ATOM      7  C   UNL d   1      53.116  30.586  52.452  0.00  0.00     0.019 A 
ATOM      8  C   UNL d   1      53.082  31.392  52.618  0.00  0.00     0.080 A 
ENDBRANCH   1   2
BRANCH   1   9
ATOM      9  C   UNL d   1      53.615  32.793  54.002  0.00  0.00     0.106 A 
ATOM     10  C   UNL d   1      54.358  33.032  53.712  0.00  0.00     0.290 A 
ATOM     11  N   UNL d   1      54.786  33.350  54.338  0.00  0.00    -0.169 N 
ATOM     12  O   UNL d   1      54.616  32.960  52.931  0.00  0.00    -0.265 OA
ATOM     13  N   UNL d   1      55.499  33.692  54.550  0.00  0.00    -0.138 NA
ATOM     14  C   UNL d   1      54.313  33.311  55.014  0.00  0.00     0.200 A 
ATOM     15  C   UNL d   1      55.475  33.866  55.355  0.00  0.00     0.222 A 
ATOM     16  N   UNL d   1      54.741  33.630  55.641  0.00  0.00    -0.197 NA
ATOM     17  S   UNL d   1      53.595  32.969  54.809  0.00  0.00    -0.042 SA
ENDBRANCH   1   9
BRANCH   1  18
ATOM     18  C   UNL d   1      52.388  32.899  53.288  0.00  0.00     0.017 A 
ATOM     19  C   UNL d   1      52.465  33.324  52.601  0.00  0.00     0.002 A 
ATOM     20  C   UNL d   1      51.846  33.769  52.340  0.00  0.00     0.000 A 
ATOM     21  C   UNL d   1      51.127  33.800  52.767  0.00  0.00     0.000 A 
ATOM     22  C   UNL d   1      51.059  33.376  53.447  0.00  0.00     0.000 A 
ATOM     23  C   UNL d   1      51.687  32.917  53.724  0.00  0.00     0.002 A 
ENDBRANCH   1  18
TORSDOF 3
ENDMDL
MODEL 4
REMARK VINA RESULT:      -9.0      1.360      3.343
REMARK  3 active torsions:
REMARK  status: ('A' for Active; 'I' for Inactive)
REMARK    1  A    between atoms: C_8  and  C_1 
REMARK    2  A    between atoms: N_7  and  C_8 
REMARK    3  A    between atoms: C_13  and  C_8 
ROOT
ATOM      1  C   UNL d   1      53.090  32.476  53.541  0.00  0.00     0.075 C 
ENDROOT
BRANCH   1   2
ATOM      2  N   UNL d   1      52.522  32.959  53.195  0.00  0.00    -0.303 N 
ATOM      3  C   UNL d   1      51.783  33.042  53.536  0.00  0.00     0.080 A 
ATOM      4  C   UNL d   1      51.216  33.528  53.183  0.00  0.00     0.018 A 
ATOM      5  C   UNL d   1      50.476  33.612  53.523  0.00  0.00     0.002 C 
ATOM      6  C   UNL d   1      51.391  33.934  52.485  0.00  0.00     0.003 A 
ATOM      7  C   UNL d   1      52.140  33.841  52.152  0.00  0.00     0.019 A 
ATOM      8  C   UNL d   1      52.707  33.357  52.502  0.00  0.00     0.080 A 
ENDBRANCH   1   2
BRANCH   1   9
ATOM      9  C   UNL d   1      53.677  32.817  54.011  0.00  0.00     0.106 A 
ATOM     10  C   UNL d   1      54.443  33.024  53.763  0.00  0.00     0.290 A 
ATOM     11  N   UNL d   1      54.842  33.345  54.407  0.00  0.00    -0.169 N 
ATOM     12  O   UNL d   1      54.747  32.924  53.001  0.00  0.00    -0.265 OA
ATOM     13  N   UNL d   1      55.551  33.669  54.655  0.00  0.00    -0.138 NA
ATOM     14  C   UNL d   1      54.328  33.338  55.052  0.00  0.00     0.200 A 
ATOM     15  C   UNL d   1      55.484  33.864  55.452  0.00  0.00     0.222 A 
ATOM     16  N   UNL d   1      54.726  33.659  55.697  0.00  0.00    -0.197 NA
ATOM     17  S   UNL d   1      53.612  33.014  54.811  0.00  0.00    -0.042 SA
ENDBRANCH   1   9
BRANCH   1  18
ATOM     18  C   UNL d   1      53.079  31.667  53.423  0.00  0.00     0.017 A 
ATOM     19  C   UNL d   1      53.232  31.361  52.686  0.00  0.00     0.002 A 
ATOM     20  C   UNL d   1      53.218  30.563  52.579  0.00  0.00     0.000 A 
ATOM     21  C   UNL d   1      53.049  30.046  53.215  0.00  0.00     0.000 A 
ATOM     22  C   UNL d   1      52.899  30.356  53.940  0.00  0.00     0.000 A 
ATOM     23  C   UNL d   1      52.910  31.172  54.062  0.00  0.00     0.002 A 
ENDBRANCH   1  18
TORSDOF 3
ENDMDL
MODEL 5
REMARK VINA RESULT:      -8.8      1.038      3.044
REMARK  3 active torsions:
REMARK  status: ('A' for Active; 'I' for Inactive)
REMARK    1  A    between atoms: C_8  and  C_1 
REMARK    2  A    between atoms: N_7  and  C_8 
REMARK    3  A    between atoms: C_13  and  C_8 
ROOT
ATOM      1  C   UNL d   1      53.121  32.515  53.709  0.00  0.00     0.075 C 
ENDROOT
BRANCH   1   2
ATOM      2  N   UNL d   1      52.486  32.977  53.468  0.00  0.00    -0.303 N 
ATOM      3  C   UNL d   1      52.534  33.428  52.787  0.00  0.00     0.080 A 
ATOM      4  C   UNL d   1      51.892  33.890  52.551  0.00  0.00     0.018 A 
ATOM      5  C   UNL d   1      51.939  34.341  51.869  0.00  0.00     0.002 C 
ATOM      6  C   UNL d   1      51.198  33.901  52.999  0.00  0.00     0.003 A 
ATOM      7  C   UNL d   1      51.164  33.443  53.683  0.00  0.00     0.019 A 
ATOM      8  C   UNL d   1      51.803  32.980  53.921  0.00  0.00     0.080 A 
ENDBRANCH   1   2
BRANCH   1   9
ATOM      9  C   UNL d   1      53.072  31.694  53.640  0.00  0.00     0.106 A 
ATOM     10  C   UNL d   1      53.137  31.258  52.935  0.00  0.00     0.290 A 
ATOM     11  N   UNL d   1      53.054  30.460  53.120  0.00  0.00    -0.169 N 
ATOM     12  O   UNL d   1      53.262  31.573  52.182  0.00  0.00    -0.265 OA
ATOM     13  N   UNL d   1      53.043  29.703  52.808  0.00  0.00    -0.138 NA
ATOM     14  C   UNL d   1      52.939  30.400  53.934  0.00  0.00     0.200 A 
ATOM     15  C   UNL d   1      52.920  29.170  53.423  0.00  0.00     0.222 A 
ATOM     16  N   UNL d   1      52.856  29.602  54.120  0.00  0.00    -0.197 NA
ATOM     17  S   UNL d   1      52.949  31.156  54.255  0.00  0.00    -0.042 SA
ENDBRANCH   1   9
BRANCH   1  18
ATOM     18  C   UNL d   1      53.797  32.860  54.015  0.00  0.00     0.017 A 
ATOM     19  C   UNL d   1      54.443  32.981  53.537  0.00  0.00     0.002 A 
ATOM     20  C   UNL d   1      55.104  33.322  53.846  0.00  0.00     0.000 A 
ATOM     21  C   UNL d   1      55.135  33.551  54.651  0.00  0.00     0.000 A 
ATOM     22  C   UNL d   1      54.492  33.428  55.116  0.00  0.00     0.000 A 
ATOM     23  C   UNL d   1      53.808  33.080  54.811  0.00  0.00     0.002 A 
ENDBRANCH   1  18
TORSDOF 3
ENDMDL
MODEL 6
REMARK VINA RESULT:      -8.7      1.361      3.255
REMARK  3 active torsions:
REMARK  status: ('A' for Active; 'I' for Inactive)
REMARK    1  A    between atoms: C_8  and  C_1 
REMARK    2  A    between atoms: N_7  and  C_8 
REMARK    3  A    between atoms: C_13  and  C_8 
ROOT
ATOM      1  C   UNL d   1      53.125  32.498  53.588  0.00  0.00     0.075 C 
ENDROOT
BRANCH   1   2
ATOM      2  N   UNL d   1      53.834  32.827  53.841  0.00  0.00    -0.303 N 
ATOM      3  C   UNL d   1      53.933  33.056  54.621  0.00  0.00     0.080 A 
ATOM      4  C   UNL d   1      54.648  33.386  54.868  0.00  0.00     0.018 A 
ATOM      5  C   UNL d   1      54.747  33.615  55.648  0.00  0.00     0.002 C 
ATOM      6  C   UNL d   1      55.268  33.487  54.332  0.00  0.00     0.003 A 
ATOM      7  C   UNL d   1      55.156  33.253  53.550  0.00  0.00     0.019 A 
ATOM      8  C   UNL d   1      54.443  32.923  53.300  0.00  0.00     0.080 A 
ENDBRANCH   1   2
BRANCH   1   9
ATOM      9  C   UNL d   1      53.046  31.677  53.567  0.00  0.00     0.106 A 
ATOM     10  C   UNL d   1      53.043  31.203  52.883  0.00  0.00     0.290 A 
ATOM     11  N   UNL d   1      52.952  30.419  53.115  0.00  0.00    -0.169 N 
ATOM     12  O   UNL d   1      53.118  31.476  52.107  0.00  0.00    -0.265 OA
ATOM     13  N   UNL d   1      52.893  29.649  52.846  0.00  0.00    -0.138 NA
ATOM     14  C   UNL d   1      52.898  30.404  53.939  0.00  0.00     0.200 A 
ATOM     15  C   UNL d   1      52.804  29.152  53.496  0.00  0.00     0.222 A 
ATOM     16  N   UNL d   1      52.807  29.620  54.172  0.00  0.00    -0.197 NA
ATOM     17  S   UNL d   1      52.956  31.175  54.217  0.00  0.00    -0.042 SA
ENDBRANCH   1   9
BRANCH   1  18
ATOM     18  C   UNL d   1      52.501  32.975  53.358  0.00  0.00     0.017 A 
ATOM     19  C   UNL d   1      52.530  33.368  52.648  0.00  0.00     0.002 A 
ATOM     20  C   UNL d   1      51.912  33.835  52.430  0.00  0.00     0.000 A 
ATOM     21  C   UNL d   1      51.242  33.922  52.924  0.00  0.00     0.000 A 
ATOM     22  C   UNL d   1      51.221  33.531  53.625  0.00  0.00     0.000 A 
ATOM     23  C   UNL d   1      51.849  33.049  53.859  0.00  0.00     0.002 A 
ENDBRANCH   1  18
TORSDOF 3
ENDMDL
