MODEL 1
REMARK VINA RESULT:      37.1      0.000      0.000
REMARK  5 active torsions:
REMARK  status: ('A' for Active; 'I' for Inactive)
REMARK    1  A    between atoms: C_7  and  N_1 
REMARK       I    between atoms: C_4  and  N_8 
REMARK       I    between atoms: N_10  and  C_4 
REMARK    2  A    between atoms: N_8  and  C_5 
REMARK    3  A    between atoms: C_15  and  N_10 
REMARK    4  A    between atoms: O_18  and  C_14 
REMARK    5  A    between atoms: C_19  and  C_15 
ROOT
ATOM      1  N   UNL d   1     -54.722-101.322 -41.617  0.00  0.00    -0.272 N 
ATOM      2  C   UNL d   1     -54.734-102.121 -41.834  0.00  0.00     0.266 A 
ATOM      3  C   UNL d   1     -54.732-102.563 -41.131  0.00  0.00     0.082 A 
ATOM      4  C   UNL d   1     -54.719-102.039 -40.494  0.00  0.00     0.108 A 
ATOM      5  C   UNL d   1     -54.712-101.272 -40.802  0.00  0.00     0.102 A 
ATOM      6  O   UNL d   1     -54.745-102.419 -42.597  0.00  0.00    -0.267 OA
ENDROOT
BRANCH   1   7
ATOM      7  C   UNL d   1     -54.719-100.685 -42.141  0.00  0.00     0.067 A 
ATOM      8  C   UNL d   1     -54.722-100.822 -42.957  0.00  0.00     0.020 A 
ATOM      9  C   UNL d   1     -54.720-100.185 -43.481  0.00  0.00     0.026 A 
ATOM     10  C   UNL d   1     -54.715 -99.413 -43.192  0.00  0.00     0.094 A 
ATOM     11  C   UNL d   1     -54.712 -99.271 -42.382  0.00  0.00     0.026 A 
ATOM     12  C   UNL d   1     -54.714 -99.914 -41.853  0.00  0.00     0.020 A 
BRANCH  10  13
ATOM     13  O   UNL d   1     -54.713 -98.782 -43.723  0.00  0.00    -0.328 OA
ATOM     14  C   UNL d   1     -54.953 -98.906 -44.501  0.00  0.00     0.181 C 
ENDBRANCH  10  13
ENDBRANCH   1   7
BRANCH   4  15
ATOM     15  N   UNL d   1     -54.713-102.250 -39.694  0.00  0.00    -0.189 NA
ATOM     16  C   UNL d   1     -55.362-102.633 -39.371  0.00  0.00     0.369 C 
ATOM     17  N   UNL d   1     -55.362-102.846 -38.572  0.00  0.00    -0.189 NA
ATOM     18  O   UNL d   1     -56.017-102.809 -39.837  0.00  0.00    -0.242 OA
BRANCH  17  19
ATOM     19  C   UNL d   1     -54.711-102.671 -38.113  0.00  0.00     0.104 C 
BRANCH  19  20
ATOM     20  C   UNL d   1     -54.807-102.364 -37.353  0.00  0.00     0.019 C 
ATOM     21  C   UNL d   1     -54.766-101.553 -37.220  0.00  0.00     0.002 C 
ATOM     22  C   UNL d   1     -54.947-102.874 -36.715  0.00  0.00     0.002 C 
ENDBRANCH  19  20
ENDBRANCH  17  19
ENDBRANCH   4  15
TORSDOF 5
ENDMDL
