MODEL 1
REMARK VINA RESULT:      93.7      0.000      0.000
REMARK  8 active torsions:
REMARK  status: ('A' for Active; 'I' for Inactive)
REMARK    1  A    between atoms: C_13  and  N_1 
REMARK    2  A    between atoms: C_2  and  N_6 
REMARK    3  A    between atoms: C_9  and  C_5 
REMARK       I    between atoms: N_6  and  C_9 
REMARK    4  A    between atoms: S_16  and  C_7 
REMARK    5  A    between atoms: C_14  and  C_27 
REMARK       I    between atoms: N_20  and  C_14 
REMARK    6  A    between atoms: C_15  and  C_28 
REMARK    7  A    between atoms: C_27  and  S_16 
REMARK    8  A    between atoms: C_28  and  N_20 
ROOT
ATOM      1  C   UNL d   1     -55.204-102.028 -39.805  0.00  0.00     0.219 A 
ATOM      2  S   UNL d   1     -55.819-101.980 -39.344  0.00  0.00    -0.019 SA
ATOM      3  C   UNL d   1     -55.718-102.463 -38.765  0.00  0.00     0.165 A 
ATOM      4  N   UNL d   1     -54.719-102.546 -39.508  0.00  0.00    -0.120 NA
ATOM      5  N   UNL d   1     -55.042-102.821 -38.852  0.00  0.00    -0.133 NA
ENDROOT
BRANCH   1   6
ATOM      6  N   UNL d   1     -55.091-101.628 -40.453  0.00  0.00    -0.181 NA
ATOM      7  C   UNL d   1     -55.311-101.919 -41.131  0.00  0.00     0.283 C 
ATOM      8  O   UNL d   1     -55.646-102.611 -41.164  0.00  0.00    -0.265 OA
BRANCH   7   9
ATOM      9  C   UNL d   1     -55.195-101.517 -41.774  0.00  0.00     0.080 A 
ATOM     10  C   UNL d   1     -55.265-101.773 -42.493  0.00  0.00     0.088 A 
ATOM     11  N   UNL d   1     -55.100-101.193 -42.969  0.00  0.00    -0.273 N 
ATOM     12  C   UNL d   1     -54.929-100.581 -42.547  0.00  0.00     0.265 A 
ATOM     13  C   UNL d   1     -54.986-100.776 -41.801  0.00  0.00     0.067 A 
ATOM     14  O   UNL d   1     -54.731 -99.882 -42.816  0.00  0.00    -0.267 OA
BRANCH  11  15
ATOM     15  C   UNL d   1     -55.108-101.231 -43.800  0.00  0.00     0.067 A 
ATOM     16  C   UNL d   1     -55.050-100.536 -44.239  0.00  0.00     0.020 A 
ATOM     17  C   UNL d   1     -55.059-100.585 -45.066  0.00  0.00     0.031 A 
ATOM     18  C   UNL d   1     -55.123-101.308 -45.442  0.00  0.00     0.140 A 
ATOM     19  C   UNL d   1     -55.181-102.003 -44.995  0.00  0.00     0.031 A 
ATOM     20  F   UNL d   1     -55.132-101.355 -46.276  0.00  0.00    -0.204 F 
ATOM     21  C   UNL d   1     -55.173-101.965 -44.181  0.00  0.00     0.020 A 
ENDBRANCH  11  15
ENDBRANCH   7   9
ENDBRANCH   1   6
BRANCH   3  22
ATOM     22  S   UNL d   1     -56.955-102.534 -37.606  0.00  0.00    -0.054 SA
BRANCH  22  23
ATOM     23  C   UNL d   1     -56.804-102.849 -36.857  0.00  0.00     0.100 C 
BRANCH  23  24
ATOM     24  C   UNL d   1     -56.539-102.353 -36.248  0.00  0.00     0.286 C 
ATOM     25  N   UNL d   1     -56.870-101.603 -36.169  0.00  0.00    -0.204 NA
ATOM     26  O   UNL d   1     -55.950-102.609 -35.726  0.00  0.00    -0.265 OA
BRANCH  25  27
ATOM     27  C   UNL d   1     -56.608-101.107 -35.563  0.00  0.00     0.127 C 
BRANCH  27  28
ATOM     28  C   UNL d   1     -55.954-100.615 -35.696  0.00  0.00     0.119 A 
ATOM     29  O   UNL d   1     -55.862 -99.835 -35.433  0.00  0.00    -0.304 OA
ATOM     30  C   UNL d   1     -55.123 -99.564 -35.697  0.00  0.00     0.123 A 
ATOM     31  C   UNL d   1     -54.754-100.170 -36.124  0.00  0.00     0.029 A 
ATOM     32  C   UNL d   1     -55.270-100.824 -36.123  0.00  0.00     0.028 A 
ENDBRANCH  27  28
ENDBRANCH  25  27
ENDBRANCH  23  24
ENDBRANCH  22  23
ENDBRANCH   3  22
TORSDOF 8
ENDMDL
MODEL 2
REMARK VINA RESULT:      95.8      3.124      3.793
REMARK  8 active torsions:
REMARK  status: ('A' for Active; 'I' for Inactive)
REMARK    1  A    between atoms: C_13  and  N_1 
REMARK    2  A    between atoms: C_2  and  N_6 
REMARK    3  A    between atoms: C_9  and  C_5 
REMARK       I    between atoms: N_6  and  C_9 
REMARK    4  A    between atoms: S_16  and  C_7 
REMARK    5  A    between atoms: C_14  and  C_27 
REMARK       I    between atoms: N_20  and  C_14 
REMARK    6  A    between atoms: C_15  and  C_28 
REMARK    7  A    between atoms: C_27  and  S_16 
REMARK    8  A    between atoms: C_28  and  N_20 
ROOT
ATOM      1  C   UNL d   1     -56.013 -98.829 -41.300  0.00  0.00     0.219 A 
ATOM      2  S   UNL d   1     -55.941 -98.978 -40.547  0.00  0.00    -0.019 SA
ATOM      3  C   UNL d   1     -55.198 -99.002 -40.381  0.00  0.00     0.165 A 
ATOM      4  N   UNL d   1     -55.307 -98.761 -41.601  0.00  0.00    -0.120 NA
ATOM      5  N   UNL d   1     -54.794 -98.870 -41.024  0.00  0.00    -0.133 NA
ENDROOT
BRANCH   1   6
ATOM      6  N   UNL d   1     -56.674 -98.760 -41.687  0.00  0.00    -0.181 NA
ATOM      7  C   UNL d   1     -56.739 -99.049 -42.398  0.00  0.00     0.283 C 
ATOM      8  O   UNL d   1     -56.142 -99.409 -42.723  0.00  0.00    -0.265 OA
BRANCH   7   9
ATOM      9  C   UNL d   1     -57.400 -98.977 -42.779  0.00  0.00     0.080 A 
ATOM     10  C   UNL d   1     -57.491 -98.972 -43.540  0.00  0.00     0.088 A 
ATOM     11  N   UNL d   1     -58.240 -98.889 -43.690  0.00  0.00    -0.273 N 
ATOM     12  C   UNL d   1     -58.611 -98.843 -43.025  0.00  0.00     0.265 A 
ATOM     13  C   UNL d   1     -58.093 -98.897 -42.453  0.00  0.00     0.067 A 
ATOM     14  O   UNL d   1     -59.375 -98.756 -42.934  0.00  0.00    -0.267 OA
BRANCH  11  15
ATOM     15  C   UNL d   1     -58.582 -98.856 -44.447  0.00  0.00     0.067 A 
ATOM     16  C   UNL d   1     -59.403 -98.841 -44.523  0.00  0.00     0.020 A 
ATOM     17  C   UNL d   1     -59.733 -98.808 -45.281  0.00  0.00     0.031 A 
ATOM     18  C   UNL d   1     -59.257 -98.790 -45.946  0.00  0.00     0.140 A 
ATOM     19  C   UNL d   1     -58.432 -98.805 -45.863  0.00  0.00     0.031 A 
ATOM     20  F   UNL d   1     -59.592 -98.756 -46.709  0.00  0.00    -0.204 F 
ATOM     21  C   UNL d   1     -58.098 -98.837 -45.121  0.00  0.00     0.020 A 
ENDBRANCH  11  15
ENDBRANCH   7   9
ENDBRANCH   1   6
BRANCH   3  22
ATOM     22  S   UNL d   1     -54.787 -99.318 -38.767  0.00  0.00    -0.054 SA
BRANCH  22  23
ATOM     23  C   UNL d   1     -55.350 -99.224 -38.170  0.00  0.00     0.100 C 
BRANCH  23  24
ATOM     24  C   UNL d   1     -55.229 -99.578 -37.430  0.00  0.00     0.286 C 
ATOM     25  N   UNL d   1     -54.835-100.299 -37.389  0.00  0.00    -0.204 NA
ATOM     26  O   UNL d   1     -55.501 -99.209 -36.740  0.00  0.00    -0.265 OA
BRANCH  25  27
ATOM     27  C   UNL d   1     -54.713-100.653 -36.654  0.00  0.00     0.127 C 
BRANCH  27  28
ATOM     28  C   UNL d   1     -54.987-101.425 -36.526  0.00  0.00     0.119 A 
ATOM     29  O   UNL d   1     -55.493-101.674 -35.918  0.00  0.00    -0.304 OA
ATOM     30  C   UNL d   1     -55.616-102.491 -36.009  0.00  0.00     0.123 A 
ATOM     31  C   UNL d   1     -55.190-102.752 -36.670  0.00  0.00     0.029 A 
ATOM     32  C   UNL d   1     -54.799-102.090 -36.991  0.00  0.00     0.028 A 
ENDBRANCH  27  28
ENDBRANCH  25  27
ENDBRANCH  23  24
ENDBRANCH  22  23
ENDBRANCH   3  22
TORSDOF 8
ENDMDL
