MODEL 1
REMARK VINA RESULT:      58.7      0.000      0.000
REMARK  4 active torsions:
REMARK  status: ('A' for Active; 'I' for Inactive)
REMARK    1  A    between atoms: C_2  and  C_1 
REMARK    2  A    between atoms: C_15  and  C_8 
REMARK    3  A    between atoms: C_9  and  C_15 
REMARK    4  A    between atoms: C_18  and  C_10 
ROOT
ATOM      1  C   UNL d   1      14.624  13.548  -1.162  0.00  0.00     0.094 A 
ATOM      2  N   UNL d   1      14.693  14.367  -1.241  0.00  0.00    -0.238 NA
ATOM      3  C   UNL d   1      15.055  14.637  -0.543  0.00  0.00     0.113 A 
ATOM      4  S   UNL d   1      15.208  13.984  -0.035  0.00  0.00    -0.066 SA
ATOM      5  C   UNL d   1      14.935  13.317  -0.434  0.00  0.00     0.056 A 
ENDROOT
BRANCH   3   6
ATOM      6  C   UNL d   1      15.236  15.410  -0.371  0.00  0.00     0.051 C 
BRANCH   6   7
ATOM      7  C   UNL d   1      15.225  15.981  -0.952  0.00  0.00     0.113 A 
ATOM      8  N   UNL d   1      15.171  15.926  -1.782  0.00  0.00    -0.238 NA
ATOM      9  C   UNL d   1      15.185  16.702  -2.095  0.00  0.00     0.088 A 
ATOM     10  C   UNL d   1      15.246  17.210  -1.448  0.00  0.00     0.056 A 
ATOM     11  S   UNL d   1      15.271  16.788  -0.760  0.00  0.00    -0.066 SA
BRANCH   9  12
ATOM     12  C   UNL d   1      15.144  16.894  -2.888  0.00  0.00     0.018 A 
ATOM     13  C   UNL d   1      15.334  17.629  -3.152  0.00  0.00     0.002 A 
ATOM     14  C   UNL d   1      15.291  17.817  -3.950  0.00  0.00     0.000 A 
ATOM     15  C   UNL d   1      15.052  17.245  -4.481  0.00  0.00     0.000 A 
ATOM     16  C   UNL d   1      14.859  16.501  -4.220  0.00  0.00     0.000 A 
ATOM     17  C   UNL d   1      15.010  17.442  -5.296  0.00  0.00     0.000 C 
ATOM     18  C   UNL d   1      14.904  16.323  -3.427  0.00  0.00     0.002 A 
ENDBRANCH   9  12
ENDBRANCH   6   7
ENDBRANCH   3   6
BRANCH   1  19
ATOM     19  C   UNL d   1      14.276  13.110  -1.782  0.00  0.00     0.082 A 
ATOM     20  C   UNL d   1      14.288  12.235  -1.779  0.00  0.00     0.302 A 
ATOM     21  O   UNL d   1      13.939  11.819  -2.402  0.00  0.00    -0.273 OA
ATOM     22  O   UNL d   1      14.653  11.780  -1.145  0.00  0.00    -0.259 OA
ATOM     23  C   UNL d   1      13.574  12.231  -3.036  0.00  0.00     0.103 A 
ATOM     24  C   UNL d   1      13.563  13.055  -3.040  0.00  0.00     0.023 A 
ATOM     25  C   UNL d   1      13.236  11.780  -3.641  0.00  0.00     0.025 A 
ATOM     26  C   UNL d   1      13.912  13.496  -2.417  0.00  0.00     0.009 A 
ATOM     27  C   UNL d   1      13.199  13.461  -3.674  0.00  0.00     0.002 A 
ATOM     28  C   UNL d   1      12.849  13.044  -4.298  0.00  0.00     0.000 A 
ATOM     29  C   UNL d   1      12.873  12.188  -4.272  0.00  0.00     0.002 A 
ENDBRANCH   1  19
TORSDOF 4
ENDMDL
