MODEL 1
REMARK VINA RESULT:      55.8      0.000      0.000
REMARK  6 active torsions:
REMARK  status: ('A' for Active; 'I' for Inactive)
REMARK    1  A    between atoms: C_9  and  C_3 
REMARK    2  A    between atoms: C_4  and  C_18 
REMARK       I    between atoms: N_7  and  C_4 
REMARK    3  A    between atoms: S_11  and  C_5 
REMARK       I    between atoms: C_6  and  N_8 
REMARK    4  A    between atoms: C_12  and  N_7 
REMARK    5  A    between atoms: N_8  and  C_13 
REMARK    6  A    between atoms: C_18  and  S_11 
ROOT
ATOM      1  C   UNL d   1     -48.995  28.179  34.151  0.00  0.00     0.099 C 
ENDROOT
BRANCH   1   2
ATOM      2  C   UNL d   1     -48.742  28.953  34.265  0.00  0.00     0.286 C 
ATOM      3  N   UNL d   1     -48.174  29.123  34.839  0.00  0.00    -0.207 NA
ATOM      4  O   UNL d   1     -49.054  29.563  33.805  0.00  0.00    -0.265 OA
BRANCH   3   5
ATOM      5  C   UNL d   1     -47.919  29.901  34.954  0.00  0.00     0.086 A 
ATOM      6  C   UNL d   1     -48.305  30.514  34.568  0.00  0.00     0.038 A 
ATOM      7  C   UNL d   1     -48.051  31.292  34.682  0.00  0.00     0.086 A 
ATOM      8  C   UNL d   1     -47.411  31.444  35.183  0.00  0.00     0.019 A 
ATOM      9  C   UNL d   1     -47.032  30.816  35.563  0.00  0.00     0.003 A 
ATOM     10  C   UNL d   1     -47.283  30.050  35.451  0.00  0.00     0.019 A 
BRANCH   7  11
ATOM     11  N   UNL d   1     -48.434  31.914  34.298  0.00  0.00    -0.208 NA
ATOM     12  C   UNL d   1     -48.024  32.392  33.772  0.00  0.00     0.279 C 
ATOM     13  O   UNL d   1     -47.215  32.246  33.628  0.00  0.00    -0.265 OA
ATOM     14  C   UNL d   1     -48.399  33.012  33.387  0.00  0.00     0.068 C 
ENDBRANCH   7  11
ENDBRANCH   3   5
ENDBRANCH   1   2
BRANCH   1  15
ATOM     15  S   UNL d   1     -49.467  27.999  33.504  0.00  0.00    -0.061 SA
BRANCH  15  16
ATOM     16  C   UNL d   1     -49.932  27.317  33.505  0.00  0.00     0.133 A 
ATOM     17  N   UNL d   1     -49.587  26.577  33.569  0.00  0.00    -0.141 NA
ATOM     18  N   UNL d   1     -50.052  25.896  33.569  0.00  0.00    -0.148 NA
ATOM     19  C   UNL d   1     -50.876  25.955  33.504  0.00  0.00     0.104 A 
ATOM     20  C   UNL d   1     -51.227  26.701  33.439  0.00  0.00     0.023 A 
ATOM     21  C   UNL d   1     -50.761  27.379  33.439  0.00  0.00     0.029 A 
BRANCH  19  22
ATOM     22  C   UNL d   1     -51.341  25.274  33.504  0.00  0.00     0.039 A 
ATOM     23  C   UNL d   1     -52.130  25.324  33.698  0.00  0.00     0.101 A 
ATOM     24  N   UNL d   1     -52.595  24.650  33.700  0.00  0.00    -0.242 NA
ATOM     25  C   UNL d   1     -52.258  23.915  33.503  0.00  0.00     0.099 A 
ATOM     26  C   UNL d   1     -51.465  23.870  33.308  0.00  0.00     0.021 A 
ATOM     27  C   UNL d   1     -50.992  24.547  33.306  0.00  0.00     0.005 A 
ENDBRANCH  19  22
ENDBRANCH  15  16
ENDBRANCH   1  15
TORSDOF 6
ENDMDL
