MODEL 1
REMARK VINA RESULT:      47.7      0.000      0.000
REMARK  9 active torsions:
REMARK  status: ('A' for Active; 'I' for Inactive)
REMARK    1  A    between atoms: C_2  and  S_1 
REMARK    2  A    between atoms: N_3  and  S_1 
REMARK    3  A    between atoms: C_14  and  N_3 
REMARK    4  A    between atoms: C_15  and  N_3 
REMARK    5  A    between atoms: C_6  and  C_7 
REMARK    6  A    between atoms: C_7  and  C_8 
REMARK    7  A    between atoms: C_8  and  C_12 
REMARK    8  A    between atoms: C_21  and  C_14 
REMARK    9  A    between atoms: C_20  and  C_15 
ROOT
ATOM      1  C   UNL d   1     -56.096-100.011 -44.248  0.00  0.00     0.104 A 
ATOM      2  C   UNL d   1     -55.437 -99.584 -43.987  0.00  0.00     0.012 A 
ATOM      3  C   UNL d   1     -56.065-100.848 -44.292  0.00  0.00     0.013 A 
ATOM      4  C   UNL d   1     -55.384-101.238 -44.077  0.00  0.00     0.001 A 
ATOM      5  C   UNL d   1     -54.755 -99.974 -43.772  0.00  0.00     0.001 A 
ATOM      6  C   UNL d   1     -54.716-100.802 -43.812  0.00  0.00     0.000 A 
ATOM      7  C   UNL d   1     -55.474 -98.760 -43.946  0.00  0.00     0.001 C 
ENDROOT
BRANCH   1   8
ATOM      8  S   UNL d   1     -56.796 -99.610 -44.469  0.00  0.00     0.272 S 
ATOM      9  O   UNL d   1     -57.236-100.297 -44.324  0.00  0.00    -0.200 OA
ATOM     10  O   UNL d   1     -56.360 -98.929 -44.613  0.00  0.00    -0.200 OA
BRANCH   8  11
ATOM     11  N   UNL d   1     -57.478 -99.219 -44.684  0.00  0.00    -0.223 N 
BRANCH  11  12
ATOM     12  C   UNL d   1     -57.768 -99.283 -45.470  0.00  0.00     0.137 C 
BRANCH  12  13
ATOM     13  C   UNL d   1     -58.415 -98.847 -45.702  0.00  0.00     0.254 C 
ATOM     14  O   UNL d   1     -59.174 -99.086 -45.496  0.00  0.00    -0.281 OA
ENDBRANCH  12  13
ENDBRANCH  11  12
BRANCH  11  15
ATOM     15  C   UNL d   1     -57.889 -98.756 -44.131  0.00  0.00     0.137 C 
BRANCH  15  16
ATOM     16  C   UNL d   1     -58.247 -99.126 -43.484  0.00  0.00     0.254 C 
ATOM     17  O   UNL d   1     -58.938 -98.802 -43.172  0.00  0.00    -0.281 OA
ENDBRANCH  15  16
ENDBRANCH  11  15
ENDBRANCH   8  11
ENDBRANCH   1   8
BRANCH   4  18
ATOM     18  C   UNL d   1     -55.341-102.060 -44.116  0.00  0.00     0.006 C 
BRANCH  18  19
ATOM     19  C   UNL d   1     -55.044-102.423 -44.786  0.00  0.00     0.070 C 
BRANCH  19  20
ATOM     20  C   UNL d   1     -55.195-102.126 -45.537  0.00  0.00     0.211 C 
ATOM     21  O   UNL d   1     -54.713-101.511 -45.838  0.00  0.00    -0.644 OA
ATOM     22  O   UNL d   1     -55.800-102.417 -45.987  0.00  0.00    -0.644 OA
ENDBRANCH  19  20
ENDBRANCH  18  19
ENDBRANCH   4  18
TORSDOF 9
ENDMDL
