MODEL 1
REMARK VINA RESULT:      11.9      0.000      0.000
REMARK  4 active torsions:
REMARK  status: ('A' for Active; 'I' for Inactive)
REMARK    1  A    between atoms: C_7  and  N_1 
REMARK    2  A    between atoms: C_6  and  C_8 
REMARK    3  A    between atoms: O_16  and  C_6 
REMARK    4  A    between atoms: C_17  and  O_16 
ROOT
ATOM      1  C   UNL d   1      14.116  12.477  -2.076  0.00  0.00     0.070 A 
ATOM      2  C   UNL d   1      13.425  12.487  -3.573  0.00  0.00     0.064 A 
ATOM      3  C   UNL d   1      14.189  13.150  -2.554  0.00  0.00     0.018 A 
ATOM      4  C   UNL d   1      13.703  11.821  -2.347  0.00  0.00     0.018 A 
ATOM      5  C   UNL d   1      13.842  13.160  -3.308  0.00  0.00     0.007 A 
ATOM      6  C   UNL d   1      13.359  11.824  -3.090  0.00  0.00     0.007 A 
ENDROOT
BRANCH   1   7
ATOM      7  N   UNL d   1      14.458  12.460  -1.325  0.00  0.00    -0.242 N 
ATOM      8  C   UNL d   1      15.214  12.760  -1.127  0.00  0.00     0.267 A 
ATOM      9  C   UNL d   1      15.341  12.633  -0.322  0.00  0.00     0.066 A 
ATOM     10  O   UNL d   1      15.767  13.126  -1.623  0.00  0.00    -0.267 OA
ATOM     11  C   UNL d   1      14.669  12.255  -0.015  0.00  0.00     0.066 A 
ATOM     12  C   UNL d   1      14.132  12.151  -0.628  0.00  0.00     0.267 A 
ATOM     13  O   UNL d   1      13.390  11.787  -0.516  0.00  0.00    -0.267 OA
ENDBRANCH   1   7
BRANCH   2  14
ATOM     14  C   UNL d   1      13.080  12.493  -4.320  0.00  0.00     0.300 C 
ATOM     15  O   UNL d   1      12.833  13.225  -4.657  0.00  0.00    -0.259 OA
BRANCH  14  16
ATOM     16  O   UNL d   1      12.975  11.788  -4.738  0.00  0.00    -0.271 OA
BRANCH  16  17
ATOM     17  C   UNL d   1      12.882  11.804  -5.569  0.00  0.00     0.126 C 
ATOM     18  C   UNL d   1      13.552  11.781  -6.039  0.00  0.00     0.029 C 
ENDBRANCH  16  17
ENDBRANCH  14  16
ENDBRANCH   2  14
TORSDOF 4
ENDMDL
