MODEL 1
REMARK VINA RESULT:     114.5      0.000      0.000
REMARK  6 active torsions:
REMARK  status: ('A' for Active; 'I' for Inactive)
REMARK    1  A    between atoms: N_7  and  C_1 
REMARK    2  A    between atoms: C_6  and  C_4 
REMARK    3  A    between atoms: C_22  and  C_12 
REMARK    4  A    between atoms: C_23  and  N_13 
REMARK    5  A    between atoms: O_17  and  C_22 
REMARK    6  A    between atoms: C_18  and  O_17 
ROOT
ATOM      1  C   UNL d   1      62.160  43.756  50.376  0.00  0.00     0.198 A 
ATOM      2  C   UNL d   1      61.733  44.143  50.946  0.00  0.00     0.191 A 
ATOM      3  O   UNL d   1      62.381  44.314  49.828  0.00  0.00    -0.268 OA
ATOM      4  C   UNL d   1      62.088  45.030  50.070  0.00  0.00     0.208 A 
ATOM      5  N   UNL d   1      61.709  44.917  50.727  0.00  0.00    -0.206 NA
ATOM      6  C   UNL d   1      61.370  43.827  51.642  0.00  0.00     0.124 C 
ATOM      7  N   UNL d   1      61.014  43.504  52.332  0.00  0.00    -0.190 NA
ENDROOT
BRANCH   1   8
ATOM      8  N   UNL d   1      62.406  42.978  50.233  0.00  0.00    -0.280 N 
ATOM      9  C   UNL d   1      62.319  42.662  49.498  0.00  0.00     0.101 A 
ATOM     10  C   UNL d   1      62.565  41.883  49.355  0.00  0.00     0.100 A 
ATOM     11  N   UNL d   1      62.883  41.452  49.934  0.00  0.00    -0.300 N 
ATOM     12  C   UNL d   1      62.983  41.759  50.699  0.00  0.00     0.100 A 
ATOM     13  C   UNL d   1      62.743  42.532  50.858  0.00  0.00     0.101 A 
BRANCH  11  14
ATOM     14  C   UNL d   1      63.129  40.674  49.790  0.00  0.00     0.080 C 
ATOM     15  C   UNL d   1      62.805  40.207  49.155  0.00  0.00     0.021 C 
ENDBRANCH  11  14
ENDBRANCH   1   8
BRANCH   4  16
ATOM     16  C   UNL d   1      61.906  45.811  50.108  0.00  0.00     0.141 A 
ATOM     17  O   UNL d   1      61.613  46.540  50.438  0.00  0.00    -0.301 OA
ATOM     18  C   UNL d   1      61.733  47.111  49.856  0.00  0.00     0.125 A 
ATOM     19  C   UNL d   1      62.075  46.751  49.219  0.00  0.00     0.029 A 
ATOM     20  C   UNL d   1      62.176  45.963  49.379  0.00  0.00     0.030 A 
BRANCH  18  21
ATOM     21  C   UNL d   1      61.530  47.891  49.944  0.00  0.00     0.147 C 
BRANCH  21  22
ATOM     22  O   UNL d   1      60.805  48.110  50.216  0.00  0.00    -0.303 OA
BRANCH  22  23
ATOM     23  C   UNL d   1      60.723  48.635  50.816  0.00  0.00     0.100 A 
ATOM     24  C   UNL d   1      60.105  49.187  50.814  0.00  0.00     0.023 A 
ATOM     25  C   UNL d   1      59.572  49.184  50.179  0.00  0.00     0.002 C 
ATOM     26  C   UNL d   1      60.024  49.705  51.407  0.00  0.00     0.002 A 
ATOM     27  C   UNL d   1      60.556  49.708  52.042  0.00  0.00     0.000 A 
ATOM     28  C   UNL d   1      61.182  49.153  52.049  0.00  0.00     0.002 A 
ATOM     29  C   UNL d   1      61.263  48.634  51.456  0.00  0.00     0.025 A 
ENDBRANCH  22  23
ENDBRANCH  21  22
ENDBRANCH  18  21
ENDBRANCH   4  16
TORSDOF 6
ENDMDL
