MODEL 1
REMARK VINA RESULT:      -0.7      0.000      0.000
REMARK  0 active torsions:
REMARK  status: ('A' for Active; 'I' for Inactive)
ROOT
ATOM      1  N   UNL d   1      46.479 -18.883  43.769  0.00  0.00    -0.169 NA
ATOM      2  C   UNL d   1      46.538 -18.561  43.014  0.00  0.00     0.199 A 
ATOM      3  C   UNL d   1      46.588 -19.036  42.342  0.00  0.00     0.130 A 
ATOM      4  N   UNL d   1      46.521 -20.194  43.170  0.00  0.00    -0.151 NA
ATOM      5  C   UNL d   1      46.579 -19.848  42.425  0.00  0.00     0.292 A 
ATOM      6  C   UNL d   1      46.471 -19.718  43.842  0.00  0.00     0.373 A 
ATOM      7  O   UNL d   1      46.629 -20.330  41.750  0.00  0.00    -0.264 OA
ATOM      8  O   UNL d   1      46.412 -20.055  44.598  0.00  0.00    -0.242 OA
ATOM      9  N   UNL d   1      46.547 -17.731  42.934  0.00  0.00    -0.126 N 
ATOM     10 BR   UNL d   1      46.646 -18.694  41.592  0.00  0.00    -0.041 Br
ENDROOT
TORSDOF 0
ENDMDL
MODEL 2
REMARK VINA RESULT:      -0.1      1.042      1.814
REMARK  0 active torsions:
REMARK  status: ('A' for Active; 'I' for Inactive)
ROOT
ATOM      1  N   UNL d   1      46.561 -19.072  42.246  0.00  0.00    -0.169 NA
ATOM      2  C   UNL d   1      46.482 -18.682  42.966  0.00  0.00     0.199 A 
ATOM      3  C   UNL d   1      46.409 -19.095  43.677  0.00  0.00     0.130 A 
ATOM      4  N   UNL d   1      46.493 -20.323  42.959  0.00  0.00    -0.151 NA
ATOM      5  C   UNL d   1      46.415 -19.911  43.668  0.00  0.00     0.292 A 
ATOM      6  C   UNL d   1      46.566 -19.910  42.248  0.00  0.00     0.373 A 
ATOM      7  O   UNL d   1      46.343 -20.330  44.381  0.00  0.00    -0.264 OA
ATOM      8  O   UNL d   1      46.645 -20.314  41.528  0.00  0.00    -0.242 OA
ATOM      9  N   UNL d   1      46.476 -17.848  42.972  0.00  0.00    -0.126 N 
ATOM     10 BR   UNL d   1      46.331 -18.686  44.391  0.00  0.00    -0.041 Br
ENDROOT
TORSDOF 0
ENDMDL
