MODEL 1
REMARK VINA RESULT:      39.3      0.000      0.000
REMARK  2 active torsions:
REMARK  status: ('A' for Active; 'I' for Inactive)
REMARK       I    between atoms: N_2  and  C_1 
REMARK    1  A    between atoms: C_4  and  C_1 
REMARK    2  A    between atoms: C_3  and  N_2 
ROOT
ATOM      1  C   UNL d   1      13.866  14.185  -3.195  0.00  0.00     0.085 A 
ATOM      2  C   UNL d   1      13.389  12.914  -3.611  0.00  0.00     0.002 A 
ATOM      3  C   UNL d   1      13.764  13.395  -3.053  0.00  0.00     0.018 A 
ATOM      4  C   UNL d   1      13.117  13.227  -4.314  0.00  0.00     0.000 A 
ATOM      5  C   UNL d   1      13.284  12.115  -3.469  0.00  0.00     0.000 A 
ATOM      6  C   UNL d   1      13.593  14.515  -3.909  0.00  0.00     0.019 A 
ATOM      7  C   UNL d   1      13.217  14.033  -4.468  0.00  0.00     0.002 A 
ATOM      8  C   UNL d   1      12.772  12.621  -4.753  0.00  0.00     0.000 A 
ATOM      9  C   UNL d   1      12.900  11.785  -4.115  0.00  0.00     0.000 A 
ATOM     10  C   UNL d   1      14.036  13.081  -2.348  0.00  0.00     0.002 A 
ATOM     11  C   UNL d   1      13.935  12.260  -2.190  0.00  0.00     0.000 A 
ATOM     12  C   UNL d   1      13.560  11.779  -2.748  0.00  0.00     0.000 A 
ENDROOT
BRANCH   1  13
ATOM     13  N   UNL d   1      14.238  14.661  -2.642  0.00  0.00    -0.206 NA
ATOM     14  C   UNL d   1      14.339  15.446  -2.808  0.00  0.00     0.302 C 
ATOM     15  O   UNL d   1      14.080  15.698  -3.475  0.00  0.00    -0.263 OA
BRANCH  14  16
ATOM     16  C   UNL d   1      14.705  15.981  -2.293  0.00  0.00     0.158 A 
ATOM     17  O   UNL d   1      14.812  15.848  -1.492  0.00  0.00    -0.300 OA
ATOM     18  C   UNL d   1      15.205  16.524  -1.170  0.00  0.00     0.123 A 
ATOM     19  C   UNL d   1      15.332  17.054  -1.770  0.00  0.00     0.029 A 
ATOM     20  C   UNL d   1      15.032  16.742  -2.475  0.00  0.00     0.032 A 
ENDBRANCH  14  16
ENDBRANCH   1  13
TORSDOF 2
ENDMDL
