MODEL 1
REMARK VINA RESULT:      16.8      0.000      0.000
REMARK  7 active torsions:
REMARK  status: ('A' for Active; 'I' for Inactive)
REMARK    1  A    between atoms: C_3  and  S_1 
REMARK    2  A    between atoms: N_8  and  S_1 
REMARK    3  A    between atoms: C_4  and  N_2 
REMARK    4  A    between atoms: N_5  and  C_19 
REMARK    5  A    between atoms: C_14  and  N_8 
REMARK    6  A    between atoms: O_21  and  C_11 
REMARK    7  A    between atoms: C_19  and  C_14 
ROOT
ATOM      1  N   UNL d   1      45.678 -14.697  44.401  0.00  0.00    -0.300 N 
ATOM      2  N   UNL d   1      45.963 -16.285  44.768  0.00  0.00    -0.299 N 
ATOM      3  C   UNL d   1      46.445 -14.997  44.367  0.00  0.00     0.100 A 
ATOM      4  C   UNL d   1      45.048 -15.193  44.619  0.00  0.00     0.100 A 
ATOM      5  C   UNL d   1      46.586 -15.789  44.550  0.00  0.00     0.100 A 
ATOM      6  C   UNL d   1      45.189 -15.981  44.801  0.00  0.00     0.100 A 
ENDROOT
BRANCH   2   7
ATOM      7  C   UNL d   1      46.104 -17.076  44.951  0.00  0.00     0.102 C 
BRANCH   7   8
ATOM      8  C   UNL d   1      45.939 -17.672  44.400  0.00  0.00     0.131 C 
BRANCH   8   9
ATOM      9  N   UNL d   1      46.434 -18.316  44.324  0.00  0.00    -0.155 NA
BRANCH   9  10
ATOM     10  S   UNL d   1      46.477 -18.721  43.608  0.00  0.00     0.285 S 
ATOM     11  O   UNL d   1      46.390 -18.006  43.201  0.00  0.00    -0.198 OA
ATOM     12  O   UNL d   1      46.565 -19.436  44.014  0.00  0.00    -0.198 OA
BRANCH  10  13
ATOM     13  C   UNL d   1      46.520 -19.117  42.888  0.00  0.00     0.105 A 
ATOM     14  C   UNL d   1      46.479 -18.693  42.182  0.00  0.00     0.013 A 
ATOM     15  C   UNL d   1      46.521 -19.081  41.456  0.00  0.00     0.001 A 
ATOM     16  C   UNL d   1      46.605 -19.905  41.444  0.00  0.00     0.000 A 
ATOM     17  C   UNL d   1      46.646 -20.326  42.152  0.00  0.00     0.001 A 
ATOM     18  C   UNL d   1      46.647 -20.290  40.721  0.00  0.00     0.000 C 
ATOM     19  C   UNL d   1      46.603 -19.925  42.871  0.00  0.00     0.013 A 
ENDBRANCH  10  13
ENDBRANCH   9  10
ENDBRANCH   8   9
ENDBRANCH   7   8
ENDBRANCH   2   7
BRANCH   1  20
ATOM     20  C   UNL d   1      45.537 -13.905  44.218  0.00  0.00     0.086 A 
ATOM     21  C   UNL d   1      44.775 -13.649  44.018  0.00  0.00     0.110 A 
ATOM     22  C   UNL d   1      44.632 -12.853  43.834  0.00  0.00     0.026 A 
ATOM     23  C   UNL d   1      45.253 -12.321  43.852  0.00  0.00     0.002 A 
ATOM     24  C   UNL d   1      46.020 -12.567  44.051  0.00  0.00     0.002 A 
ATOM     25  C   UNL d   1      46.160 -13.352  44.232  0.00  0.00     0.019 A 
BRANCH  21  26
ATOM     26  O   UNL d   1      44.146 -14.204  44.003  0.00  0.00    -0.327 OA
ATOM     27  C   UNL d   1      43.392 -13.964  44.251  0.00  0.00     0.181 C 
ENDBRANCH  21  26
ENDBRANCH   1  20
TORSDOF 7
ENDMDL
MODEL 2
REMARK VINA RESULT:      19.7      1.246      5.483
REMARK  7 active torsions:
REMARK  status: ('A' for Active; 'I' for Inactive)
REMARK    1  A    between atoms: C_3  and  S_1 
REMARK    2  A    between atoms: N_8  and  S_1 
REMARK    3  A    between atoms: C_4  and  N_2 
REMARK    4  A    between atoms: N_5  and  C_19 
REMARK    5  A    between atoms: C_14  and  N_8 
REMARK    6  A    between atoms: O_21  and  C_11 
REMARK    7  A    between atoms: C_19  and  C_14 
ROOT
ATOM      1  N   UNL d   1      46.351 -18.664  42.831  0.00  0.00    -0.300 N 
ATOM      2  N   UNL d   1      46.160 -17.826  44.245  0.00  0.00    -0.299 N 
ATOM      3  C   UNL d   1      45.963 -19.013  43.468  0.00  0.00     0.100 A 
ATOM      4  C   UNL d   1      46.647 -17.889  42.900  0.00  0.00     0.100 A 
ATOM      5  C   UNL d   1      45.868 -18.596  44.173  0.00  0.00     0.100 A 
ATOM      6  C   UNL d   1      46.552 -17.474  43.601  0.00  0.00     0.100 A 
ENDROOT
BRANCH   2   7
ATOM      7  C   UNL d   1      46.064 -17.409  44.950  0.00  0.00     0.102 C 
BRANCH   7   8
ATOM      8  C   UNL d   1      46.081 -16.581  44.955  0.00  0.00     0.131 C 
BRANCH   8   9
ATOM      9  N   UNL d   1      45.399 -16.151  44.829  0.00  0.00    -0.155 NA
BRANCH   9  10
ATOM     10  S   UNL d   1      45.440 -15.338  44.711  0.00  0.00     0.285 S 
ATOM     11  O   UNL d   1      44.617 -15.312  44.626  0.00  0.00    -0.198 OA
ATOM     12  O   UNL d   1      46.262 -15.363  44.797  0.00  0.00    -0.198 OA
BRANCH  10  13
ATOM     13  C   UNL d   1      45.470 -14.524  44.592  0.00  0.00     0.105 A 
ATOM     14  C   UNL d   1      44.853 -14.142  44.200  0.00  0.00     0.013 A 
ATOM     15  C   UNL d   1      44.874 -13.327  44.076  0.00  0.00     0.001 A 
ATOM     16  C   UNL d   1      45.526 -12.895  44.352  0.00  0.00     0.000 A 
ATOM     17  C   UNL d   1      46.141 -13.281  44.744  0.00  0.00     0.001 A 
ATOM     18  C   UNL d   1      45.546 -12.085  44.228  0.00  0.00     0.000 C 
ATOM     19  C   UNL d   1      46.106 -14.096  44.860  0.00  0.00     0.013 A 
ENDBRANCH  10  13
ENDBRANCH   9  10
ENDBRANCH   8   9
ENDBRANCH   7   8
ENDBRANCH   2   7
BRANCH   1  20
ATOM     20  C   UNL d   1      46.447 -19.081  42.126  0.00  0.00     0.086 A 
ATOM     21  C   UNL d   1      46.545 -18.679  41.409  0.00  0.00     0.110 A 
ATOM     22  C   UNL d   1      46.641 -19.099  40.701  0.00  0.00     0.026 A 
ATOM     23  C   UNL d   1      46.638 -19.916  40.716  0.00  0.00     0.002 A 
ATOM     24  C   UNL d   1      46.541 -20.329  41.429  0.00  0.00     0.002 A 
ATOM     25  C   UNL d   1      46.446 -19.915  42.128  0.00  0.00     0.019 A 
BRANCH  21  26
ATOM     26  O   UNL d   1      46.546 -17.841  41.405  0.00  0.00    -0.327 OA
ATOM     27  C   UNL d   1      46.622 -17.442  40.682  0.00  0.00     0.181 C 
ENDBRANCH  21  26
ENDBRANCH   1  20
TORSDOF 7
ENDMDL
