MODEL 1
REMARK VINA RESULT:      -8.0      0.000      0.000
REMARK  2 active torsions:
REMARK  status: ('A' for Active; 'I' for Inactive)
REMARK       I    between atoms: N_2  and  C_1 
REMARK    1  A    between atoms: C_3  and  C_1 
REMARK    2  A    between atoms: C_4  and  N_2 
ROOT
ATOM      1  C   UNL d   1      52.122  33.331  53.387  0.00  0.00     0.059 A 
ATOM      2  C   UNL d   1      52.490  33.767  53.982  0.00  0.00     0.025 A 
ATOM      3  C   UNL d   1      53.259  33.565  54.229  0.00  0.00     0.099 A 
ATOM      4  N   UNL d   1      53.629  34.001  54.826  0.00  0.00    -0.241 NA
ATOM      5  N   UNL d   1      54.409  32.721  54.115  0.00  0.00    -0.241 NA
ATOM      6  C   UNL d   1      53.651  32.929  53.879  0.00  0.00     0.099 A 
ATOM      7  C   UNL d   1      52.517  32.693  53.035  0.00  0.00     0.006 A 
ATOM      8  C   UNL d   1      53.277  32.492  53.280  0.00  0.00     0.021 A 
ATOM      9  C   UNL d   1      54.393  33.795  55.067  0.00  0.00     0.120 A 
ATOM     10  C   UNL d   1      54.782  33.158  54.714  0.00  0.00     0.120 A 
ENDROOT
BRANCH   1  11
ATOM     11  C   UNL d   1      51.362  33.532  53.143  0.00  0.00     0.281 C 
ATOM     12  N   UNL d   1      51.238  34.212  52.693  0.00  0.00    -0.189 NA
ATOM     13  O   UNL d   1      50.725  33.052  53.349  0.00  0.00    -0.265 OA
BRANCH  12  14
ATOM     14  C   UNL d   1      50.477  34.412  52.449  0.00  0.00     0.166 A 
ATOM     15  N   UNL d   1      49.978  34.820  52.964  0.00  0.00    -0.225 NA
ATOM     16  C   UNL d   1      49.213  35.021  52.721  0.00  0.00     0.107 A 
ATOM     17  C   UNL d   1      48.953  34.814  51.966  0.00  0.00     0.054 A 
ATOM     18  C   UNL d   1      49.458  34.405  51.453  0.00  0.00     0.011 A 
ATOM     19 BR   UNL d   1      48.192  35.013  51.721  0.00  0.00    -0.048 Br
ATOM     20  C   UNL d   1      50.219  34.206  51.698  0.00  0.00     0.039 A 
ENDBRANCH  12  14
ENDBRANCH   1  11
TORSDOF 2
ENDMDL
MODEL 2
REMARK VINA RESULT:      -7.7      1.882      4.769
REMARK  2 active torsions:
REMARK  status: ('A' for Active; 'I' for Inactive)
REMARK       I    between atoms: N_2  and  C_1 
REMARK    1  A    between atoms: C_3  and  C_1 
REMARK    2  A    between atoms: C_4  and  N_2 
ROOT
ATOM      1  C   UNL d   1      49.941  34.466  52.606  0.00  0.00     0.059 A 
ATOM      2  C   UNL d   1      49.506  34.981  53.080  0.00  0.00     0.025 A 
ATOM      3  C   UNL d   1      48.821  35.345  52.777  0.00  0.00     0.099 A 
ATOM      4  N   UNL d   1      48.384  35.862  53.251  0.00  0.00    -0.241 NA
ATOM      5  N   UNL d   1      47.906  35.543  51.695  0.00  0.00    -0.241 NA
ATOM      6  C   UNL d   1      48.579  35.190  52.004  0.00  0.00     0.099 A 
ATOM      7  C   UNL d   1      49.697  34.310  51.829  0.00  0.00     0.006 A 
ATOM      8  C   UNL d   1      49.019  34.670  51.529  0.00  0.00     0.021 A 
ATOM      9  C   UNL d   1      47.704  36.220  52.943  0.00  0.00     0.120 A 
ATOM     10  C   UNL d   1      47.465  36.062  52.170  0.00  0.00     0.120 A 
ENDROOT
BRANCH   1  11
ATOM     11  C   UNL d   1      50.618  34.106  52.906  0.00  0.00     0.281 C 
ATOM     12  N   UNL d   1      51.364  34.352  52.653  0.00  0.00    -0.189 NA
ATOM     13  O   UNL d   1      50.548  33.500  53.459  0.00  0.00    -0.265 OA
BRANCH  12  14
ATOM     14  C   UNL d   1      52.040  33.992  52.955  0.00  0.00     0.166 A 
ATOM     15  N   UNL d   1      52.241  33.230  52.708  0.00  0.00    -0.225 NA
ATOM     16  C   UNL d   1      52.920  32.867  53.010  0.00  0.00     0.107 A 
ATOM     17  C   UNL d   1      53.393  33.267  53.555  0.00  0.00     0.054 A 
ATOM     18  C   UNL d   1      53.188  34.031  53.798  0.00  0.00     0.011 A 
ATOM     19 BR   UNL d   1      54.070  32.907  53.857  0.00  0.00    -0.048 Br
ATOM     20  C   UNL d   1      52.511  34.390  53.496  0.00  0.00     0.039 A 
ENDBRANCH  12  14
ENDBRANCH   1  11
TORSDOF 2
ENDMDL
MODEL 3
REMARK VINA RESULT:      -7.6      2.593      3.680
REMARK  2 active torsions:
REMARK  status: ('A' for Active; 'I' for Inactive)
REMARK       I    between atoms: N_2  and  C_1 
REMARK    1  A    between atoms: C_3  and  C_1 
REMARK    2  A    between atoms: C_4  and  N_2 
ROOT
ATOM      1  C   UNL d   1      53.195  31.642  53.539  0.00  0.00     0.059 A 
ATOM      2  C   UNL d   1      53.392  31.116  54.142  0.00  0.00     0.025 A 
ATOM      3  C   UNL d   1      53.271  30.299  54.035  0.00  0.00     0.099 A 
ATOM      4  N   UNL d   1      53.469  29.770  54.639  0.00  0.00    -0.241 NA
ATOM      5  N   UNL d   1      52.829  29.215  53.212  0.00  0.00    -0.241 NA
ATOM      6  C   UNL d   1      52.953  30.018  53.328  0.00  0.00     0.099 A 
ATOM      7  C   UNL d   1      52.875  31.359  52.828  0.00  0.00     0.006 A 
ATOM      8  C   UNL d   1      52.755  30.551  52.723  0.00  0.00     0.021 A 
ATOM      9  C   UNL d   1      53.345  28.959  54.526  0.00  0.00     0.120 A 
ATOM     10  C   UNL d   1      53.027  28.682  53.817  0.00  0.00     0.120 A 
ENDROOT
BRANCH   1  11
ATOM     11  C   UNL d   1      53.315  32.450  53.645  0.00  0.00     0.281 C 
ATOM     12  N   UNL d   1      52.742  32.908  54.022  0.00  0.00    -0.189 NA
ATOM     13  O   UNL d   1      54.010  32.799  53.374  0.00  0.00    -0.265 OA
BRANCH  12  14
ATOM     14  C   UNL d   1      52.864  33.715  54.128  0.00  0.00     0.166 A 
ATOM     15  N   UNL d   1      53.288  33.982  54.784  0.00  0.00    -0.225 NA
ATOM     16  C   UNL d   1      53.411  34.793  54.891  0.00  0.00     0.107 A 
ATOM     17  C   UNL d   1      53.110  35.331  54.343  0.00  0.00     0.054 A 
ATOM     18  C   UNL d   1      52.685  35.058  53.687  0.00  0.00     0.011 A 
ATOM     19 BR   UNL d   1      53.231  36.139  54.447  0.00  0.00    -0.048 Br
ATOM     20  C   UNL d   1      52.564  34.251  53.582  0.00  0.00     0.039 A 
ENDBRANCH  12  14
ENDBRANCH   1  11
TORSDOF 2
ENDMDL
MODEL 4
REMARK VINA RESULT:      -6.2      9.874     10.611
REMARK  2 active torsions:
REMARK  status: ('A' for Active; 'I' for Inactive)
REMARK       I    between atoms: N_2  and  C_1 
REMARK    1  A    between atoms: C_3  and  C_1 
REMARK    2  A    between atoms: C_4  and  N_2 
ROOT
ATOM      1  C   UNL d   1      45.040  28.158  57.113  0.00  0.00     0.059 A 
ATOM      2  C   UNL d   1      45.161  28.387  57.896  0.00  0.00     0.025 A 
ATOM      3  C   UNL d   1      45.098  29.190  58.108  0.00  0.00     0.099 A 
ATOM      4  N   UNL d   1      45.219  29.421  58.892  0.00  0.00    -0.241 NA
ATOM      5  N   UNL d   1      44.848  30.549  57.733  0.00  0.00    -0.241 NA
ATOM      6  C   UNL d   1      44.913  29.755  57.536  0.00  0.00     0.099 A 
ATOM      7  C   UNL d   1      44.855  28.726  56.538  0.00  0.00     0.006 A 
ATOM      8  C   UNL d   1      44.791  29.520  56.748  0.00  0.00     0.021 A 
ATOM      9  C   UNL d   1      45.154  30.221  59.096  0.00  0.00     0.120 A 
ATOM     10  C   UNL d   1      44.970  30.782  58.520  0.00  0.00     0.120 A 
ENDROOT
BRANCH   1  11
ATOM     11  C   UNL d   1      45.103  27.365  56.905  0.00  0.00     0.281 C 
ATOM     12  N   UNL d   1      44.425  26.901  56.831  0.00  0.00    -0.189 NA
ATOM     13  O   UNL d   1      45.846  27.034  56.770  0.00  0.00    -0.265 OA
BRANCH  12  14
ATOM     14  C   UNL d   1      44.489  26.107  56.622  0.00  0.00     0.166 A 
ATOM     15  N   UNL d   1      44.558  25.898  55.827  0.00  0.00    -0.225 NA
ATOM     16  C   UNL d   1      44.623  25.101  55.616  0.00  0.00     0.107 A 
ATOM     17  C   UNL d   1      44.619  24.519  56.201  0.00  0.00     0.054 A 
ATOM     18  C   UNL d   1      44.550  24.734  56.997  0.00  0.00     0.011 A 
ATOM     19 BR   UNL d   1      44.683  23.724  55.992  0.00  0.00    -0.048 Br
ATOM     20  C   UNL d   1      44.486  25.528  57.204  0.00  0.00     0.039 A 
ENDBRANCH  12  14
ENDBRANCH   1  11
TORSDOF 2
ENDMDL
MODEL 5
REMARK VINA RESULT:      -5.9     10.119     10.777
REMARK  2 active torsions:
REMARK  status: ('A' for Active; 'I' for Inactive)
REMARK       I    between atoms: N_2  and  C_1 
REMARK    1  A    between atoms: C_3  and  C_1 
REMARK    2  A    between atoms: C_4  and  N_2 
ROOT
ATOM      1  C   UNL d   1      45.170  27.513  57.401  0.00  0.00     0.059 A 
ATOM      2  C   UNL d   1      45.035  28.251  57.060  0.00  0.00     0.025 A 
ATOM      3  C   UNL d   1      45.025  28.933  57.537  0.00  0.00     0.099 A 
ATOM      4  N   UNL d   1      44.890  29.674  57.196  0.00  0.00    -0.241 NA
ATOM      5  N   UNL d   1      45.143  29.535  58.830  0.00  0.00    -0.241 NA
ATOM      6  C   UNL d   1      45.150  28.870  58.350  0.00  0.00     0.099 A 
ATOM      7  C   UNL d   1      45.296  27.449  58.218  0.00  0.00     0.006 A 
ATOM      8  C   UNL d   1      45.286  28.124  58.690  0.00  0.00     0.021 A 
ATOM      9  C   UNL d   1      44.882  30.348  57.677  0.00  0.00     0.120 A 
ATOM     10  C   UNL d   1      45.007  30.280  58.489  0.00  0.00     0.120 A 
ENDROOT
BRANCH   1  11
ATOM     11  C   UNL d   1      45.179  26.839  56.928  0.00  0.00     0.281 C 
ATOM     12  N   UNL d   1      44.517  26.349  56.892  0.00  0.00    -0.189 NA
ATOM     13  O   UNL d   1      45.853  26.655  56.490  0.00  0.00    -0.265 OA
BRANCH  12  14
ATOM     14  C   UNL d   1      44.527  25.675  56.419  0.00  0.00     0.166 A 
ATOM     15  N   UNL d   1      44.752  24.951  56.745  0.00  0.00    -0.225 NA
ATOM     16  C   UNL d   1      44.763  24.274  56.270  0.00  0.00     0.107 A 
ATOM     17  C   UNL d   1      44.550  24.325  55.475  0.00  0.00     0.054 A 
ATOM     18  C   UNL d   1      44.326  25.053  55.153  0.00  0.00     0.011 A 
ATOM     19 BR   UNL d   1      44.561  23.651  55.001  0.00  0.00    -0.048 Br
ATOM     20  C   UNL d   1      44.316  25.726  55.627  0.00  0.00     0.039 A 
ENDBRANCH  12  14
ENDBRANCH   1  11
TORSDOF 2
ENDMDL
MODEL 6
REMARK VINA RESULT:      -5.9      9.983     10.727
REMARK  2 active torsions:
REMARK  status: ('A' for Active; 'I' for Inactive)
REMARK       I    between atoms: N_2  and  C_1 
REMARK    1  A    between atoms: C_3  and  C_1 
REMARK    2  A    between atoms: C_4  and  N_2 
ROOT
ATOM      1  C   UNL d   1      45.053  29.219  58.646  0.00  0.00     0.059 A 
ATOM      2  C   UNL d   1      45.112  28.407  58.772  0.00  0.00     0.025 A 
ATOM      3  C   UNL d   1      45.103  27.885  58.123  0.00  0.00     0.099 A 
ATOM      4  N   UNL d   1      45.162  27.070  58.248  0.00  0.00    -0.241 NA
ATOM      5  N   UNL d   1      45.023  27.676  56.710  0.00  0.00    -0.241 NA
ATOM      6  C   UNL d   1      45.034  28.181  57.356  0.00  0.00     0.099 A 
ATOM      7  C   UNL d   1      44.983  29.516  57.876  0.00  0.00     0.006 A 
ATOM      8  C   UNL d   1      44.974  29.000  57.233  0.00  0.00     0.021 A 
ATOM      9  C   UNL d   1      45.152  26.557  57.598  0.00  0.00     0.120 A 
ATOM     10  C   UNL d   1      45.083  26.857  56.833  0.00  0.00     0.120 A 
ENDROOT
BRANCH   1  11
ATOM     11  C   UNL d   1      45.062  29.734  59.288  0.00  0.00     0.281 C 
ATOM     12  N   UNL d   1      44.443  29.728  59.833  0.00  0.00    -0.189 NA
ATOM     13  O   UNL d   1      45.693  30.256  59.385  0.00  0.00    -0.265 OA
BRANCH  12  14
ATOM     14  C   UNL d   1      44.454  30.244  60.475  0.00  0.00     0.166 A 
ATOM     15  N   UNL d   1      44.317  31.049  60.354  0.00  0.00    -0.225 NA
ATOM     16  C   UNL d   1      44.328  31.568  60.998  0.00  0.00     0.107 A 
ATOM     17  C   UNL d   1      44.474  31.280  61.757  0.00  0.00     0.054 A 
ATOM     18  C   UNL d   1      44.610  30.472  61.873  0.00  0.00     0.011 A 
ATOM     19 BR   UNL d   1      44.485  31.795  62.400  0.00  0.00    -0.048 Br
ATOM     20  C   UNL d   1      44.599  29.957  61.230  0.00  0.00     0.039 A 
ENDBRANCH  12  14
ENDBRANCH   1  11
TORSDOF 2
ENDMDL
MODEL 7
REMARK VINA RESULT:      -5.6     10.108     10.779
REMARK  2 active torsions:
REMARK  status: ('A' for Active; 'I' for Inactive)
REMARK       I    between atoms: N_2  and  C_1 
REMARK    1  A    between atoms: C_3  and  C_1 
REMARK    2  A    between atoms: C_4  and  N_2 
ROOT
ATOM      1  C   UNL d   1      45.019  28.823  58.602  0.00  0.00     0.059 A 
ATOM      2  C   UNL d   1      44.795  28.778  59.394  0.00  0.00     0.025 A 
ATOM      3  C   UNL d   1      44.733  29.474  59.848  0.00  0.00     0.099 A 
ATOM      4  N   UNL d   1      44.508  29.430  60.642  0.00  0.00    -0.241 NA
ATOM      5  N   UNL d   1      44.839  30.898  59.943  0.00  0.00    -0.241 NA
ATOM      6  C   UNL d   1      44.896  30.206  59.505  0.00  0.00     0.099 A 
ATOM      7  C   UNL d   1      45.183  29.559  58.258  0.00  0.00     0.006 A 
ATOM      8  C   UNL d   1      45.122  30.248  58.707  0.00  0.00     0.021 A 
ATOM      9  C   UNL d   1      44.449  30.125  61.087  0.00  0.00     0.120 A 
ATOM     10  C   UNL d   1      44.613  30.856  60.740  0.00  0.00     0.120 A 
ENDROOT
BRANCH   1  11
ATOM     11  C   UNL d   1      45.080  28.135  58.154  0.00  0.00     0.281 C 
ATOM     12  N   UNL d   1      44.402  27.783  57.842  0.00  0.00    -0.189 NA
ATOM     13  O   UNL d   1      45.819  27.799  58.019  0.00  0.00    -0.265 OA
BRANCH  12  14
ATOM     14  C   UNL d   1      44.464  27.095  57.394  0.00  0.00     0.166 A 
ATOM     15  N   UNL d   1      44.557  27.148  56.576  0.00  0.00    -0.225 NA
ATOM     16  C   UNL d   1      44.620  26.457  56.125  0.00  0.00     0.107 A 
ATOM     17  C   UNL d   1      44.589  25.720  56.494  0.00  0.00     0.054 A 
ATOM     18  C   UNL d   1      44.495  25.673  57.315  0.00  0.00     0.011 A 
ATOM     19 BR   UNL d   1      44.651  25.031  56.047  0.00  0.00    -0.048 Br
ATOM     20  C   UNL d   1      44.433  26.362  57.761  0.00  0.00     0.039 A 
ENDBRANCH  12  14
ENDBRANCH   1  11
TORSDOF 2
ENDMDL
MODEL 8
REMARK VINA RESULT:      -5.5     10.369     11.006
REMARK  2 active torsions:
REMARK  status: ('A' for Active; 'I' for Inactive)
REMARK       I    between atoms: N_2  and  C_1 
REMARK    1  A    between atoms: C_3  and  C_1 
REMARK    2  A    between atoms: C_4  and  N_2 
ROOT
ATOM      1  C   UNL d   1      44.859  26.406  57.338  0.00  0.00     0.059 A 
ATOM      2  C   UNL d   1      45.011  26.173  56.562  0.00  0.00     0.025 A 
ATOM      3  C   UNL d   1      44.846  25.392  56.324  0.00  0.00     0.099 A 
ATOM      4  N   UNL d   1      44.998  25.156  55.546  0.00  0.00    -0.241 NA
ATOM      5  N   UNL d   1      44.364  24.082  56.640  0.00  0.00    -0.241 NA
ATOM      6  C   UNL d   1      44.530  24.853  56.864  0.00  0.00     0.099 A 
ATOM      7  C   UNL d   1      44.541  25.865  57.880  0.00  0.00     0.006 A 
ATOM      8  C   UNL d   1      44.378  25.092  57.645  0.00  0.00     0.021 A 
ATOM      9  C   UNL d   1      44.832  24.378  55.317  0.00  0.00     0.120 A 
ATOM     10  C   UNL d   1      44.516  23.843  55.860  0.00  0.00     0.120 A 
ENDROOT
BRANCH   1  11
ATOM     11  C   UNL d   1      45.022  27.178  57.572  0.00  0.00     0.281 C 
ATOM     12  N   UNL d   1      44.421  27.743  57.586  0.00  0.00    -0.189 NA
ATOM     13  O   UNL d   1      45.788  27.385  57.793  0.00  0.00    -0.265 OA
BRANCH  12  14
ATOM     14  C   UNL d   1      44.586  28.515  57.821  0.00  0.00     0.166 A 
ATOM     15  N   UNL d   1      44.618  28.698  58.624  0.00  0.00    -0.225 NA
ATOM     16  C   UNL d   1      44.783  29.474  58.861  0.00  0.00     0.107 A 
ATOM     17  C   UNL d   1      44.915  30.058  58.294  0.00  0.00     0.054 A 
ATOM     18  C   UNL d   1      44.882  29.868  57.490  0.00  0.00     0.011 A 
ATOM     19 BR   UNL d   1      45.080  30.831  58.528  0.00  0.00    -0.048 Br
ATOM     20  C   UNL d   1      44.717  29.096  57.256  0.00  0.00     0.039 A 
ENDBRANCH  12  14
ENDBRANCH   1  11
TORSDOF 2
ENDMDL
MODEL 9
REMARK VINA RESULT:      -5.4     11.027     11.602
REMARK  2 active torsions:
REMARK  status: ('A' for Active; 'I' for Inactive)
REMARK       I    between atoms: N_2  and  C_1 
REMARK    1  A    between atoms: C_3  and  C_1 
REMARK    2  A    between atoms: C_4  and  N_2 
ROOT
ATOM      1  C   UNL d   1      44.731  25.029  55.918  0.00  0.00     0.059 A 
ATOM      2  C   UNL d   1      45.120  24.330  56.117  0.00  0.00     0.025 A 
ATOM      3  C   UNL d   1      45.124  23.691  55.583  0.00  0.00     0.099 A 
ATOM      4  N   UNL d   1      45.513  22.990  55.781  0.00  0.00    -0.241 NA
ATOM      5  N   UNL d   1      44.737  23.135  54.322  0.00  0.00    -0.241 NA
ATOM      6  C   UNL d   1      44.739  23.758  54.856  0.00  0.00     0.099 A 
ATOM      7  C   UNL d   1      44.345  25.096  55.187  0.00  0.00     0.006 A 
ATOM      8  C   UNL d   1      44.348  24.464  54.659  0.00  0.00     0.021 A 
ATOM      9  C   UNL d   1      45.513  22.358  55.245  0.00  0.00     0.120 A 
ATOM     10  C   UNL d   1      45.127  22.430  54.519  0.00  0.00     0.120 A 
ENDROOT
BRANCH   1  11
ATOM     11  C   UNL d   1      44.727  25.660  56.446  0.00  0.00     0.281 C 
ATOM     12  N   UNL d   1      45.136  26.353  56.266  0.00  0.00    -0.189 NA
ATOM     13  O   UNL d   1      44.315  25.597  57.157  0.00  0.00    -0.265 OA
BRANCH  12  14
ATOM     14  C   UNL d   1      45.132  26.984  56.796  0.00  0.00     0.166 A 
ATOM     15  N   UNL d   1      44.612  27.614  56.676  0.00  0.00    -0.225 NA
ATOM     16  C   UNL d   1      44.607  28.248  57.207  0.00  0.00     0.107 A 
ATOM     17  C   UNL d   1      45.120  28.248  57.853  0.00  0.00     0.054 A 
ATOM     18  C   UNL d   1      45.639  27.613  57.969  0.00  0.00     0.011 A 
ATOM     19 BR   UNL d   1      45.117  28.878  58.384  0.00  0.00    -0.048 Br
ATOM     20  C   UNL d   1      45.642  26.984  57.438  0.00  0.00     0.039 A 
ENDBRANCH  12  14
ENDBRANCH   1  11
TORSDOF 2
ENDMDL
