MODEL 1
REMARK VINA RESULT:      30.1      0.000      0.000
REMARK  3 active torsions:
REMARK  status: ('A' for Active; 'I' for Inactive)
REMARK    1  A    between atoms: C_7  and  C_1 
REMARK    2  A    between atoms: C_9  and  C_6 
REMARK    3  A    between atoms: O_13  and  C_7 
ROOT
ATOM      1  C   UNL d   1      58.886  49.637  50.169  0.00  0.00     0.097 A 
ATOM      2  C   UNL d   1      58.161  49.663  49.784  0.00  0.00     0.073 A 
ATOM      3  C   UNL d   1      57.492  49.671  51.044  0.00  0.00     0.206 A 
ATOM      4  N   UNL d   1      57.461  49.680  50.215  0.00  0.00    -0.280 N 
ATOM      5  N   UNL d   1      58.217  49.645  51.430  0.00  0.00    -0.218 NA
ATOM      6  C   UNL d   1      58.928  49.628  50.994  0.00  0.00     0.090 A 
ATOM      7  S   UNL d   1      56.790  49.688  51.479  0.00  0.00    -0.038 SA
ATOM      8  C   UNL d   1      58.136  49.672  48.944  0.00  0.00     0.019 C 
ATOM      9  C   UNL d   1      56.732  49.706  49.828  0.00  0.00     0.101 C 
ENDROOT
BRANCH   6  10
ATOM     10  C   UNL d   1      59.662  49.602  51.384  0.00  0.00     0.018 A 
ATOM     11  C   UNL d   1      59.691  49.692  52.204  0.00  0.00     0.002 A 
ATOM     12  C   UNL d   1      60.416  49.666  52.589  0.00  0.00     0.000 A 
ATOM     13  C   UNL d   1      61.114  49.551  52.155  0.00  0.00     0.000 A 
ATOM     14  C   UNL d   1      61.073  49.463  51.338  0.00  0.00     0.000 A 
ATOM     15  C   UNL d   1      60.347  49.489  50.953  0.00  0.00     0.002 A 
ENDBRANCH   6  10
BRANCH   1  16
ATOM     16  C   UNL d   1      59.603  49.620  49.723  0.00  0.00     0.299 C 
ATOM     17  O   UNL d   1      59.582  49.708  48.897  0.00  0.00    -0.259 OA
BRANCH  16  18
ATOM     18  O   UNL d   1      60.323  49.515  50.121  0.00  0.00    -0.296 OA
ATOM     19  C   UNL d   1      61.028  49.450  49.703  0.00  0.00     0.185 C 
ENDBRANCH  16  18
ENDBRANCH   1  16
TORSDOF 3
ENDMDL
