MODEL 1
REMARK VINA RESULT:      -4.5      0.000      0.000
REMARK  6 active torsions:
REMARK  status: ('A' for Active; 'I' for Inactive)
REMARK    1  A    between atoms: C_10  and  C_1 
REMARK    2  A    between atoms: C_4  and  O_8 
REMARK       I    between atoms: N_12  and  C_4 
REMARK    3  A    between atoms: O_8  and  C_13 
REMARK    4  A    between atoms: C_23  and  N_12 
REMARK    5  A    between atoms: C_24  and  N_12 
REMARK    6  A    between atoms: O_22  and  C_19 
ROOT
ATOM      1  C   UNL d   1     -38.416  14.642  17.201  0.00  0.00     0.064 A 
ATOM      2  C   UNL d   1     -38.892  14.135  17.670  0.00  0.00     0.199 A 
ATOM      3  C   UNL d   1     -39.013  14.304  18.465  0.00  0.00     0.062 A 
ATOM      4  C   UNL d   1     -38.067  15.313  17.541  0.00  0.00     0.126 A 
ATOM      5  C   UNL d   1     -38.661  14.982  18.809  0.00  0.00     0.105 A 
ATOM      6  O   UNL d   1     -38.189  15.489  18.353  0.00  0.00    -0.305 OA
ATOM      7  C   UNL d   1     -38.784  15.152  19.612  0.00  0.00     0.050 A 
ATOM      8  C   UNL d   1     -39.483  13.808  18.939  0.00  0.00     0.007 A 
ATOM      9  C   UNL d   1     -39.254  14.648  20.070  0.00  0.00     0.107 A 
ATOM     10  O   UNL d   1     -39.236  13.468  17.328  0.00  0.00    -0.286 OA
ATOM     11  C   UNL d   1     -39.602  13.980  19.735  0.00  0.00     0.025 A 
ENDROOT
BRANCH   1  12
ATOM     12  C   UNL d   1     -38.297  14.469  16.405  0.00  0.00     0.005 A 
ATOM     13  C   UNL d   1     -38.061  13.712  16.176  0.00  0.00     0.002 A 
ATOM     14  C   UNL d   1     -37.943  13.541  15.380  0.00  0.00     0.024 A 
ATOM     15  C   UNL d   1     -38.060  14.125  14.812  0.00  0.00     0.094 A 
ATOM     16  C   UNL d   1     -38.297  14.885  15.042  0.00  0.00     0.024 A 
ATOM     17  C   UNL d   1     -38.414  15.054  15.837  0.00  0.00     0.002 A 
BRANCH  15  18
ATOM     18  O   UNL d   1     -37.943  13.957  14.017  0.00  0.00    -0.328 OA
ATOM     19  C   UNL d   1     -37.963  13.172  13.757  0.00  0.00     0.181 C 
ENDBRANCH  15  18
ENDBRANCH   1  12
BRANCH   9  20
ATOM     20  O   UNL d   1     -39.373  14.821  20.867  0.00  0.00    -0.259 OA
BRANCH  20  21
ATOM     21  C   UNL d   1     -38.924  14.437  21.440  0.00  0.00     0.377 C 
ATOM     22  N   UNL d   1     -38.961  14.687  22.224  0.00  0.00    -0.252 N 
ATOM     23  O   UNL d   1     -38.438  13.806  21.230  0.00  0.00    -0.237 OA
BRANCH  22  24
ATOM     24  C   UNL d   1     -38.511  14.303  22.801  0.00  0.00     0.085 C 
ATOM     25  C   UNL d   1     -38.884  13.872  23.396  0.00  0.00     0.021 C 
ENDBRANCH  22  24
BRANCH  22  26
ATOM     26  C   UNL d   1     -39.448  15.319  22.434  0.00  0.00     0.085 C 
ATOM     27  C   UNL d   1     -39.160  15.918  22.922  0.00  0.00     0.021 C 
ENDBRANCH  22  26
ENDBRANCH  20  21
ENDBRANCH   9  20
TORSDOF 6
ENDMDL
MODEL 2
REMARK VINA RESULT:      -4.1      9.193     11.011
REMARK  6 active torsions:
REMARK  status: ('A' for Active; 'I' for Inactive)
REMARK    1  A    between atoms: C_10  and  C_1 
REMARK    2  A    between atoms: C_4  and  O_8 
REMARK       I    between atoms: N_12  and  C_4 
REMARK    3  A    between atoms: O_8  and  C_13 
REMARK    4  A    between atoms: C_23  and  N_12 
REMARK    5  A    between atoms: C_24  and  N_12 
REMARK    6  A    between atoms: O_22  and  C_19 
ROOT
ATOM      1  C   UNL d   1     -46.388  11.994  23.233  0.00  0.00     0.064 A 
ATOM      2  C   UNL d   1     -47.098  11.607  23.455  0.00  0.00     0.199 A 
ATOM      3  C   UNL d   1     -47.812  12.011  23.431  0.00  0.00     0.062 A 
ATOM      4  C   UNL d   1     -46.409  12.786  22.989  0.00  0.00     0.126 A 
ATOM      5  C   UNL d   1     -47.833  12.812  23.184  0.00  0.00     0.105 A 
ATOM      6  O   UNL d   1     -47.137  13.203  22.962  0.00  0.00    -0.305 OA
ATOM      7  C   UNL d   1     -48.556  13.220  23.159  0.00  0.00     0.050 A 
ATOM      8  C   UNL d   1     -48.522  11.637  23.649  0.00  0.00     0.007 A 
ATOM      9  C   UNL d   1     -49.253  12.833  23.380  0.00  0.00     0.107 A 
ATOM     10  O   UNL d   1     -47.073  10.819  23.698  0.00  0.00    -0.286 OA
ATOM     11  C   UNL d   1     -49.236  12.046  23.623  0.00  0.00     0.025 A 
ENDROOT
BRANCH   1  12
ATOM     12  C   UNL d   1     -45.674  11.585  23.259  0.00  0.00     0.005 A 
ATOM     13  C   UNL d   1     -45.633  10.847  23.626  0.00  0.00     0.002 A 
ATOM     14  C   UNL d   1     -44.919  10.439  23.651  0.00  0.00     0.024 A 
ATOM     15  C   UNL d   1     -44.246  10.767  23.311  0.00  0.00     0.094 A 
ATOM     16  C   UNL d   1     -44.287  11.509  22.942  0.00  0.00     0.024 A 
ATOM     17  C   UNL d   1     -45.001  11.914  22.918  0.00  0.00     0.002 A 
BRANCH  15  18
ATOM     18  O   UNL d   1     -43.532  10.363  23.334  0.00  0.00    -0.328 OA
ATOM     19  C   UNL d   1     -43.524   9.557  23.523  0.00  0.00     0.181 C 
ENDBRANCH  15  18
ENDBRANCH   1  12
BRANCH   9  20
ATOM     20  O   UNL d   1     -49.968  13.242  23.354  0.00  0.00    -0.259 OA
BRANCH  20  21
ATOM     21  C   UNL d   1     -50.351  13.350  22.634  0.00  0.00     0.377 C 
ATOM     22  N   UNL d   1     -50.668  14.087  22.445  0.00  0.00    -0.252 N 
ATOM     23  O   UNL d   1     -50.418  12.724  22.103  0.00  0.00    -0.237 OA
BRANCH  22  24
ATOM     24  C   UNL d   1     -51.054  14.198  21.722  0.00  0.00     0.085 C 
ATOM     25  C   UNL d   1     -50.973  14.911  21.318  0.00  0.00     0.021 C 
ENDBRANCH  22  24
BRANCH  22  26
ATOM     26  C   UNL d   1     -50.601  14.714  22.977  0.00  0.00     0.085 C 
ATOM     27  C   UNL d   1     -51.049  15.397  22.868  0.00  0.00     0.021 C 
ENDBRANCH  22  26
ENDBRANCH  20  21
ENDBRANCH   9  20
TORSDOF 6
ENDMDL
MODEL 3
REMARK VINA RESULT:      -3.3      7.583      9.663
REMARK  6 active torsions:
REMARK  status: ('A' for Active; 'I' for Inactive)
REMARK    1  A    between atoms: C_10  and  C_1 
REMARK    2  A    between atoms: C_4  and  O_8 
REMARK       I    between atoms: N_12  and  C_4 
REMARK    3  A    between atoms: O_8  and  C_13 
REMARK    4  A    between atoms: C_23  and  N_12 
REMARK    5  A    between atoms: C_24  and  N_12 
REMARK    6  A    between atoms: O_22  and  C_19 
ROOT
ATOM      1  C   UNL d   1     -47.393  12.721  22.598  0.00  0.00     0.064 A 
ATOM      2  C   UNL d   1     -46.731  12.230  22.753  0.00  0.00     0.199 A 
ATOM      3  C   UNL d   1     -45.974  12.487  22.565  0.00  0.00     0.062 A 
ATOM      4  C   UNL d   1     -47.281  13.468  22.255  0.00  0.00     0.126 A 
ATOM      5  C   UNL d   1     -45.861  13.241  22.218  0.00  0.00     0.105 A 
ATOM      6  O   UNL d   1     -46.509  13.735  22.061  0.00  0.00    -0.305 OA
ATOM      7  C   UNL d   1     -45.096  13.501  22.028  0.00  0.00     0.050 A 
ATOM      8  C   UNL d   1     -45.311  12.007  22.715  0.00  0.00     0.007 A 
ATOM      9  C   UNL d   1     -44.447  13.011  22.184  0.00  0.00     0.107 A 
ATOM     10  O   UNL d   1     -46.847  11.488  23.095  0.00  0.00    -0.286 OA
ATOM     11  C   UNL d   1     -44.554  12.269  22.525  0.00  0.00     0.025 A 
ENDROOT
BRANCH   1  12
ATOM     12  C   UNL d   1     -48.149  12.460  22.788  0.00  0.00     0.005 A 
ATOM     13  C   UNL d   1     -48.493  12.674  23.507  0.00  0.00     0.002 A 
ATOM     14  C   UNL d   1     -49.251  12.411  23.696  0.00  0.00     0.024 A 
ATOM     15  C   UNL d   1     -49.664  11.935  23.167  0.00  0.00     0.094 A 
ATOM     16  C   UNL d   1     -49.318  11.720  22.445  0.00  0.00     0.024 A 
ATOM     17  C   UNL d   1     -48.563  11.983  22.258  0.00  0.00     0.002 A 
BRANCH  15  18
ATOM     18  O   UNL d   1     -50.419  11.671  23.353  0.00  0.00    -0.328 OA
ATOM     19  C   UNL d   1     -51.026  12.221  23.472  0.00  0.00     0.181 C 
ENDBRANCH  15  18
ENDBRANCH   1  12
BRANCH   9  20
ATOM     20  O   UNL d   1     -43.689  13.273  21.994  0.00  0.00    -0.259 OA
BRANCH  20  21
ATOM     21  C   UNL d   1     -43.349  13.055  21.277  0.00  0.00     0.377 C 
ATOM     22  N   UNL d   1     -42.626  13.380  21.051  0.00  0.00    -0.252 N 
ATOM     23  O   UNL d   1     -43.730  12.514  20.786  0.00  0.00    -0.237 OA
BRANCH  22  24
ATOM     24  C   UNL d   1     -42.283  13.162  20.331  0.00  0.00     0.085 C 
ATOM     25  C   UNL d   1     -41.822  13.704  19.914  0.00  0.00     0.021 C 
ENDBRANCH  22  24
BRANCH  22  26
ATOM     26  C   UNL d   1     -42.245  13.922  21.542  0.00  0.00     0.085 C 
ATOM     27  C   UNL d   1     -41.422  13.956  21.559  0.00  0.00     0.021 C 
ENDBRANCH  22  26
ENDBRANCH  20  21
ENDBRANCH   9  20
TORSDOF 6
ENDMDL
MODEL 4
REMARK VINA RESULT:      -2.5      6.659      8.845
REMARK  6 active torsions:
REMARK  status: ('A' for Active; 'I' for Inactive)
REMARK    1  A    between atoms: C_10  and  C_1 
REMARK    2  A    between atoms: C_4  and  O_8 
REMARK       I    between atoms: N_12  and  C_4 
REMARK    3  A    between atoms: O_8  and  C_13 
REMARK    4  A    between atoms: C_23  and  N_12 
REMARK    5  A    between atoms: C_24  and  N_12 
REMARK    6  A    between atoms: O_22  and  C_19 
ROOT
ATOM      1  C   UNL d   1     -46.378  12.977  22.532  0.00  0.00     0.064 A 
ATOM      2  C   UNL d   1     -45.768  12.405  22.478  0.00  0.00     0.199 A 
ATOM      3  C   UNL d   1     -45.003  12.635  22.289  0.00  0.00     0.062 A 
ATOM      4  C   UNL d   1     -46.208  13.777  22.395  0.00  0.00     0.126 A 
ATOM      5  C   UNL d   1     -44.831  13.443  22.149  0.00  0.00     0.105 A 
ATOM      6  O   UNL d   1     -45.427  14.017  22.201  0.00  0.00    -0.305 OA
ATOM      7  C   UNL d   1     -44.057  13.676  21.958  0.00  0.00     0.050 A 
ATOM      8  C   UNL d   1     -44.390  12.075  22.232  0.00  0.00     0.007 A 
ATOM      9  C   UNL d   1     -43.459  13.107  21.906  0.00  0.00     0.107 A 
ATOM     10  O   UNL d   1     -45.942  11.610  22.616  0.00  0.00    -0.286 OA
ATOM     11  C   UNL d   1     -43.625  12.311  22.042  0.00  0.00     0.025 A 
ENDROOT
BRANCH   1  12
ATOM     12  C   UNL d   1     -47.144  12.741  22.722  0.00  0.00     0.005 A 
ATOM     13  C   UNL d   1     -47.715  12.675  22.131  0.00  0.00     0.002 A 
ATOM     14  C   UNL d   1     -48.481  12.439  22.322  0.00  0.00     0.024 A 
ATOM     15  C   UNL d   1     -48.675  12.270  23.104  0.00  0.00     0.094 A 
ATOM     16  C   UNL d   1     -48.101  12.337  23.698  0.00  0.00     0.024 A 
ATOM     17  C   UNL d   1     -47.338  12.572  23.505  0.00  0.00     0.002 A 
BRANCH  15  18
ATOM     18  O   UNL d   1     -49.437  12.034  23.298  0.00  0.00    -0.328 OA
ATOM     19  C   UNL d   1     -50.048  12.135  22.750  0.00  0.00     0.181 C 
ENDBRANCH  15  18
ENDBRANCH   1  12
BRANCH   9  20
ATOM     20  O   UNL d   1     -42.693  13.342  21.716  0.00  0.00    -0.259 OA
BRANCH  20  21
ATOM     21  C   UNL d   1     -42.441  13.322  20.932  0.00  0.00     0.377 C 
ATOM     22  N   UNL d   1     -41.748  13.711  20.715  0.00  0.00    -0.252 N 
ATOM     23  O   UNL d   1     -42.881  12.914  20.367  0.00  0.00    -0.237 OA
BRANCH  22  24
ATOM     24  C   UNL d   1     -41.494  13.692  19.928  0.00  0.00     0.085 C 
ATOM     25  C   UNL d   1     -41.250  14.387  19.558  0.00  0.00     0.021 C 
ENDBRANCH  22  24
BRANCH  22  26
ATOM     26  C   UNL d   1     -41.309  14.120  21.280  0.00  0.00     0.085 C 
ATOM     27  C   UNL d   1     -40.485  14.102  21.255  0.00  0.00     0.021 C 
ENDBRANCH  22  26
ENDBRANCH  20  21
ENDBRANCH   9  20
TORSDOF 6
ENDMDL
MODEL 5
REMARK VINA RESULT:      -2.3      2.091      2.717
REMARK  6 active torsions:
REMARK  status: ('A' for Active; 'I' for Inactive)
REMARK    1  A    between atoms: C_10  and  C_1 
REMARK    2  A    between atoms: C_4  and  O_8 
REMARK       I    between atoms: N_12  and  C_4 
REMARK    3  A    between atoms: O_8  and  C_13 
REMARK    4  A    between atoms: C_23  and  N_12 
REMARK    5  A    between atoms: C_24  and  N_12 
REMARK    6  A    between atoms: O_22  and  C_19 
ROOT
ATOM      1  C   UNL d   1     -40.401  15.033  18.488  0.00  0.00     0.064 A 
ATOM      2  C   UNL d   1     -39.604  15.247  18.638  0.00  0.00     0.199 A 
ATOM      3  C   UNL d   1     -39.245  15.028  19.344  0.00  0.00     0.062 A 
ATOM      4  C   UNL d   1     -40.826  14.601  19.054  0.00  0.00     0.126 A 
ATOM      5  C   UNL d   1     -39.675  14.592  19.916  0.00  0.00     0.105 A 
ATOM      6  O   UNL d   1     -40.463  14.376  19.777  0.00  0.00    -0.305 OA
ATOM      7  C   UNL d   1     -39.311  14.371  20.629  0.00  0.00     0.050 A 
ATOM      8  C   UNL d   1     -38.455  15.235  19.502  0.00  0.00     0.007 A 
ATOM      9  C   UNL d   1     -38.525  14.584  20.771  0.00  0.00     0.107 A 
ATOM     10  O   UNL d   1     -39.184  15.676  18.073  0.00  0.00    -0.286 OA
ATOM     11  C   UNL d   1     -38.099  15.014  20.211  0.00  0.00     0.025 A 
ENDROOT
BRANCH   1  12
ATOM     12  C   UNL d   1     -40.757  15.254  17.780  0.00  0.00     0.005 A 
ATOM     13  C   UNL d   1     -40.421  15.030  17.060  0.00  0.00     0.002 A 
ATOM     14  C   UNL d   1     -40.777  15.252  16.352  0.00  0.00     0.024 A 
ATOM     15  C   UNL d   1     -41.469  15.697  16.363  0.00  0.00     0.094 A 
ATOM     16  C   UNL d   1     -41.807  15.922  17.086  0.00  0.00     0.024 A 
ATOM     17  C   UNL d   1     -41.450  15.700  17.791  0.00  0.00     0.002 A 
BRANCH  15  18
ATOM     18  O   UNL d   1     -41.828  15.920  15.658  0.00  0.00    -0.328 OA
ATOM     19  C   UNL d   1     -42.556  15.589  15.447  0.00  0.00     0.181 C 
ENDBRANCH  15  18
ENDBRANCH   1  12
BRANCH   9  20
ATOM     20  O   UNL d   1     -38.169  14.363  21.480  0.00  0.00    -0.259 OA
BRANCH  20  21
ATOM     21  C   UNL d   1     -38.422  14.699  22.188  0.00  0.00     0.377 C 
ATOM     22  N   UNL d   1     -38.308  14.295  22.897  0.00  0.00    -0.252 N 
ATOM     23  O   UNL d   1     -38.790  15.436  22.187  0.00  0.00    -0.237 OA
BRANCH  22  24
ATOM     24  C   UNL d   1     -38.562  14.630  23.608  0.00  0.00     0.085 C 
ATOM     25  C   UNL d   1     -39.284  15.027  23.642  0.00  0.00     0.021 C 
ENDBRANCH  22  24
BRANCH  22  26
ATOM     26  C   UNL d   1     -37.940  13.557  22.897  0.00  0.00     0.085 C 
ATOM     27  C   UNL d   1     -37.987  13.072  23.562  0.00  0.00     0.021 C 
ENDBRANCH  22  26
ENDBRANCH  20  21
ENDBRANCH   9  20
TORSDOF 6
ENDMDL
MODEL 6
REMARK VINA RESULT:      -1.6      6.275      7.756
REMARK  6 active torsions:
REMARK  status: ('A' for Active; 'I' for Inactive)
REMARK    1  A    between atoms: C_10  and  C_1 
REMARK    2  A    between atoms: C_4  and  O_8 
REMARK       I    between atoms: N_12  and  C_4 
REMARK    3  A    between atoms: O_8  and  C_13 
REMARK    4  A    between atoms: C_23  and  N_12 
REMARK    5  A    between atoms: C_24  and  N_12 
REMARK    6  A    between atoms: O_22  and  C_19 
ROOT
ATOM      1  C   UNL d   1     -43.165  13.081  21.556  0.00  0.00     0.064 A 
ATOM      2  C   UNL d   1     -43.812  13.599  21.685  0.00  0.00     0.199 A 
ATOM      3  C   UNL d   1     -44.523  13.306  21.974  0.00  0.00     0.062 A 
ATOM      4  C   UNL d   1     -43.245  12.272  21.721  0.00  0.00     0.126 A 
ATOM      5  C   UNL d   1     -44.603  12.489  22.141  0.00  0.00     0.105 A 
ATOM      6  O   UNL d   1     -43.970  11.969  22.017  0.00  0.00    -0.305 OA
ATOM      7  C   UNL d   1     -45.322  12.194  22.433  0.00  0.00     0.050 A 
ATOM      8  C   UNL d   1     -45.170  13.812  22.105  0.00  0.00     0.007 A 
ATOM      9  C   UNL d   1     -45.956  12.710  22.558  0.00  0.00     0.107 A 
ATOM     10  O   UNL d   1     -43.728  14.403  21.519  0.00  0.00    -0.286 OA
ATOM     11  C   UNL d   1     -45.881  13.514  22.395  0.00  0.00     0.025 A 
ENDROOT
BRANCH   1  12
ATOM     12  C   UNL d   1     -42.455  13.378  21.266  0.00  0.00     0.005 A 
ATOM     13  C   UNL d   1     -42.397  13.620  20.479  0.00  0.00     0.002 A 
ATOM     14  C   UNL d   1     -41.686  13.917  20.191  0.00  0.00     0.024 A 
ATOM     15  C   UNL d   1     -41.032  13.974  20.688  0.00  0.00     0.094 A 
ATOM     16  C   UNL d   1     -41.090  13.731  21.478  0.00  0.00     0.024 A 
ATOM     17  C   UNL d   1     -41.801  13.435  21.764  0.00  0.00     0.002 A 
BRANCH  15  18
ATOM     18  O   UNL d   1     -40.321  14.270  20.403  0.00  0.00    -0.328 OA
ATOM     19  C   UNL d   1     -39.645  14.235  20.877  0.00  0.00     0.181 C 
ENDBRANCH  15  18
ENDBRANCH   1  12
BRANCH   9  20
ATOM     20  O   UNL d   1     -46.668  12.413  22.848  0.00  0.00    -0.259 OA
BRANCH  20  21
ATOM     21  C   UNL d   1     -47.356  12.491  22.403  0.00  0.00     0.377 C 
ATOM     22  N   UNL d   1     -48.084  12.299  22.737  0.00  0.00    -0.252 N 
ATOM     23  O   UNL d   1     -47.317  12.761  21.625  0.00  0.00    -0.237 OA
BRANCH  22  24
ATOM     24  C   UNL d   1     -48.776  12.378  22.292  0.00  0.00     0.085 C 
ATOM     25  C   UNL d   1     -49.423  12.783  22.603  0.00  0.00     0.021 C 
ENDBRANCH  22  24
BRANCH  22  26
ATOM     26  C   UNL d   1     -48.123  12.029  23.516  0.00  0.00     0.085 C 
ATOM     27  C   UNL d   1     -48.563  11.357  23.698  0.00  0.00     0.021 C 
ENDBRANCH  22  26
ENDBRANCH  20  21
ENDBRANCH   9  20
TORSDOF 6
ENDMDL
