MODEL 1
REMARK VINA RESULT:      57.1      0.000      0.000
REMARK  4 active torsions:
REMARK  status: ('A' for Active; 'I' for Inactive)
REMARK    1  A    between atoms: S_10  and  C_6 
REMARK    2  A    between atoms: C_16  and  S_10 
REMARK    3  A    between atoms: C_11  and  C_16 
REMARK       I    between atoms: N_13  and  C_11 
REMARK    4  A    between atoms: C_14  and  N_13 
ROOT
ATOM      1  C   UNL d   1     -50.955  24.215  33.310  0.00  0.00     0.155 A 
ATOM      2  C   UNL d   1     -51.453  24.877  33.312  0.00  0.00     0.107 A 
ATOM      3  N   UNL d   1     -49.814  25.078  33.312  0.00  0.00    -0.250 N 
ATOM      4  C   UNL d   1     -50.139  24.315  33.310  0.00  0.00     0.285 A 
ATOM      5  N   UNL d   1     -51.127  25.641  33.314  0.00  0.00    -0.220 NA
ATOM      6  C   UNL d   1     -50.309  25.731  33.314  0.00  0.00     0.182 A 
ATOM      7  N   UNL d   1     -51.426  23.538  33.309  0.00  0.00    -0.239 NA
ATOM      8  C   UNL d   1     -52.234  24.615  33.312  0.00  0.00     0.037 A 
ATOM      9  C   UNL d   1     -52.220  23.781  33.309  0.00  0.00     0.083 A 
ATOM     10  O   UNL d   1     -49.632  23.655  33.308  0.00  0.00    -0.265 OA
ATOM     11  C   UNL d   1     -48.990  25.180  33.312  0.00  0.00     0.104 C 
ATOM     12  C   UNL d   1     -52.955  25.013  33.313  0.00  0.00     0.003 A 
ATOM     13  C   UNL d   1     -52.931  23.352  33.309  0.00  0.00     0.019 A 
ATOM     14  C   UNL d   1     -53.665  24.586  33.312  0.00  0.00     0.000 A 
ATOM     15  C   UNL d   1     -53.651  23.762  33.310  0.00  0.00     0.002 A 
ENDROOT
BRANCH   6  16
ATOM     16  S   UNL d   1     -49.982  26.492  33.316  0.00  0.00    -0.044 SA
BRANCH  16  17
ATOM     17  C   UNL d   1     -50.040  26.969  33.987  0.00  0.00     0.101 C 
BRANCH  17  18
ATOM     18  C   UNL d   1     -49.497  27.577  34.110  0.00  0.00     0.286 C 
ATOM     19  N   UNL d   1     -49.218  27.719  34.867  0.00  0.00    -0.208 NA
ATOM     20  O   UNL d   1     -49.235  28.041  33.486  0.00  0.00    -0.265 OA
BRANCH  19  21
ATOM     21  C   UNL d   1     -48.671  28.331  34.997  0.00  0.00     0.085 A 
ATOM     22  C   UNL d   1     -48.581  28.639  35.746  0.00  0.00     0.019 A 
ATOM     23  C   UNL d   1     -48.035  29.250  35.876  0.00  0.00     0.002 A 
ATOM     24  C   UNL d   1     -47.933  29.577  36.644  0.00  0.00     0.000 C 
ATOM     25  C   UNL d   1     -47.588  29.542  35.251  0.00  0.00     0.000 A 
ATOM     26  C   UNL d   1     -47.682  29.225  34.490  0.00  0.00     0.002 A 
ATOM     27  C   UNL d   1     -48.224  28.621  34.371  0.00  0.00     0.019 A 
ENDBRANCH  19  21
ENDBRANCH  17  18
ENDBRANCH  16  17
ENDBRANCH   6  16
TORSDOF 4
ENDMDL
