MODEL 1
REMARK VINA RESULT:     -10.9      0.000      0.000
REMARK  5 active torsions:
REMARK  status: ('A' for Active; 'I' for Inactive)
REMARK    1  A    between atoms: C_3  and  S_1 
REMARK    2  A    between atoms: N_6  and  S_1 
REMARK    3  A    between atoms: S_2  and  N_4 
REMARK    4  A    between atoms: C_10  and  S_2 
REMARK    5  A    between atoms: N_4  and  C_5 
ROOT
ATOM      1  C   UNL d   1      52.557  34.081  53.629  0.00  0.00     0.105 A 
ATOM      2  C   UNL d   1      53.746  33.347  53.908  0.00  0.00     0.076 A 
ATOM      3  C   UNL d   1      53.063  33.438  53.470  0.00  0.00     0.031 A 
ATOM      4  C   UNL d   1      52.755  34.612  54.225  0.00  0.00     0.012 A 
ATOM      5  C   UNL d   1      53.943  33.881  54.506  0.00  0.00     0.017 A 
ATOM      6  C   UNL d   1      53.451  34.515  54.669  0.00  0.00     0.002 A 
ATOM      7  C   UNL d   1      54.641  33.783  54.950  0.00  0.00     0.002 C 
ATOM      8  C   UNL d   1      52.249  35.255  54.384  0.00  0.00     0.001 C 
ENDROOT
BRANCH   2   9
ATOM      9  N   UNL d   1      54.231  32.700  53.730  0.00  0.00    -0.229 N 
ATOM     10  C   UNL d   1      55.020  32.824  53.593  0.00  0.00     0.111 C 
BRANCH   9  11
ATOM     11  S   UNL d   1      53.911  31.954  53.695  0.00  0.00     0.271 S 
ATOM     12  O   UNL d   1      53.942  31.977  52.875  0.00  0.00    -0.200 OA
ATOM     13  O   UNL d   1      53.872  31.912  54.525  0.00  0.00    -0.200 OA
BRANCH  11  14
ATOM     14  C   UNL d   1      53.580  31.184  53.652  0.00  0.00     0.104 A 
ATOM     15  C   UNL d   1      53.204  30.934  52.962  0.00  0.00     0.013 A 
ATOM     16  C   UNL d   1      52.884  30.187  52.925  0.00  0.00     0.001 A 
ATOM     17  C   UNL d   1      52.944  29.687  53.586  0.00  0.00     0.000 A 
ATOM     18  C   UNL d   1      53.311  29.932  54.259  0.00  0.00     0.001 A 
ATOM     19  C   UNL d   1      52.619  28.915  53.558  0.00  0.00     0.000 C 
ATOM     20  C   UNL d   1      53.637  30.684  54.306  0.00  0.00     0.013 A 
ENDBRANCH  11  14
ENDBRANCH   9  11
ENDBRANCH   2   9
BRANCH   1  21
ATOM     21  S   UNL d   1      51.860  34.190  53.195  0.00  0.00     0.271 S 
ATOM     22  O   UNL d   1      52.277  34.631  52.617  0.00  0.00    -0.200 OA
ATOM     23  O   UNL d   1      51.437  33.748  53.773  0.00  0.00    -0.200 OA
BRANCH  21  24
ATOM     24  N   UNL d   1      51.160  34.297  52.764  0.00  0.00    -0.229 N 
ATOM     25  C   UNL d   1      51.165  34.246  51.946  0.00  0.00     0.092 A 
ATOM     26  C   UNL d   1      50.470  34.351  51.500  0.00  0.00     0.020 A 
ATOM     27  C   UNL d   1      49.767  34.509  51.891  0.00  0.00     0.003 A 
ATOM     28  C   UNL d   1      49.764  34.561  52.718  0.00  0.00     0.020 A 
ATOM     29  C   UNL d   1      49.081  34.615  51.473  0.00  0.00     0.000 C 
ATOM     30  C   UNL d   1      50.444  34.456  53.136  0.00  0.00     0.092 A 
ENDBRANCH  21  24
ENDBRANCH   1  21
TORSDOF 5
ENDMDL
MODEL 2
REMARK VINA RESULT:      -8.6      0.689      4.232
REMARK  5 active torsions:
REMARK  status: ('A' for Active; 'I' for Inactive)
REMARK    1  A    between atoms: C_3  and  S_1 
REMARK    2  A    between atoms: N_6  and  S_1 
REMARK    3  A    between atoms: S_2  and  N_4 
REMARK    4  A    between atoms: C_10  and  S_2 
REMARK    5  A    between atoms: N_4  and  C_5 
ROOT
ATOM      1  C   UNL d   1      53.470  32.715  53.659  0.00  0.00     0.105 A 
ATOM      2  C   UNL d   1      52.960  34.041  53.768  0.00  0.00     0.076 A 
ATOM      3  C   UNL d   1      52.825  33.236  53.730  0.00  0.00     0.031 A 
ATOM      4  C   UNL d   1      54.234  33.020  53.626  0.00  0.00     0.012 A 
ATOM      5  C   UNL d   1      53.726  34.346  53.735  0.00  0.00     0.017 A 
ATOM      6  C   UNL d   1      54.367  33.840  53.665  0.00  0.00     0.002 A 
ATOM      7  C   UNL d   1      53.860  35.167  53.773  0.00  0.00     0.002 C 
ATOM      8  C   UNL d   1      54.880  32.499  53.555  0.00  0.00     0.001 C 
ENDROOT
BRANCH   2   9
ATOM      9  N   UNL d   1      52.301  34.537  53.839  0.00  0.00    -0.229 N 
ATOM     10  C   UNL d   1      52.269  35.066  54.452  0.00  0.00     0.111 C 
BRANCH   9  11
ATOM     11  S   UNL d   1      51.699  34.487  53.295  0.00  0.00     0.271 S 
ATOM     12  O   UNL d   1      51.239  34.079  53.841  0.00  0.00    -0.200 OA
ATOM     13  O   UNL d   1      52.150  34.898  52.730  0.00  0.00    -0.200 OA
BRANCH  11  14
ATOM     14  C   UNL d   1      51.073  34.431  52.739  0.00  0.00     0.104 A 
ATOM     15  C   UNL d   1      51.240  34.347  51.936  0.00  0.00     0.013 A 
ATOM     16  C   UNL d   1      50.630  34.293  51.400  0.00  0.00     0.001 A 
ATOM     17  C   UNL d   1      49.846  34.324  51.675  0.00  0.00     0.000 A 
ATOM     18  C   UNL d   1      49.684  34.405  52.459  0.00  0.00     0.001 A 
ATOM     19  C   UNL d   1      49.210  34.269  51.132  0.00  0.00     0.000 C 
ATOM     20  C   UNL d   1      50.293  34.460  53.006  0.00  0.00     0.013 A 
ENDBRANCH  11  14
ENDBRANCH   9  11
ENDBRANCH   2   9
BRANCH   1  21
ATOM     21  S   UNL d   1      53.353  31.896  53.619  0.00  0.00     0.271 S 
ATOM     22  O   UNL d   1      53.285  31.936  52.785  0.00  0.00    -0.200 OA
ATOM     23  O   UNL d   1      53.420  31.851  54.457  0.00  0.00    -0.200 OA
BRANCH  21  24
ATOM     24  N   UNL d   1      53.236  31.077  53.584  0.00  0.00    -0.229 N 
ATOM     25  C   UNL d   1      53.474  30.596  54.205  0.00  0.00     0.092 A 
ATOM     26  C   UNL d   1      53.363  29.772  54.183  0.00  0.00     0.020 A 
ATOM     27  C   UNL d   1      53.006  29.436  53.525  0.00  0.00     0.003 A 
ATOM     28  C   UNL d   1      52.766  29.922  52.900  0.00  0.00     0.020 A 
ATOM     29  C   UNL d   1      52.890  28.634  53.488  0.00  0.00     0.000 C 
ATOM     30  C   UNL d   1      52.880  30.718  52.935  0.00  0.00     0.092 A 
ENDBRANCH  21  24
ENDBRANCH   1  21
TORSDOF 5
ENDMDL
