MODEL 1
REMARK VINA RESULT:      -5.5      0.000      0.000
REMARK  2 active torsions:
REMARK  status: ('A' for Active; 'I' for Inactive)
REMARK    1  A    between atoms: C_7  and  C_4 
REMARK    2  A    between atoms: O_13  and  C_11 
ROOT
ATOM      1  N   UNL d   1     -41.423-122.967 -53.259  0.00  0.00    -0.211 NA
ATOM      2  C   UNL d   1     -41.479-123.126 -54.076  0.00  0.00     0.140 A 
ATOM      3  C   UNL d   1     -41.859-122.590 -54.571  0.00  0.00     0.051 A 
ATOM      4  C   UNL d   1     -41.751-122.270 -52.955  0.00  0.00     0.183 A 
ATOM      5  C   UNL d   1     -42.184-121.897 -54.264  0.00  0.00     0.104 A 
ATOM      6  O   UNL d   1     -42.130-121.737 -53.455  0.00  0.00    -0.289 OA
ATOM      7  S   UNL d   1     -41.156-123.817 -54.387  0.00  0.00    -0.057 SA
ATOM      8  C   UNL d   1     -41.917-122.742 -55.380  0.00  0.00     0.004 A 
ATOM      9  C   UNL d   1     -42.564-121.359 -54.754  0.00  0.00     0.025 A 
ATOM     10  C   UNL d   1     -42.299-122.205 -55.884  0.00  0.00     0.000 A 
ATOM     11  C   UNL d   1     -42.620-121.515 -55.566  0.00  0.00     0.002 A 
ENDROOT
BRANCH   4  12
ATOM     12  C   UNL d   1     -41.692-122.121 -52.150  0.00  0.00     0.043 A 
ATOM     13  C   UNL d   1     -42.118-122.556 -51.608  0.00  0.00     0.028 A 
ATOM     14  C   UNL d   1     -42.055-122.403 -50.806  0.00  0.00     0.094 A 
ATOM     15  C   UNL d   1     -41.556-121.803 -50.538  0.00  0.00     0.024 A 
ATOM     16  C   UNL d   1     -41.123-121.360 -51.086  0.00  0.00     0.002 A 
ATOM     17  C   UNL d   1     -41.185-121.513 -51.892  0.00  0.00     0.004 A 
BRANCH  14  18
ATOM     18  O   UNL d   1     -42.488-122.845 -50.263  0.00  0.00    -0.328 OA
ATOM     19  C   UNL d   1     -42.135-123.106 -49.566  0.00  0.00     0.181 C 
ENDBRANCH  14  18
ENDBRANCH   4  12
TORSDOF 2
ENDMDL
MODEL 2
REMARK VINA RESULT:      -5.4      1.913      2.986
REMARK  2 active torsions:
REMARK  status: ('A' for Active; 'I' for Inactive)
REMARK    1  A    between atoms: C_7  and  C_4 
REMARK    2  A    between atoms: O_13  and  C_11 
ROOT
ATOM      1  N   UNL d   1     -41.603-121.998 -50.661  0.00  0.00    -0.211 NA
ATOM      2  C   UNL d   1     -41.383-121.813 -51.444  0.00  0.00     0.140 A 
ATOM      3  C   UNL d   1     -41.362-122.407 -52.013  0.00  0.00     0.051 A 
ATOM      4  C   UNL d   1     -41.798-122.779 -50.465  0.00  0.00     0.183 A 
ATOM      5  C   UNL d   1     -41.557-123.182 -51.813  0.00  0.00     0.104 A 
ATOM      6  O   UNL d   1     -41.775-123.369 -51.039  0.00  0.00    -0.289 OA
ATOM      7  S   UNL d   1     -41.188-121.039 -51.648  0.00  0.00    -0.057 SA
ATOM      8  C   UNL d   1     -41.146-122.229 -52.790  0.00  0.00     0.004 A 
ATOM      9  C   UNL d   1     -41.537-123.779 -52.378  0.00  0.00     0.025 A 
ATOM     10  C   UNL d   1     -41.123-122.824 -53.368  0.00  0.00     0.000 A 
ATOM     11  C   UNL d   1     -41.319-123.597 -53.156  0.00  0.00     0.002 A 
ENDROOT
BRANCH   4  12
ATOM     12  C   UNL d   1     -42.013-122.953 -49.692  0.00  0.00     0.043 A 
ATOM     13  C   UNL d   1     -41.463-123.219 -49.151  0.00  0.00     0.028 A 
ATOM     14  C   UNL d   1     -41.683-123.392 -48.382  0.00  0.00     0.094 A 
ATOM     15  C   UNL d   1     -42.468-123.297 -48.145  0.00  0.00     0.024 A 
ATOM     16  C   UNL d   1     -43.027-123.027 -48.693  0.00  0.00     0.002 A 
ATOM     17  C   UNL d   1     -42.808-122.853 -49.466  0.00  0.00     0.004 A 
BRANCH  14  18
ATOM     18  O   UNL d   1     -41.125-123.660 -47.839  0.00  0.00    -0.328 OA
ATOM     19  C   UNL d   1     -41.181-123.446 -47.046  0.00  0.00     0.181 C 
ENDBRANCH  14  18
ENDBRANCH   4  12
TORSDOF 2
ENDMDL
MODEL 3
REMARK VINA RESULT:      -4.8      1.998      4.607
REMARK  2 active torsions:
REMARK  status: ('A' for Active; 'I' for Inactive)
REMARK    1  A    between atoms: C_7  and  C_4 
REMARK    2  A    between atoms: O_13  and  C_11 
ROOT
ATOM      1  N   UNL d   1     -42.641-122.609 -50.548  0.00  0.00    -0.211 NA
ATOM      2  C   UNL d   1     -42.900-122.741 -49.766  0.00  0.00     0.140 A 
ATOM      3  C   UNL d   1     -42.394-123.096 -49.222  0.00  0.00     0.051 A 
ATOM      4  C   UNL d   1     -41.876-122.837 -50.769  0.00  0.00     0.183 A 
ATOM      5  C   UNL d   1     -41.634-123.322 -49.447  0.00  0.00     0.104 A 
ATOM      6  O   UNL d   1     -41.374-123.192 -50.221  0.00  0.00    -0.289 OA
ATOM      7  S   UNL d   1     -43.660-122.517 -49.537  0.00  0.00    -0.057 SA
ATOM      8  C   UNL d   1     -42.646-123.229 -48.447  0.00  0.00     0.004 A 
ATOM      9  C   UNL d   1     -41.126-123.677 -48.909  0.00  0.00     0.025 A 
ATOM     10  C   UNL d   1     -42.140-123.587 -47.895  0.00  0.00     0.000 A 
ATOM     11  C   UNL d   1     -41.381-123.809 -48.132  0.00  0.00     0.002 A 
ENDROOT
BRANCH   4  12
ATOM     12  C   UNL d   1     -41.628-122.704 -51.540  0.00  0.00     0.043 A 
ATOM     13  C   UNL d   1     -41.621-123.306 -52.090  0.00  0.00     0.028 A 
ATOM     14  C   UNL d   1     -41.372-123.167 -52.858  0.00  0.00     0.094 A 
ATOM     15  C   UNL d   1     -41.126-122.412 -53.082  0.00  0.00     0.024 A 
ATOM     16  C   UNL d   1     -41.134-121.800 -52.526  0.00  0.00     0.002 A 
ATOM     17  C   UNL d   1     -41.382-121.937 -51.754  0.00  0.00     0.004 A 
BRANCH  14  18
ATOM     18  O   UNL d   1     -41.366-123.778 -53.410  0.00  0.00    -0.328 OA
ATOM     19  C   UNL d   1     -41.500-123.618 -54.207  0.00  0.00     0.181 C 
ENDBRANCH  14  18
ENDBRANCH   4  12
TORSDOF 2
ENDMDL
