MODEL 1
REMARK VINA RESULT:       0.3      0.000      0.000
REMARK  10 active torsions:
REMARK  status: ('A' for Active; 'I' for Inactive)
REMARK    1  A    between atoms: C_5  and  C_1 
REMARK    2  A    between atoms: N_6  and  C_2 
REMARK    3  A    between atoms: C_7  and  C_5 
REMARK    4  A    between atoms: C_8  and  C_5 
REMARK    5  A    between atoms: O_18  and  C_7 
REMARK    6  A    between atoms: C_22  and  O_18 
REMARK    7  A    between atoms: C_23  and  C_22 
REMARK    8  A    between atoms: C_26  and  C_23 
REMARK    9  A    between atoms: C_24  and  C_25 
REMARK   10  A    between atoms: C_25  and  C_26 
ROOT
ATOM      1  C   UNL d   1      58.534  -1.960  29.236  0.00  0.00     0.122 A 
ATOM      2  C   UNL d   1      59.360  -1.995  29.242  0.00  0.00     0.166 A 
ATOM      3  N   UNL d   1      59.732  -2.705  29.048  0.00  0.00    -0.225 NA
ATOM      4  N   UNL d   1      58.085  -2.628  29.038  0.00  0.00    -0.241 NA
ATOM      5  C   UNL d   1      59.295  -3.369  28.852  0.00  0.00     0.101 A 
ATOM      6  C   UNL d   1      58.465  -3.331  28.846  0.00  0.00     0.099 A 
ATOM      7  C   UNL d   1      58.024  -3.995  28.649  0.00  0.00     0.021 A 
ATOM      8  C   UNL d   1      59.675  -4.080  28.657  0.00  0.00     0.021 A 
ATOM      9  C   UNL d   1      59.226  -4.748  28.459  0.00  0.00     0.002 A 
ATOM     10  C   UNL d   1      58.404  -4.705  28.455  0.00  0.00     0.002 A 
ENDROOT
BRANCH   1  11
ATOM     11  C   UNL d   1      58.141  -1.248  29.430  0.00  0.00     0.105 C 
BRANCH  11  12
ATOM     12  C   UNL d   1      57.690  -1.189  30.116  0.00  0.00     0.303 C 
ATOM     13  O   UNL d   1      57.361  -1.870  30.451  0.00  0.00    -0.259 OA
BRANCH  12  14
ATOM     14  O   UNL d   1      57.568  -0.454  30.466  0.00  0.00    -0.271 OA
BRANCH  14  15
ATOM     15  C   UNL d   1      56.976  -0.375  31.043  0.00  0.00     0.126 C 
BRANCH  15  16
ATOM     16  C   UNL d   1      57.078   0.164  31.656  0.00  0.00     0.027 C 
BRANCH  16  17
ATOM     17  C   UNL d   1      56.793  -0.015  32.407  0.00  0.00     0.002 C 
BRANCH  17  18
ATOM     18  C   UNL d   1      56.406   0.563  32.844  0.00  0.00     0.000 C 
BRANCH  18  19
ATOM     19  C   UNL d   1      56.427   0.542  33.669  0.00  0.00     0.000 C 
ATOM     20  C   UNL d   1      56.091  -0.091  34.064  0.00  0.00     0.000 C 
ENDBRANCH  18  19
ENDBRANCH  17  18
ENDBRANCH  16  17
ENDBRANCH  15  16
ENDBRANCH  14  15
ENDBRANCH  12  14
ENDBRANCH  11  12
BRANCH  11  21
ATOM     21  C   UNL d   1      58.208  -0.585  28.919  0.00  0.00     0.129 C 
ATOM     22  N   UNL d   1      57.458  -0.054  28.668  0.00  0.00    -0.146 N 
ENDBRANCH  11  21
ENDBRANCH   1  11
BRANCH   2  23
ATOM     23  N   UNL d   1      59.801  -1.326  29.441  0.00  0.00    -0.285 N 
ATOM     24  C   UNL d   1      60.106  -1.250  30.209  0.00  0.00     0.101 A 
ATOM     25  C   UNL d   1      60.547  -0.588  30.418  0.00  0.00     0.100 A 
ATOM     26  N   UNL d   1      60.686   0.005  29.854  0.00  0.00    -0.299 N 
ATOM     27  C   UNL d   1      60.380  -0.071  29.086  0.00  0.00     0.100 A 
ATOM     28  C   UNL d   1      61.133   0.682  30.059  0.00  0.00     0.100 C 
ATOM     29  C   UNL d   1      59.936  -0.741  28.880  0.00  0.00     0.101 A 
ENDBRANCH   2  23
TORSDOF 10
ENDMDL
MODEL 2
REMARK VINA RESULT:       2.9      1.586      4.663
REMARK  10 active torsions:
REMARK  status: ('A' for Active; 'I' for Inactive)
REMARK    1  A    between atoms: C_5  and  C_1 
REMARK    2  A    between atoms: N_6  and  C_2 
REMARK    3  A    between atoms: C_7  and  C_5 
REMARK    4  A    between atoms: C_8  and  C_5 
REMARK    5  A    between atoms: O_18  and  C_7 
REMARK    6  A    between atoms: C_22  and  O_18 
REMARK    7  A    between atoms: C_23  and  C_22 
REMARK    8  A    between atoms: C_26  and  C_23 
REMARK    9  A    between atoms: C_24  and  C_25 
REMARK   10  A    between atoms: C_25  and  C_26 
ROOT
ATOM      1  C   UNL d   1      57.333   0.160  31.670  0.00  0.00     0.122 A 
ATOM      2  C   UNL d   1      57.899   0.384  32.230  0.00  0.00     0.166 A 
ATOM      3  N   UNL d   1      57.659   0.530  33.005  0.00  0.00    -0.225 NA
ATOM      4  N   UNL d   1      56.536   0.083  31.883  0.00  0.00    -0.241 NA
ATOM      5  C   UNL d   1      56.873   0.456  33.223  0.00  0.00     0.101 A 
ATOM      6  C   UNL d   1      56.306   0.231  32.658  0.00  0.00     0.099 A 
ATOM      7  C   UNL d   1      55.518   0.156  32.874  0.00  0.00     0.021 A 
ATOM      8  C   UNL d   1      56.637   0.605  34.004  0.00  0.00     0.021 A 
ATOM      9  C   UNL d   1      55.840   0.528  34.217  0.00  0.00     0.002 A 
ATOM     10  C   UNL d   1      55.283   0.305  33.654  0.00  0.00     0.002 A 
ENDROOT
BRANCH   1  11
ATOM     11  C   UNL d   1      57.560   0.007  30.880  0.00  0.00     0.105 C 
BRANCH  11  12
ATOM     12  C   UNL d   1      57.652  -0.764  30.609  0.00  0.00     0.303 C 
ATOM     13  O   UNL d   1      57.289  -1.388  31.014  0.00  0.00    -0.259 OA
BRANCH  12  14
ATOM     14  O   UNL d   1      58.103  -0.913  29.937  0.00  0.00    -0.271 OA
BRANCH  14  15
ATOM     15  C   UNL d   1      58.172  -1.694  29.662  0.00  0.00     0.126 C 
BRANCH  15  16
ATOM     16  C   UNL d   1      58.669  -1.857  29.028  0.00  0.00     0.027 C 
BRANCH  16  17
ATOM     17  C   UNL d   1      58.717  -2.624  28.734  0.00  0.00     0.002 C 
BRANCH  17  18
ATOM     18  C   UNL d   1      59.236  -3.160  29.078  0.00  0.00     0.000 C 
BRANCH  18  19
ATOM     19  C   UNL d   1      59.718  -3.633  28.604  0.00  0.00     0.000 C 
ATOM     20  C   UNL d   1      60.146  -4.242  28.943  0.00  0.00     0.000 C 
ENDBRANCH  18  19
ENDBRANCH  17  18
ENDBRANCH  16  17
ENDBRANCH  15  16
ENDBRANCH  14  15
ENDBRANCH  12  14
ENDBRANCH  11  12
BRANCH  11  21
ATOM     21  C   UNL d   1      57.697   0.650  30.357  0.00  0.00     0.129 C 
ATOM     22  N   UNL d   1      57.416   0.639  29.446  0.00  0.00    -0.146 N 
ENDBRANCH  11  21
ENDBRANCH   1  11
BRANCH   2  23
ATOM     23  N   UNL d   1      58.691   0.458  32.012  0.00  0.00    -0.285 N 
ATOM     24  C   UNL d   1      59.283   0.394  32.590  0.00  0.00     0.101 A 
ATOM     25  C   UNL d   1      60.076   0.466  32.384  0.00  0.00     0.100 A 
ATOM     26  N   UNL d   1      60.281   0.604  31.591  0.00  0.00    -0.299 N 
ATOM     27  C   UNL d   1      59.689   0.668  31.013  0.00  0.00     0.100 A 
ATOM     28  C   UNL d   1      61.085   0.679  31.373  0.00  0.00     0.100 C 
ATOM     29  C   UNL d   1      58.890   0.595  31.226  0.00  0.00     0.101 A 
ENDBRANCH   2  23
TORSDOF 10
ENDMDL
