MODEL 1
REMARK VINA RESULT:      84.0      0.000      0.000
REMARK  7 active torsions:
REMARK  status: ('A' for Active; 'I' for Inactive)
REMARK    1  A    between atoms: C_3  and  N_1 
REMARK    2  A    between atoms: N_7  and  C_3 
REMARK    3  A    between atoms: C_9  and  C_4 
REMARK    4  A    between atoms: C_10  and  C_5 
REMARK    5  A    between atoms: C_15  and  N_7 
REMARK    6  A    between atoms: O_22  and  C_16 
REMARK    7  A    between atoms: O_23  and  C_17 
ROOT
ATOM      1  N   UNL d   1     -55.495-100.534 -42.824  0.00  0.00    -0.203 N 
ATOM      2  N   UNL d   1     -55.511-100.618 -42.013  0.00  0.00    -0.163 NA
ATOM      3  C   UNL d   1     -55.230-101.400 -41.843  0.00  0.00     0.103 A 
ATOM      4  C   UNL d   1     -55.223-101.213 -43.167  0.00  0.00     0.087 A 
ATOM      5  C   UNL d   1     -55.059-101.750 -42.571  0.00  0.00     0.040 A 
ENDROOT
BRANCH   1   6
ATOM      6  C   UNL d   1     -55.731 -99.830 -43.250  0.00  0.00     0.222 C 
ATOM      7  S   UNL d   1     -55.171 -99.445 -43.719  0.00  0.00    -0.037 SA
BRANCH   6   8
ATOM      8  N   UNL d   1     -56.507 -99.563 -43.178  0.00  0.00    -0.217 NA
BRANCH   8   9
ATOM      9  C   UNL d   1     -56.897 -99.308 -43.858  0.00  0.00     0.084 A 
ATOM     10  C   UNL d   1     -57.665 -99.019 -43.800  0.00  0.00     0.019 A 
ATOM     11  C   UNL d   1     -58.059 -98.760 -44.500  0.00  0.00     0.002 A 
ATOM     12  C   UNL d   1     -57.693 -98.793 -45.209  0.00  0.00     0.000 A 
ATOM     13  C   UNL d   1     -56.925 -99.079 -45.278  0.00  0.00     0.002 A 
ATOM     14  C   UNL d   1     -56.527 -99.337 -44.604  0.00  0.00     0.019 A 
ENDBRANCH   8   9
ENDBRANCH   6   8
ENDBRANCH   1   6
BRANCH   4  15
ATOM     15  C   UNL d   1     -55.101-101.418 -43.965  0.00  0.00     0.018 A 
ATOM     16  C   UNL d   1     -54.838-100.845 -44.495  0.00  0.00     0.004 A 
ATOM     17  C   UNL d   1     -54.717-101.046 -45.280  0.00  0.00     0.024 A 
ATOM     18  C   UNL d   1     -54.858-101.830 -45.548  0.00  0.00     0.094 A 
ATOM     19  C   UNL d   1     -55.127-102.409 -44.995  0.00  0.00     0.024 A 
ATOM     20  C   UNL d   1     -55.242-102.184 -44.213  0.00  0.00     0.004 A 
BRANCH  18  21
ATOM     21  O   UNL d   1     -54.734-102.014 -46.328  0.00  0.00    -0.328 OA
ATOM     22  C   UNL d   1     -55.276-102.460 -46.747  0.00  0.00     0.181 C 
ENDBRANCH  18  21
ENDBRANCH   4  15
BRANCH   3  23
ATOM     23  C   UNL d   1     -55.156-101.720 -41.084  0.00  0.00     0.019 A 
ATOM     24  C   UNL d   1     -54.804-101.282 -40.483  0.00  0.00     0.004 A 
ATOM     25  C   UNL d   1     -54.726-101.594 -39.723  0.00  0.00     0.024 A 
ATOM     26  C   UNL d   1     -55.005-102.355 -39.567  0.00  0.00     0.094 A 
ATOM     27  C   UNL d   1     -55.366-102.803 -40.185  0.00  0.00     0.024 A 
ATOM     28  C   UNL d   1     -55.441-102.485 -40.941  0.00  0.00     0.004 A 
BRANCH  26  29
ATOM     29  O   UNL d   1     -54.921-102.668 -38.785  0.00  0.00    -0.328 OA
ATOM     30  C   UNL d   1     -55.436-102.511 -37.969  0.00  0.00     0.181 C 
ENDBRANCH  26  29
ENDBRANCH   3  23
TORSDOF 7
ENDMDL
