MODEL 1
REMARK VINA RESULT:     -10.2      0.000      0.000
REMARK  2 active torsions:
REMARK  status: ('A' for Active; 'I' for Inactive)
REMARK    1  A    between atoms: C_12  and  C_4 
REMARK    2  A    between atoms: O_14  and  C_10 
ROOT
ATOM      1  C   UNL d   1      53.142  31.064  53.315  0.00  0.00     0.101 A 
ATOM      2  C   UNL d   1      53.080  31.815  52.973  0.00  0.00     0.203 A 
ATOM      3  C   UNL d   1      53.382  32.471  53.374  0.00  0.00     0.067 A 
ATOM      4  C   UNL d   1      53.740  32.379  54.103  0.00  0.00     0.103 A 
ATOM      5  C   UNL d   1      53.500  30.973  54.044  0.00  0.00     0.108 A 
ATOM      6  O   UNL d   1      53.802  31.631  54.445  0.00  0.00    -0.307 OA
ATOM      7  C   UNL d   1      52.840  30.413  52.914  0.00  0.00     0.203 A 
ATOM      8  C   UNL d   1      53.562  30.228  54.386  0.00  0.00     0.049 A 
ATOM      9  C   UNL d   1      52.900  29.646  53.256  0.00  0.00     0.066 A 
ATOM     10  C   UNL d   1      53.257  29.555  53.985  0.00  0.00     0.099 A 
ATOM     11  O   UNL d   1      52.712  31.909  52.223  0.00  0.00    -0.286 OA
ATOM     12  O   UNL d   1      52.472  30.507  52.165  0.00  0.00    -0.286 OA
ENDROOT
BRANCH   4  13
ATOM     13  C   UNL d   1      54.041  33.026  54.503  0.00  0.00     0.023 A 
ATOM     14  C   UNL d   1      54.859  33.112  54.572  0.00  0.00     0.002 A 
ATOM     15  C   UNL d   1      55.163  33.761  54.973  0.00  0.00     0.000 A 
ATOM     16  C   UNL d   1      54.656  34.324  55.305  0.00  0.00     0.000 A 
ATOM     17  C   UNL d   1      53.839  34.242  55.239  0.00  0.00     0.000 A 
ATOM     18  C   UNL d   1      53.533  33.589  54.835  0.00  0.00     0.002 A 
ENDBRANCH   4  13
BRANCH  10  19
ATOM     19  O   UNL d   1      53.327  28.790  54.347  0.00  0.00    -0.328 OA
ATOM     20  C   UNL d   1      53.355  28.719  55.161  0.00  0.00     0.181 C 
ENDBRANCH  10  19
TORSDOF 2
ENDMDL
MODEL 2
REMARK VINA RESULT:     -10.2      2.150      3.150
REMARK  2 active torsions:
REMARK  status: ('A' for Active; 'I' for Inactive)
REMARK    1  A    between atoms: C_12  and  C_4 
REMARK    2  A    between atoms: O_14  and  C_10 
ROOT
ATOM      1  C   UNL d   1      53.288  32.696  53.656  0.00  0.00     0.101 A 
ATOM      2  C   UNL d   1      53.187  33.508  53.776  0.00  0.00     0.203 A 
ATOM      3  C   UNL d   1      52.523  33.885  53.461  0.00  0.00     0.067 A 
ATOM      4  C   UNL d   1      51.971  33.460  53.034  0.00  0.00     0.103 A 
ATOM      5  C   UNL d   1      52.737  32.271  53.229  0.00  0.00     0.108 A 
ATOM      6  O   UNL d   1      52.072  32.650  52.914  0.00  0.00    -0.307 OA
ATOM      7  C   UNL d   1      53.950  32.322  53.971  0.00  0.00     0.203 A 
ATOM      8  C   UNL d   1      52.836  31.464  53.108  0.00  0.00     0.049 A 
ATOM      9  C   UNL d   1      54.061  31.496  53.852  0.00  0.00     0.066 A 
ATOM     10  C   UNL d   1      53.509  31.071  53.426  0.00  0.00     0.099 A 
ATOM     11  O   UNL d   1      53.754  33.946  54.215  0.00  0.00    -0.286 OA
ATOM     12  O   UNL d   1      54.518  32.760  54.410  0.00  0.00    -0.286 OA
ENDROOT
BRANCH   4  13
ATOM     13  C   UNL d   1      51.312  33.830  52.721  0.00  0.00     0.023 A 
ATOM     14  C   UNL d   1      51.314  34.048  51.924  0.00  0.00     0.002 A 
ATOM     15  C   UNL d   1      50.654  34.420  51.607  0.00  0.00     0.000 A 
ATOM     16  C   UNL d   1      49.993  34.574  52.080  0.00  0.00     0.000 A 
ATOM     17  C   UNL d   1      49.987  34.359  52.874  0.00  0.00     0.000 A 
ATOM     18  C   UNL d   1      50.652  33.984  53.193  0.00  0.00     0.002 A 
ENDBRANCH   4  13
BRANCH  10  19
ATOM     19  O   UNL d   1      53.602  30.237  53.295  0.00  0.00    -0.328 OA
ATOM     20  C   UNL d   1      53.299  29.699  53.831  0.00  0.00     0.181 C 
ENDBRANCH  10  19
TORSDOF 2
ENDMDL
MODEL 3
REMARK VINA RESULT:     -10.1      2.132      3.618
REMARK  2 active torsions:
REMARK  status: ('A' for Active; 'I' for Inactive)
REMARK    1  A    between atoms: C_12  and  C_4 
REMARK    2  A    between atoms: O_14  and  C_10 
ROOT
ATOM      1  C   UNL d   1      53.229  32.580  53.741  0.00  0.00     0.101 A 
ATOM      2  C   UNL d   1      52.749  32.193  53.188  0.00  0.00     0.203 A 
ATOM      3  C   UNL d   1      52.103  32.592  52.862  0.00  0.00     0.067 A 
ATOM      4  C   UNL d   1      51.939  33.361  53.083  0.00  0.00     0.103 A 
ATOM      5  C   UNL d   1      53.064  33.350  53.961  0.00  0.00     0.108 A 
ATOM      6  O   UNL d   1      52.417  33.747  53.634  0.00  0.00    -0.307 OA
ATOM      7  C   UNL d   1      53.872  32.182  54.064  0.00  0.00     0.203 A 
ATOM      8  C   UNL d   1      53.539  33.736  54.510  0.00  0.00     0.049 A 
ATOM      9  C   UNL d   1      54.364  32.569  54.626  0.00  0.00     0.066 A 
ATOM     10  C   UNL d   1      54.200  33.338  54.847  0.00  0.00     0.099 A 
ATOM     11  O   UNL d   1      52.918  31.402  52.961  0.00  0.00    -0.286 OA
ATOM     12  O   UNL d   1      54.041  31.391  53.837  0.00  0.00    -0.286 OA
ENDROOT
BRANCH   4  13
ATOM     13  C   UNL d   1      51.300  33.758  52.762  0.00  0.00     0.023 A 
ATOM     14  C   UNL d   1      51.351  34.043  51.989  0.00  0.00     0.002 A 
ATOM     15  C   UNL d   1      50.710  34.443  51.664  0.00  0.00     0.000 A 
ATOM     16  C   UNL d   1      50.021  34.558  52.107  0.00  0.00     0.000 A 
ATOM     17  C   UNL d   1      49.966  34.275  52.878  0.00  0.00     0.000 A 
ATOM     18  C   UNL d   1      50.611  33.874  53.204  0.00  0.00     0.002 A 
ENDBRANCH   4  13
BRANCH  10  19
ATOM     19  O   UNL d   1      54.684  33.746  55.413  0.00  0.00    -0.328 OA
ATOM     20  C   UNL d   1      55.429  34.011  55.203  0.00  0.00     0.181 C 
ENDBRANCH  10  19
TORSDOF 2
ENDMDL
MODEL 4
REMARK VINA RESULT:      -9.9      1.756      4.041
REMARK  2 active torsions:
REMARK  status: ('A' for Active; 'I' for Inactive)
REMARK    1  A    between atoms: C_12  and  C_4 
REMARK    2  A    between atoms: O_14  and  C_10 
ROOT
ATOM      1  C   UNL d   1      52.994  33.480  53.541  0.00  0.00     0.101 A 
ATOM      2  C   UNL d   1      53.646  33.120  53.902  0.00  0.00     0.203 A 
ATOM      3  C   UNL d   1      53.705  32.296  53.905  0.00  0.00     0.067 A 
ATOM      4  C   UNL d   1      53.124  31.840  53.555  0.00  0.00     0.103 A 
ATOM      5  C   UNL d   1      52.414  33.024  53.191  0.00  0.00     0.108 A 
ATOM      6  O   UNL d   1      52.474  32.199  53.194  0.00  0.00    -0.307 OA
ATOM      7  C   UNL d   1      52.937  34.301  53.539  0.00  0.00     0.203 A 
ATOM      8  C   UNL d   1      51.765  33.379  52.831  0.00  0.00     0.049 A 
ATOM      9  C   UNL d   1      52.277  34.674  53.174  0.00  0.00     0.066 A 
ATOM     10  C   UNL d   1      51.697  34.218  52.824  0.00  0.00     0.099 A 
ATOM     11  O   UNL d   1      54.242  33.589  54.263  0.00  0.00    -0.286 OA
ATOM     12  O   UNL d   1      53.533  34.770  53.900  0.00  0.00    -0.286 OA
ENDROOT
BRANCH   4  13
ATOM     13  C   UNL d   1      53.180  31.024  53.555  0.00  0.00     0.023 A 
ATOM     14  C   UNL d   1      53.058  30.612  52.851  0.00  0.00     0.002 A 
ATOM     15  C   UNL d   1      53.113  29.792  52.849  0.00  0.00     0.000 A 
ATOM     16  C   UNL d   1      53.288  29.383  53.546  0.00  0.00     0.000 A 
ATOM     17  C   UNL d   1      53.410  29.790  54.252  0.00  0.00     0.000 A 
ATOM     18  C   UNL d   1      53.354  30.615  54.253  0.00  0.00     0.002 A 
ENDBRANCH   4  13
BRANCH  10  19
ATOM     19  O   UNL d   1      51.023  34.575  52.450  0.00  0.00    -0.328 OA
ATOM     20  C   UNL d   1      50.272  34.449  52.747  0.00  0.00     0.181 C 
ENDBRANCH  10  19
TORSDOF 2
ENDMDL
MODEL 5
REMARK VINA RESULT:      -9.2      1.205      3.796
REMARK  2 active torsions:
REMARK  status: ('A' for Active; 'I' for Inactive)
REMARK    1  A    between atoms: C_12  and  C_4 
REMARK    2  A    between atoms: O_14  and  C_10 
ROOT
ATOM      1  C   UNL d   1      53.009  33.327  53.687  0.00  0.00     0.101 A 
ATOM      2  C   UNL d   1      52.476  32.964  53.170  0.00  0.00     0.203 A 
ATOM      3  C   UNL d   1      52.488  32.142  53.085  0.00  0.00     0.067 A 
ATOM      4  C   UNL d   1      53.022  31.692  53.509  0.00  0.00     0.103 A 
ATOM      5  C   UNL d   1      53.544  32.877  54.111  0.00  0.00     0.108 A 
ATOM      6  O   UNL d   1      53.555  32.054  54.025  0.00  0.00    -0.307 OA
ATOM      7  C   UNL d   1      52.996  34.145  53.770  0.00  0.00     0.203 A 
ATOM      8  C   UNL d   1      54.075  33.236  54.625  0.00  0.00     0.049 A 
ATOM      9  C   UNL d   1      53.535  34.522  54.294  0.00  0.00     0.066 A 
ATOM     10  C   UNL d   1      54.070  34.072  54.718  0.00  0.00     0.099 A 
ATOM     11  O   UNL d   1      51.926  33.426  52.734  0.00  0.00    -0.286 OA
ATOM     12  O   UNL d   1      52.446  34.608  53.335  0.00  0.00    -0.286 OA
ENDROOT
BRANCH   4  13
ATOM     13  C   UNL d   1      53.037  30.878  53.428  0.00  0.00     0.023 A 
ATOM     14  C   UNL d   1      52.882  30.545  52.689  0.00  0.00     0.002 A 
ATOM     15  C   UNL d   1      52.896  29.727  52.605  0.00  0.00     0.000 A 
ATOM     16  C   UNL d   1      53.065  29.243  53.253  0.00  0.00     0.000 A 
ATOM     17  C   UNL d   1      53.221  29.571  53.992  0.00  0.00     0.000 A 
ATOM     18  C   UNL d   1      53.206  30.394  54.076  0.00  0.00     0.002 A 
ENDBRANCH   4  13
BRANCH  10  19
ATOM     19  O   UNL d   1      54.622  34.434  55.252  0.00  0.00    -0.328 OA
ATOM     20  C   UNL d   1      55.367  34.112  55.356  0.00  0.00     0.181 C 
ENDBRANCH  10  19
TORSDOF 2
ENDMDL
MODEL 6
REMARK VINA RESULT:      -8.5      1.622      2.828
REMARK  2 active torsions:
REMARK  status: ('A' for Active; 'I' for Inactive)
REMARK    1  A    between atoms: C_12  and  C_4 
REMARK    2  A    between atoms: O_14  and  C_10 
ROOT
ATOM      1  C   UNL d   1      52.522  32.455  53.304  0.00  0.00     0.101 A 
ATOM      2  C   UNL d   1      53.216  32.009  53.375  0.00  0.00     0.203 A 
ATOM      3  C   UNL d   1      53.850  32.312  53.809  0.00  0.00     0.067 A 
ATOM      4  C   UNL d   1      53.793  33.045  54.166  0.00  0.00     0.103 A 
ATOM      5  C   UNL d   1      52.465  33.188  53.661  0.00  0.00     0.108 A 
ATOM      6  O   UNL d   1      53.101  33.489  54.095  0.00  0.00    -0.307 OA
ATOM      7  C   UNL d   1      51.891  32.151  52.872  0.00  0.00     0.203 A 
ATOM      8  C   UNL d   1      51.777  33.632  53.592  0.00  0.00     0.049 A 
ATOM      9  C   UNL d   1      51.183  32.598  52.795  0.00  0.00     0.066 A 
ATOM     10  C   UNL d   1      51.126  33.331  53.152  0.00  0.00     0.099 A 
ATOM     11  O   UNL d   1      53.274  31.255  53.009  0.00  0.00    -0.286 OA
ATOM     12  O   UNL d   1      51.950  31.398  52.506  0.00  0.00    -0.286 OA
ENDROOT
BRANCH   4  13
ATOM     13  C   UNL d   1      54.419  33.348  54.596  0.00  0.00     0.023 A 
ATOM     14  C   UNL d   1      54.384  33.335  55.421  0.00  0.00     0.002 A 
ATOM     15  C   UNL d   1      55.012  33.639  55.856  0.00  0.00     0.000 A 
ATOM     16  C   UNL d   1      55.673  33.955  55.472  0.00  0.00     0.000 A 
ATOM     17  C   UNL d   1      55.712  33.970  54.649  0.00  0.00     0.000 A 
ATOM     18  C   UNL d   1      55.080  33.664  54.212  0.00  0.00     0.002 A 
ENDBRANCH   4  13
BRANCH  10  19
ATOM     19  O   UNL d   1      50.419  33.798  53.086  0.00  0.00    -0.328 OA
ATOM     20  C   UNL d   1      50.359  34.376  52.511  0.00  0.00     0.181 C 
ENDBRANCH  10  19
TORSDOF 2
ENDMDL
