MODEL 1
REMARK VINA RESULT:       3.3      0.000      0.000
REMARK  2 active torsions:
REMARK  status: ('A' for Active; 'I' for Inactive)
REMARK    1  A    between atoms: C_9  and  N_2 
REMARK    2  A    between atoms: C_7  and  C_4 
ROOT
ATOM      1  C   UNL d   1      31.173  18.539 -24.636  0.00  0.00     0.136 A 
ATOM      2  N   UNL d   1      31.307  17.757 -24.404  0.00  0.00    -0.282 N 
ATOM      3  C   UNL d   1      31.799  19.080 -24.628  0.00  0.00     0.152 A 
ATOM      4  C   UNL d   1      32.068  17.519 -24.164  0.00  0.00     0.158 A 
ATOM      5  N   UNL d   1      32.689  18.065 -24.159  0.00  0.00    -0.189 NA
ATOM      6  C   UNL d   1      32.554  18.844 -24.391  0.00  0.00     0.292 A 
ATOM      7  C   UNL d   1      31.664  19.858 -24.860  0.00  0.00     0.108 C 
ATOM      8  N   UNL d   1      31.532  20.644 -25.093  0.00  0.00    -0.191 NA
ATOM      9  S   UNL d   1      30.421  18.783 -24.875  0.00  0.00    -0.058 SA
ATOM     10  O   UNL d   1      33.176  19.394 -24.386  0.00  0.00    -0.264 OA
ENDROOT
BRANCH   2  11
ATOM     11  C   UNL d   1      30.689  17.218 -24.410  0.00  0.00     0.066 A 
ATOM     12  C   UNL d   1      30.535  16.782 -25.093  0.00  0.00     0.018 A 
ATOM     13  C   UNL d   1      29.914  16.241 -25.097  0.00  0.00     0.002 A 
ATOM     14  C   UNL d   1      29.447  16.135 -24.422  0.00  0.00     0.000 A 
ATOM     15  C   UNL d   1      29.605  16.574 -23.737  0.00  0.00     0.002 A 
ATOM     16  C   UNL d   1      28.826  15.593 -24.426  0.00  0.00     0.000 C 
ATOM     17  C   UNL d   1      30.226  17.115 -23.733  0.00  0.00     0.018 A 
ENDBRANCH   2  11
BRANCH   4  18
ATOM     18  C   UNL d   1      32.204  16.740 -23.932  0.00  0.00     0.064 A 
ATOM     19  S   UNL d   1      32.483  16.136 -24.413  0.00  0.00    -0.083 SA
ATOM     20  C   UNL d   1      32.534  15.457 -23.955  0.00  0.00     0.035 A 
ATOM     21  C   UNL d   1      32.287  15.641 -23.192  0.00  0.00     0.008 A 
ATOM     22  C   UNL d   1      32.082  16.427 -23.169  0.00  0.00     0.010 A 
ENDBRANCH   4  18
TORSDOF 2
ENDMDL
MODEL 2
REMARK VINA RESULT:       3.8      5.499      6.921
REMARK  2 active torsions:
REMARK  status: ('A' for Active; 'I' for Inactive)
REMARK    1  A    between atoms: C_9  and  N_2 
REMARK    2  A    between atoms: C_7  and  C_4 
ROOT
ATOM      1  C   UNL d   1      32.862  21.865 -19.372  0.00  0.00     0.136 A 
ATOM      2  N   UNL d   1      32.691  22.143 -20.132  0.00  0.00    -0.282 N 
ATOM      3  C   UNL d   1      32.838  22.390 -18.732  0.00  0.00     0.152 A 
ATOM      4  C   UNL d   1      32.497  22.944 -20.248  0.00  0.00     0.158 A 
ATOM      5  N   UNL d   1      32.476  23.462 -19.604  0.00  0.00    -0.189 NA
ATOM      6  C   UNL d   1      32.646  23.184 -18.847  0.00  0.00     0.292 A 
ATOM      7  C   UNL d   1      33.008  22.112 -17.975  0.00  0.00     0.108 C 
ATOM      8  N   UNL d   1      33.179  21.836 -17.211  0.00  0.00    -0.191 NA
ATOM      9  S   UNL d   1      33.055  21.073 -19.248  0.00  0.00    -0.058 SA
ATOM     10  O   UNL d   1      32.625  23.702 -18.198  0.00  0.00    -0.264 OA
ENDROOT
BRANCH   2  11
ATOM     11  C   UNL d   1      32.714  21.626 -20.769  0.00  0.00     0.066 A 
ATOM     12  C   UNL d   1      33.217  21.784 -21.403  0.00  0.00     0.018 A 
ATOM     13  C   UNL d   1      33.238  21.264 -22.041  0.00  0.00     0.002 A 
ATOM     14  C   UNL d   1      32.759  20.589 -22.048  0.00  0.00     0.000 A 
ATOM     15  C   UNL d   1      32.254  20.434 -21.409  0.00  0.00     0.002 A 
ATOM     16  C   UNL d   1      32.780  20.069 -22.687  0.00  0.00     0.000 C 
ATOM     17  C   UNL d   1      32.233  20.954 -20.770  0.00  0.00     0.018 A 
ENDBRANCH   2  11
BRANCH   4  18
ATOM     18  C   UNL d   1      32.327  23.222 -21.005  0.00  0.00     0.064 A 
ATOM     19  S   UNL d   1      31.593  23.474 -21.272  0.00  0.00    -0.083 SA
ATOM     20  C   UNL d   1      31.677  23.702 -22.055  0.00  0.00     0.035 A 
ATOM     21  C   UNL d   1      32.463  23.592 -22.273  0.00  0.00     0.008 A 
ATOM     22  C   UNL d   1      32.869  23.297 -21.634  0.00  0.00     0.010 A 
ENDBRANCH   4  18
TORSDOF 2
ENDMDL
MODEL 3
REMARK VINA RESULT:       4.7      3.740      5.867
REMARK  2 active torsions:
REMARK  status: ('A' for Active; 'I' for Inactive)
REMARK    1  A    between atoms: C_9  and  N_2 
REMARK    2  A    between atoms: C_7  and  C_4 
ROOT
ATOM      1  C   UNL d   1      32.687  20.617 -22.650  0.00  0.00     0.136 A 
ATOM      2  N   UNL d   1      32.626  21.416 -22.445  0.00  0.00    -0.282 N 
ATOM      3  C   UNL d   1      32.741  20.046 -22.052  0.00  0.00     0.152 A 
ATOM      4  C   UNL d   1      32.620  21.640 -21.643  0.00  0.00     0.158 A 
ATOM      5  N   UNL d   1      32.674  21.065 -21.052  0.00  0.00    -0.189 NA
ATOM      6  C   UNL d   1      32.735  20.269 -21.258  0.00  0.00     0.292 A 
ATOM      7  C   UNL d   1      32.802  19.251 -22.258  0.00  0.00     0.108 C 
ATOM      8  N   UNL d   1      32.863  18.449 -22.461  0.00  0.00    -0.191 NA
ATOM      9  S   UNL d   1      32.694  20.386 -23.442  0.00  0.00    -0.058 SA
ATOM     10  O   UNL d   1      32.789  19.688 -20.666  0.00  0.00    -0.264 OA
ENDROOT
BRANCH   2  11
ATOM     11  C   UNL d   1      32.572  21.985 -23.034  0.00  0.00     0.066 A 
ATOM     12  C   UNL d   1      33.241  22.176 -23.478  0.00  0.00     0.018 A 
ATOM     13  C   UNL d   1      33.184  22.747 -24.068  0.00  0.00     0.002 A 
ATOM     14  C   UNL d   1      32.464  23.127 -24.216  0.00  0.00     0.000 A 
ATOM     15  C   UNL d   1      31.794  22.932 -23.768  0.00  0.00     0.002 A 
ATOM     16  C   UNL d   1      32.408  23.699 -24.807  0.00  0.00     0.000 C 
ATOM     17  C   UNL d   1      31.850  22.361 -23.177  0.00  0.00     0.018 A 
ENDBRANCH   2  11
BRANCH   4  18
ATOM     18  C   UNL d   1      32.559  22.436 -21.437  0.00  0.00     0.064 A 
ATOM     19  S   UNL d   1      31.864  22.836 -21.259  0.00  0.00    -0.083 SA
ATOM     20  C   UNL d   1      32.062  23.613 -21.087  0.00  0.00     0.035 A 
ATOM     21  C   UNL d   1      32.878  23.694 -21.159  0.00  0.00     0.008 A 
ATOM     22  C   UNL d   1      33.191  22.976 -21.374  0.00  0.00     0.010 A 
ENDBRANCH   4  18
TORSDOF 2
ENDMDL
MODEL 4
REMARK VINA RESULT:       6.0      2.347      3.876
REMARK  2 active torsions:
REMARK  status: ('A' for Active; 'I' for Inactive)
REMARK    1  A    between atoms: C_9  and  N_2 
REMARK    2  A    between atoms: C_7  and  C_4 
ROOT
ATOM      1  C   UNL d   1      28.661  16.255 -23.648  0.00  0.00     0.136 A 
ATOM      2  N   UNL d   1      29.279  16.737 -23.910  0.00  0.00    -0.282 N 
ATOM      3  C   UNL d   1      27.909  16.582 -23.531  0.00  0.00     0.152 A 
ATOM      4  C   UNL d   1      29.142  17.546 -24.055  0.00  0.00     0.158 A 
ATOM      5  N   UNL d   1      28.389  17.865 -23.937  0.00  0.00    -0.189 NA
ATOM      6  C   UNL d   1      27.774  17.383 -23.675  0.00  0.00     0.292 A 
ATOM      7  C   UNL d   1      27.295  16.100 -23.270  0.00  0.00     0.108 C 
ATOM      8  N   UNL d   1      26.673  15.618 -23.006  0.00  0.00    -0.191 NA
ATOM      9  S   UNL d   1      28.788  15.453 -23.501  0.00  0.00    -0.058 SA
ATOM     10  O   UNL d   1      27.016  17.702 -23.556  0.00  0.00    -0.264 OA
ENDROOT
BRANCH   2  11
ATOM     11  C   UNL d   1      30.025  16.417 -24.027  0.00  0.00     0.066 A 
ATOM     12  C   UNL d   1      30.560  16.392 -23.399  0.00  0.00     0.018 A 
ATOM     13  C   UNL d   1      31.308  16.070 -23.519  0.00  0.00     0.002 A 
ATOM     14  C   UNL d   1      31.524  15.775 -24.261  0.00  0.00     0.000 A 
ATOM     15  C   UNL d   1      30.984  15.802 -24.889  0.00  0.00     0.002 A 
ATOM     16  C   UNL d   1      32.273  15.453 -24.380  0.00  0.00     0.000 C 
ATOM     17  C   UNL d   1      30.235  16.124 -24.770  0.00  0.00     0.018 A 
ENDBRANCH   2  11
BRANCH   4  18
ATOM     18  C   UNL d   1      29.756  18.029 -24.317  0.00  0.00     0.064 A 
ATOM     19  S   UNL d   1      30.165  18.577 -23.863  0.00  0.00    -0.083 SA
ATOM     20  C   UNL d   1      30.727  18.930 -24.345  0.00  0.00     0.035 A 
ATOM     21  C   UNL d   1      30.666  18.600 -25.096  0.00  0.00     0.008 A 
ATOM     22  C   UNL d   1      30.073  18.045 -25.088  0.00  0.00     0.010 A 
ENDBRANCH   4  18
TORSDOF 2
ENDMDL
