MODEL 1
REMARK VINA RESULT:      84.0      0.000      0.000
REMARK  6 active torsions:
REMARK  status: ('A' for Active; 'I' for Inactive)
REMARK    1  A    between atoms: N_11  and  C_3 
REMARK    2  A    between atoms: C_10  and  C_5 
REMARK    3  A    between atoms: C_17  and  N_11 
REMARK    4  A    between atoms: N_13  and  C_18 
REMARK    5  A    between atoms: C_16  and  C_17 
REMARK    6  A    between atoms: C_18  and  C_16 
ROOT
ATOM      1  N   UNL d   1      59.437  49.686  53.593  0.00  0.00    -0.184 N 
ATOM      2  C   UNL d   1      58.682  49.682  53.939  0.00  0.00     0.168 A 
ATOM      3  C   UNL d   1      59.500  49.690  52.774  0.00  0.00     0.217 A 
ATOM      4  N   UNL d   1      60.019  49.680  54.876  0.00  0.00    -0.162 NA
ATOM      5  C   UNL d   1      58.598  49.678  54.743  0.00  0.00     0.055 A 
ATOM      6  N   UNL d   1      58.009  49.684  53.458  0.00  0.00    -0.227 NA
ATOM      7  C   UNL d   1      58.837  49.692  52.298  0.00  0.00     0.066 A 
ATOM      8  C   UNL d   1      59.270  49.676  55.220  0.00  0.00     0.104 A 
ATOM      9  C   UNL d   1      58.088  49.689  52.642  0.00  0.00     0.087 A 
ATOM     10  C   UNL d   1      58.924  49.697  51.474  0.00  0.00     0.006 A 
ATOM     11  C   UNL d   1      59.199  49.672  56.023  0.00  0.00     0.023 C 
ATOM     12  C   UNL d   1      57.416  49.690  52.165  0.00  0.00     0.019 A 
ATOM     13  C   UNL d   1      58.239  49.698  50.993  0.00  0.00     0.000 A 
ATOM     14  C   UNL d   1      57.489  49.695  51.337  0.00  0.00     0.002 A 
ENDROOT
BRANCH   3  15
ATOM     15  N   UNL d   1      60.265  49.694  52.419  0.00  0.00    -0.380 NA
BRANCH  15  16
ATOM     16  C   UNL d   1      61.054  49.707  52.132  0.00  0.00     0.164 C 
BRANCH  16  17
ATOM     17  C   UNL d   1      61.389  48.995  51.833  0.00  0.00     0.054 C 
BRANCH  17  18
ATOM     18  C   UNL d   1      61.047  48.623  51.147  0.00  0.00     0.083 C 
BRANCH  18  19
ATOM     19  N   UNL d   1      61.341  48.808  50.380  0.00  0.00    -0.300 N 
ATOM     20  C   UNL d   1      61.286  49.630  50.518  0.00  0.00     0.100 C 
ATOM     21  C   UNL d   1      61.630  48.542  49.630  0.00  0.00     0.100 C 
ENDBRANCH  18  19
ENDBRANCH  17  18
ENDBRANCH  16  17
ENDBRANCH  15  16
ENDBRANCH   3  15
BRANCH   5  22
ATOM     22  C   UNL d   1      57.848  49.675  55.087  0.00  0.00     0.004 A 
ATOM     23  C   UNL d   1      57.189  49.705  54.610  0.00  0.00     0.000 A 
ATOM     24  C   UNL d   1      56.439  49.702  54.954  0.00  0.00     0.000 A 
ATOM     25  C   UNL d   1      56.360  49.668  55.769  0.00  0.00     0.000 A 
ATOM     26  C   UNL d   1      57.030  49.638  56.241  0.00  0.00     0.000 A 
ATOM     27  C   UNL d   1      57.780  49.641  55.897  0.00  0.00     0.000 A 
ENDBRANCH   5  22
TORSDOF 6
ENDMDL
