MODEL 1
REMARK VINA RESULT:       5.5      0.000      0.000
REMARK  2 active torsions:
REMARK  status: ('A' for Active; 'I' for Inactive)
REMARK    1  A    between atoms: C_6  and  C_3 
REMARK    2  A    between atoms: O_13  and  C_10 
ROOT
ATOM      1  C   UNL d   1      44.523 -15.665  36.637  0.00  0.00     0.018 A 
ATOM      2  C   UNL d   1      43.992 -15.058  36.737  0.00  0.00     0.004 A 
ATOM      3  C   UNL d   1      44.255 -16.412  36.435  0.00  0.00     0.004 A 
ATOM      4  C   UNL d   1      42.918 -15.948  36.432  0.00  0.00     0.094 A 
ATOM      5  C   UNL d   1      43.449 -16.555  36.332  0.00  0.00     0.024 A 
ATOM      6  C   UNL d   1      43.181 -15.184  36.638  0.00  0.00     0.024 A 
ENDROOT
BRANCH   1   7
ATOM      7  C   UNL d   1      45.148 -15.147  36.814  0.00  0.00     0.090 A 
ATOM      8  N   UNL d   1      45.345 -14.397  37.110  0.00  0.00    -0.219 NA
ATOM      9  C   UNL d   1      46.166 -14.342  37.086  0.00  0.00     0.215 A 
ATOM     10  S   UNL d   1      46.452 -15.026  36.790  0.00  0.00    -0.045 SA
ATOM     11  N   UNL d   1      46.647 -13.697  37.324  0.00  0.00    -0.120 N 
ATOM     12  C   UNL d   1      45.843 -15.531  36.617  0.00  0.00     0.058 A 
ENDBRANCH   1   7
BRANCH   4  13
ATOM     13  O   UNL d   1      42.095 -16.084  36.330  0.00  0.00    -0.328 OA
ATOM     14  C   UNL d   1      41.550 -15.470  36.461  0.00  0.00     0.181 C 
ENDBRANCH   4  13
TORSDOF 2
ENDMDL
MODEL 2
REMARK VINA RESULT:       8.1      7.581      8.196
REMARK  2 active torsions:
REMARK  status: ('A' for Active; 'I' for Inactive)
REMARK    1  A    between atoms: C_6  and  C_3 
REMARK    2  A    between atoms: O_13  and  C_10 
ROOT
ATOM      1  C   UNL d   1      45.671 -14.073  44.634  0.00  0.00     0.018 A 
ATOM      2  C   UNL d   1      45.491 -14.167  43.847  0.00  0.00     0.004 A 
ATOM      3  C   UNL d   1      45.713 -13.321  44.954  0.00  0.00     0.004 A 
ATOM      4  C   UNL d   1      45.395 -12.750  43.698  0.00  0.00     0.094 A 
ATOM      5  C   UNL d   1      45.574 -12.656  44.485  0.00  0.00     0.024 A 
ATOM      6  C   UNL d   1      45.349 -13.512  43.362  0.00  0.00     0.024 A 
ENDROOT
BRANCH   1   7
ATOM      7  C   UNL d   1      45.727 -14.897  44.720  0.00  0.00     0.090 A 
ATOM      8  N   UNL d   1      46.244 -15.547  44.714  0.00  0.00    -0.219 NA
ATOM      9  C   UNL d   1      45.786 -16.215  44.863  0.00  0.00     0.215 A 
ATOM     10  S   UNL d   1      45.028 -15.979  44.955  0.00  0.00    -0.045 SA
ATOM     11  N   UNL d   1      46.040 -17.012  44.916  0.00  0.00    -0.120 N 
ATOM     12  C   UNL d   1      44.974 -15.176  44.870  0.00  0.00     0.058 A 
ENDBRANCH   1   7
BRANCH   4  13
ATOM     13  O   UNL d   1      45.252 -12.080  43.212  0.00  0.00    -0.328 OA
ATOM     14  C   UNL d   1      44.701 -12.122  42.592  0.00  0.00     0.181 C 
ENDBRANCH   4  13
TORSDOF 2
ENDMDL
