MODEL 1
REMARK VINA RESULT:      -0.7      0.000      0.000
REMARK  3 active torsions:
REMARK  status: ('A' for Active; 'I' for Inactive)
REMARK    1  A    between atoms: C_16  and  N_3 
REMARK    2  A    between atoms: C_10  and  C_5 
REMARK    3  A    between atoms: C_26  and  C_16 
ROOT
ATOM      1  C   UNL d   1      58.242  -1.295  30.067  0.00  0.00     0.083 A 
ATOM      2  C   UNL d   1      57.839  -1.997  30.217  0.00  0.00     0.161 A 
ATOM      3  N   UNL d   1      58.695  -2.228  29.215  0.00  0.00    -0.268 N 
ATOM      4  C   UNL d   1      58.116  -2.578  29.692  0.00  0.00     0.288 A 
ATOM      5  C   UNL d   1      58.773  -1.434  29.447  0.00  0.00     0.072 A 
ATOM      6  C   UNL d   1      58.080  -0.618  30.508  0.00  0.00     0.201 A 
ATOM      7  O   UNL d   1      57.265  -2.022  30.817  0.00  0.00    -0.302 OA
ATOM      8  C   UNL d   1      57.509  -0.647  31.104  0.00  0.00     0.062 A 
ATOM      9  C   UNL d   1      57.104  -1.347  31.256  0.00  0.00     0.103 A 
ATOM     10  O   UNL d   1      57.864  -3.355  29.651  0.00  0.00    -0.264 OA
ATOM     11  O   UNL d   1      58.482   0.085  30.360  0.00  0.00    -0.286 OA
ATOM     12  C   UNL d   1      57.345   0.032  31.548  0.00  0.00     0.012 A 
ATOM     13  C   UNL d   1      56.529  -1.367  31.860  0.00  0.00     0.025 A 
ATOM     14  C   UNL d   1      56.778   0.010  32.142  0.00  0.00     0.035 A 
ATOM     15  C   UNL d   1      56.369  -0.691  32.298  0.00  0.00     0.009 A 
ATOM     16 BR   UNL d   1      56.616   0.682  32.581  0.00  0.00    -0.049 Br
ENDROOT
BRANCH   5  17
ATOM     17  C   UNL d   1      59.178  -0.733  29.295  0.00  0.00     0.019 A 
ATOM     18  C   UNL d   1      59.924  -0.599  29.625  0.00  0.00     0.031 A 
ATOM     19  C   UNL d   1      60.326   0.102  29.471  0.00  0.00     0.140 A 
ATOM     20  F   UNL d   1      61.068   0.230  29.802  0.00  0.00    -0.204 F 
ATOM     21  C   UNL d   1      59.984   0.681  28.980  0.00  0.00     0.030 A 
ATOM     22  C   UNL d   1      59.237   0.547  28.649  0.00  0.00     0.002 A 
ATOM     23  C   UNL d   1      58.835  -0.163  28.808  0.00  0.00     0.002 A 
ENDBRANCH   5  17
BRANCH   3  24
ATOM     24  C   UNL d   1      59.120  -2.599  28.615  0.00  0.00     0.129 C 
BRANCH  24  25
ATOM     25  C   UNL d   1      59.259  -3.410  28.654  0.00  0.00     0.253 C 
ATOM     26  O   UNL d   1      60.000  -3.710  28.464  0.00  0.00    -0.281 OA
ENDBRANCH  24  25
ENDBRANCH   3  24
TORSDOF 3
ENDMDL
MODEL 2
REMARK VINA RESULT:       0.8      1.516      2.596
REMARK  3 active torsions:
REMARK  status: ('A' for Active; 'I' for Inactive)
REMARK    1  A    between atoms: C_16  and  N_3 
REMARK    2  A    between atoms: C_10  and  C_5 
REMARK    3  A    between atoms: C_26  and  C_16 
ROOT
ATOM      1  C   UNL d   1      58.611  -0.773  30.437  0.00  0.00     0.083 A 
ATOM      2  C   UNL d   1      58.948  -0.132  30.828  0.00  0.00     0.161 A 
ATOM      3  N   UNL d   1      59.765  -0.468  29.822  0.00  0.00    -0.268 N 
ATOM      4  C   UNL d   1      59.663   0.061  30.451  0.00  0.00     0.288 A 
ATOM      5  C   UNL d   1      59.113  -0.985  29.814  0.00  0.00     0.072 A 
ATOM      6  C   UNL d   1      57.893  -1.087  30.692  0.00  0.00     0.201 A 
ATOM      7  O   UNL d   1      58.561   0.201  31.484  0.00  0.00    -0.302 OA
ATOM      8  C   UNL d   1      57.511  -0.754  31.344  0.00  0.00     0.062 A 
ATOM      9  C   UNL d   1      57.845  -0.113  31.737  0.00  0.00     0.103 A 
ATOM     10  O   UNL d   1      60.175   0.664  30.661  0.00  0.00    -0.264 OA
ATOM     11  O   UNL d   1      57.555  -1.728  30.302  0.00  0.00    -0.286 OA
ATOM     12  C   UNL d   1      56.789  -1.068  31.601  0.00  0.00     0.012 A 
ATOM     13  C   UNL d   1      57.453   0.217  32.394  0.00  0.00     0.025 A 
ATOM     14  C   UNL d   1      56.404  -0.741  32.249  0.00  0.00     0.035 A 
ATOM     15  C   UNL d   1      56.737  -0.097  32.647  0.00  0.00     0.009 A 
ATOM     16 BR   UNL d   1      55.691  -1.052  32.503  0.00  0.00    -0.049 Br
ENDROOT
BRANCH   5  17
ATOM     17  C   UNL d   1      58.779  -1.626  29.421  0.00  0.00     0.019 A 
ATOM     18  C   UNL d   1      59.034  -2.396  29.581  0.00  0.00     0.031 A 
ATOM     19  C   UNL d   1      58.697  -3.034  29.186  0.00  0.00     0.140 A 
ATOM     20  F   UNL d   1      58.955  -3.798  29.350  0.00  0.00    -0.204 F 
ATOM     21  C   UNL d   1      58.098  -2.910  28.622  0.00  0.00     0.030 A 
ATOM     22  C   UNL d   1      57.843  -2.139  28.462  0.00  0.00     0.002 A 
ATOM     23  C   UNL d   1      58.186  -1.497  28.863  0.00  0.00     0.002 A 
ENDBRANCH   5  17
BRANCH   3  24
ATOM     24  C   UNL d   1      60.399  -0.482  29.297  0.00  0.00     0.129 C 
BRANCH  24  25
ATOM     25  C   UNL d   1      60.921   0.154  29.270  0.00  0.00     0.253 C 
ATOM     26  O   UNL d   1      61.102   0.508  28.550  0.00  0.00    -0.281 OA
ENDBRANCH  24  25
ENDBRANCH   3  24
TORSDOF 3
ENDMDL
MODEL 3
REMARK VINA RESULT:       1.6      2.961      5.009
REMARK  3 active torsions:
REMARK  status: ('A' for Active; 'I' for Inactive)
REMARK    1  A    between atoms: C_16  and  N_3 
REMARK    2  A    between atoms: C_10  and  C_5 
REMARK    3  A    between atoms: C_26  and  C_16 
ROOT
ATOM      1  C   UNL d   1      57.514   0.254  32.673  0.00  0.00     0.083 A 
ATOM      2  C   UNL d   1      58.299   0.461  32.809  0.00  0.00     0.161 A 
ATOM      3  N   UNL d   1      57.716   0.289  34.001  0.00  0.00    -0.268 N 
ATOM      4  C   UNL d   1      58.429   0.484  33.629  0.00  0.00     0.288 A 
ATOM      5  C   UNL d   1      57.149   0.147  33.409  0.00  0.00     0.072 A 
ATOM      6  C   UNL d   1      57.226   0.189  31.904  0.00  0.00     0.201 A 
ATOM      7  O   UNL d   1      58.805   0.605  32.164  0.00  0.00    -0.302 OA
ATOM      8  C   UNL d   1      57.730   0.332  31.267  0.00  0.00     0.062 A 
ATOM      9  C   UNL d   1      58.516   0.539  31.398  0.00  0.00     0.103 A 
ATOM     10  O   UNL d   1      59.134   0.666  34.004  0.00  0.00    -0.264 OA
ATOM     11  O   UNL d   1      56.441  -0.018  31.768  0.00  0.00    -0.286 OA
ATOM     12  C   UNL d   1      57.443   0.267  30.493  0.00  0.00     0.012 A 
ATOM     13  C   UNL d   1      59.018   0.682  30.748  0.00  0.00     0.025 A 
ATOM     14  C   UNL d   1      57.939   0.408  29.854  0.00  0.00     0.035 A 
ATOM     15  C   UNL d   1      58.729   0.616  29.982  0.00  0.00     0.009 A 
ATOM     16 BR   UNL d   1      57.654   0.343  29.090  0.00  0.00    -0.049 Br
ENDROOT
BRANCH   5  17
ATOM     17  C   UNL d   1      56.363  -0.060  33.278  0.00  0.00     0.019 A 
ATOM     18  C   UNL d   1      56.151  -0.850  33.158  0.00  0.00     0.031 A 
ATOM     19  C   UNL d   1      55.365  -1.053  33.027  0.00  0.00     0.140 A 
ATOM     20  F   UNL d   1      55.161  -1.842  32.909  0.00  0.00    -0.204 F 
ATOM     21  C   UNL d   1      54.777  -0.465  33.014  0.00  0.00     0.030 A 
ATOM     22  C   UNL d   1      54.989   0.327  33.133  0.00  0.00     0.002 A 
ATOM     23  C   UNL d   1      55.785   0.527  33.265  0.00  0.00     0.002 A 
ENDBRANCH   5  17
BRANCH   3  24
ATOM     24  C   UNL d   1      57.588   0.243  34.812  0.00  0.00     0.129 C 
BRANCH  24  25
ATOM     25  C   UNL d   1      58.059   0.681  35.326  0.00  0.00     0.253 C 
ATOM     26  O   UNL d   1      57.966   0.602  36.139  0.00  0.00    -0.281 OA
ENDBRANCH  24  25
ENDBRANCH   3  24
TORSDOF 3
ENDMDL
MODEL 4
REMARK VINA RESULT:       2.2      1.872      2.634
REMARK  3 active torsions:
REMARK  status: ('A' for Active; 'I' for Inactive)
REMARK    1  A    between atoms: C_16  and  N_3 
REMARK    2  A    between atoms: C_10  and  C_5 
REMARK    3  A    between atoms: C_26  and  C_16 
ROOT
ATOM      1  C   UNL d   1      58.676   0.319  31.098  0.00  0.00     0.083 A 
ATOM      2  C   UNL d   1      59.140   0.494  31.755  0.00  0.00     0.161 A 
ATOM      3  N   UNL d   1      59.960   0.356  30.707  0.00  0.00    -0.268 N 
ATOM      4  C   UNL d   1      59.936   0.518  31.518  0.00  0.00     0.288 A 
ATOM      5  C   UNL d   1      59.180   0.233  30.446  0.00  0.00     0.072 A 
ATOM      6  C   UNL d   1      57.857   0.260  31.169  0.00  0.00     0.201 A 
ATOM      7  O   UNL d   1      58.779   0.611  32.495  0.00  0.00    -0.302 OA
ATOM      8  C   UNL d   1      57.502   0.376  31.905  0.00  0.00     0.062 A 
ATOM      9  C   UNL d   1      57.963   0.551  32.564  0.00  0.00     0.103 A 
ATOM     10  O   UNL d   1      60.581   0.673  31.998  0.00  0.00    -0.264 OA
ATOM     11  O   UNL d   1      57.392   0.085  30.512  0.00  0.00    -0.286 OA
ATOM     12  C   UNL d   1      56.680   0.317  31.978  0.00  0.00     0.012 A 
ATOM     13  C   UNL d   1      57.596   0.667  33.303  0.00  0.00     0.025 A 
ATOM     14  C   UNL d   1      56.320   0.431  32.708  0.00  0.00     0.035 A 
ATOM     15  C   UNL d   1      56.780   0.607  33.372  0.00  0.00     0.009 A 
ATOM     16 BR   UNL d   1      55.507   0.372  32.779  0.00  0.00    -0.049 Br
ENDROOT
BRANCH   5  17
ATOM     17  C   UNL d   1      58.719   0.059  29.787  0.00  0.00     0.019 A 
ATOM     18  C   UNL d   1      58.576  -0.726  29.570  0.00  0.00     0.031 A 
ATOM     19  C   UNL d   1      58.115  -0.897  28.911  0.00  0.00     0.140 A 
ATOM     20  F   UNL d   1      57.976  -1.680  28.701  0.00  0.00    -0.204 F 
ATOM     21  C   UNL d   1      57.789  -0.280  28.457  0.00  0.00     0.030 A 
ATOM     22  C   UNL d   1      57.932   0.506  28.674  0.00  0.00     0.002 A 
ATOM     23  C   UNL d   1      58.399   0.673  29.341  0.00  0.00     0.002 A 
ENDBRANCH   5  17
BRANCH   3  24
ATOM     24  C   UNL d   1      60.636   0.323  30.238  0.00  0.00     0.129 C 
BRANCH  24  25
ATOM     25  C   UNL d   1      61.056  -0.382  30.175  0.00  0.00     0.253 C 
ATOM     26  O   UNL d   1      61.037  -0.812  29.475  0.00  0.00    -0.281 OA
ENDBRANCH  24  25
ENDBRANCH   3  24
TORSDOF 3
ENDMDL
