MODEL 1
REMARK VINA RESULT:       0.1      0.000      0.000
REMARK  3 active torsions:
REMARK  status: ('A' for Active; 'I' for Inactive)
REMARK    1  A    between atoms: N_10  and  C_3 
REMARK    2  A    between atoms: C_11  and  C_5 
REMARK    3  A    between atoms: C_12  and  N_10 
ROOT
ATOM      1  N   UNL d   1      58.160  -0.098  30.857  0.00  0.00    -0.184 N 
ATOM      2  C   UNL d   1      58.895  -0.041  30.457  0.00  0.00     0.168 A 
ATOM      3  C   UNL d   1      58.120   0.076  31.665  0.00  0.00     0.217 A 
ATOM      4  N   UNL d   1      57.532  -0.494  29.648  0.00  0.00    -0.162 NA
ATOM      5  C   UNL d   1      58.935  -0.209  29.668  0.00  0.00     0.055 A 
ATOM      6  N   UNL d   1      59.564   0.188  30.878  0.00  0.00    -0.227 NA
ATOM      7  C   UNL d   1      58.788   0.299  32.067  0.00  0.00     0.066 A 
ATOM      8  C   UNL d   1      58.256  -0.438  29.254  0.00  0.00     0.104 A 
ATOM      9  C   UNL d   1      59.527   0.359  31.674  0.00  0.00     0.087 A 
ATOM     10  C   UNL d   1      58.920   0.500  32.842  0.00  0.00     0.006 A 
ATOM     11  C   UNL d   1      58.305  -0.608  28.455  0.00  0.00     0.023 C 
ATOM     12  C   UNL d   1      60.095   0.594  32.217  0.00  0.00     0.019 A 
ATOM     13  C   UNL d   1      59.710   0.681  32.948  0.00  0.00     0.002 A 
ENDROOT
BRANCH   3  14
ATOM     14  N   UNL d   1      57.379   0.019  32.073  0.00  0.00    -0.383 NA
BRANCH  14  15
ATOM     15  C   UNL d   1      56.641  -0.032  32.477  0.00  0.00     0.134 A 
ATOM     16  C   UNL d   1      56.283  -0.792  32.616  0.00  0.00     0.034 A 
ATOM     17  C   UNL d   1      55.545  -0.839  33.021  0.00  0.00     0.032 A 
ATOM     18  C   UNL d   1      55.161  -0.141  33.288  0.00  0.00     0.140 A 
ATOM     19  C   UNL d   1      55.523   0.614  33.147  0.00  0.00     0.032 A 
ATOM     20  F   UNL d   1      54.419  -0.188  33.695  0.00  0.00    -0.204 F 
ATOM     21  C   UNL d   1      56.257   0.674  32.745  0.00  0.00     0.034 A 
ENDBRANCH  14  15
ENDBRANCH   3  14
BRANCH   5  22
ATOM     22  C   UNL d   1      59.655  -0.154  29.277  0.00  0.00     0.004 A 
ATOM     23  C   UNL d   1      59.888   0.559  28.942  0.00  0.00     0.000 A 
ATOM     24  C   UNL d   1      60.604   0.618  28.551  0.00  0.00     0.000 A 
ATOM     25  C   UNL d   1      61.095  -0.042  28.492  0.00  0.00     0.000 A 
ATOM     26  C   UNL d   1      60.872  -0.749  28.820  0.00  0.00     0.000 A 
ATOM     27  C   UNL d   1      60.144  -0.805  29.216  0.00  0.00     0.000 A 
ENDBRANCH   5  22
TORSDOF 3
ENDMDL
