MODEL 1
REMARK VINA RESULT:      -3.4      0.000      0.000
REMARK  4 active torsions:
REMARK  status: ('A' for Active; 'I' for Inactive)
REMARK    1  A    between atoms: N_3  and  C_1 
REMARK       I    between atoms: C_7  and  N_3 
REMARK    2  A    between atoms: C_15  and  C_7 
REMARK    3  A    between atoms: C_10  and  S_11 
REMARK    4  A    between atoms: S_11  and  C_15 
ROOT
ATOM      1  C   UNL d   1      57.958  -0.302  30.464  0.00  0.00     0.182 A 
ATOM      2  N   UNL d   1      58.317  -0.082  29.753  0.00  0.00    -0.283 N 
ATOM      3  S   UNL d   1      58.026  -1.127  30.538  0.00  0.00    -0.048 SA
ATOM      4  C   UNL d   1      58.429  -1.410  29.869  0.00  0.00     0.051 A 
ATOM      5  C   UNL d   1      58.608  -0.766  29.385  0.00  0.00     0.072 A 
ATOM      6  C   UNL d   1      58.650  -2.177  29.649  0.00  0.00     0.038 A 
ATOM      7  C   UNL d   1      59.009  -0.889  28.681  0.00  0.00     0.020 A 
ATOM      8  C   UNL d   1      59.051  -2.282  28.940  0.00  0.00     0.141 A 
ATOM      9  C   UNL d   1      59.230  -1.638  28.456  0.00  0.00     0.031 A 
ATOM     10  C   UNL d   1      58.373   0.682  29.467  0.00  0.00     0.101 C 
ATOM     11  F   UNL d   1      59.278  -3.045  28.707  0.00  0.00    -0.204 F 
ENDROOT
BRANCH   1  12
ATOM     12  N   UNL d   1      57.596   0.206  31.005  0.00  0.00    -0.183 NA
ATOM     13  C   UNL d   1      57.090  -0.280  31.446  0.00  0.00     0.288 C 
ATOM     14  O   UNL d   1      57.047  -1.091  31.281  0.00  0.00    -0.265 OA
BRANCH  13  15
ATOM     15  C   UNL d   1      56.630   0.035  32.046  0.00  0.00     0.101 C 
BRANCH  15  16
ATOM     16  S   UNL d   1      56.295  -0.458  32.623  0.00  0.00    -0.040 SA
BRANCH  16  17
ATOM     17  C   UNL d   1      55.946  -0.128  33.302  0.00  0.00     0.226 C 
ATOM     18  O   UNL d   1      56.431   0.144  33.911  0.00  0.00    -0.279 OA
ATOM     19  C   UNL d   1      55.133  -0.076  33.359  0.00  0.00     0.053 C 
ENDBRANCH  16  17
ENDBRANCH  15  16
ENDBRANCH  13  15
ENDBRANCH   1  12
TORSDOF 4
ENDMDL
MODEL 2
REMARK VINA RESULT:      -3.1      1.467      1.817
REMARK  4 active torsions:
REMARK  status: ('A' for Active; 'I' for Inactive)
REMARK    1  A    between atoms: N_3  and  C_1 
REMARK       I    between atoms: C_7  and  N_3 
REMARK    2  A    between atoms: C_15  and  C_7 
REMARK    3  A    between atoms: C_10  and  S_11 
REMARK    4  A    between atoms: S_11  and  C_15 
ROOT
ATOM      1  C   UNL d   1      58.208  -0.746  29.954  0.00  0.00     0.182 A 
ATOM      2  N   UNL d   1      58.697  -1.303  29.588  0.00  0.00    -0.283 N 
ATOM      3  S   UNL d   1      58.576  -0.004  29.890  0.00  0.00    -0.048 SA
ATOM      4  C   UNL d   1      59.292  -0.110  29.483  0.00  0.00     0.051 A 
ATOM      5  C   UNL d   1      59.367  -0.911  29.297  0.00  0.00     0.072 A 
ATOM      6  C   UNL d   1      59.880   0.430  29.263  0.00  0.00     0.038 A 
ATOM      7  C   UNL d   1      60.029  -1.171  28.891  0.00  0.00     0.020 A 
ATOM      8  C   UNL d   1      60.537   0.152  28.856  0.00  0.00     0.141 A 
ATOM      9  C   UNL d   1      60.611  -0.649  28.670  0.00  0.00     0.031 A 
ATOM     10  C   UNL d   1      58.541  -2.103  29.528  0.00  0.00     0.101 C 
ATOM     11  F   UNL d   1      61.133   0.682  28.629  0.00  0.00    -0.204 F 
ENDROOT
BRANCH   1  12
ATOM     12  N   UNL d   1      57.483  -0.898  30.320  0.00  0.00    -0.183 NA
ATOM     13  C   UNL d   1      57.480  -0.417  30.994  0.00  0.00     0.288 C 
ATOM     14  O   UNL d   1      58.130   0.070  31.158  0.00  0.00    -0.265 OA
BRANCH  13  15
ATOM     15  C   UNL d   1      56.838  -0.419  31.503  0.00  0.00     0.101 C 
BRANCH  15  16
ATOM     16  S   UNL d   1      56.946  -0.305  32.317  0.00  0.00    -0.040 SA
BRANCH  16  17
ATOM     17  C   UNL d   1      56.320  -0.451  32.845  0.00  0.00     0.226 C 
ATOM     18  O   UNL d   1      56.143  -1.229  33.052  0.00  0.00    -0.279 OA
ATOM     19  C   UNL d   1      55.891   0.172  33.152  0.00  0.00     0.053 C 
ENDBRANCH  16  17
ENDBRANCH  15  16
ENDBRANCH  13  15
ENDBRANCH   1  12
TORSDOF 4
ENDMDL
MODEL 3
REMARK VINA RESULT:      -2.3      2.824      5.332
REMARK  4 active torsions:
REMARK  status: ('A' for Active; 'I' for Inactive)
REMARK    1  A    between atoms: N_3  and  C_1 
REMARK       I    between atoms: C_7  and  N_3 
REMARK    2  A    between atoms: C_15  and  C_7 
REMARK    3  A    between atoms: C_10  and  S_11 
REMARK    4  A    between atoms: S_11  and  C_15 
ROOT
ATOM      1  C   UNL d   1      56.334   0.602  33.226  0.00  0.00     0.182 A 
ATOM      2  N   UNL d   1      56.455   0.644  34.043  0.00  0.00    -0.283 N 
ATOM      3  S   UNL d   1      55.515   0.579  33.091  0.00  0.00    -0.048 SA
ATOM      4  C   UNL d   1      55.135   0.607  33.829  0.00  0.00     0.051 A 
ATOM      5  C   UNL d   1      55.715   0.648  34.416  0.00  0.00     0.072 A 
ATOM      6  C   UNL d   1      54.332   0.601  34.031  0.00  0.00     0.038 A 
ATOM      7  C   UNL d   1      55.491   0.682  35.204  0.00  0.00     0.020 A 
ATOM      8  C   UNL d   1      54.126   0.636  34.825  0.00  0.00     0.141 A 
ATOM      9  C   UNL d   1      54.705   0.676  35.412  0.00  0.00     0.031 A 
ATOM     10  C   UNL d   1      57.183   0.677  34.413  0.00  0.00     0.101 C 
ATOM     11  F   UNL d   1      53.324   0.630  35.041  0.00  0.00    -0.204 F 
ENDROOT
BRANCH   1  12
ATOM     12  N   UNL d   1      56.922   0.585  32.647  0.00  0.00    -0.183 NA
ATOM     13  C   UNL d   1      56.706  -0.035  32.143  0.00  0.00     0.288 C 
ATOM     14  O   UNL d   1      56.019  -0.473  32.296  0.00  0.00    -0.265 OA
BRANCH  13  15
ATOM     15  C   UNL d   1      57.166  -0.221  31.491  0.00  0.00     0.101 C 
BRANCH  15  16
ATOM     16  S   UNL d   1      57.469   0.378  31.005  0.00  0.00    -0.040 SA
BRANCH  16  17
ATOM     17  C   UNL d   1      58.060   0.203  30.447  0.00  0.00     0.226 C 
ATOM     18  O   UNL d   1      57.970  -0.455  29.959  0.00  0.00    -0.279 OA
ATOM     19  C   UNL d   1      58.720   0.681  30.388  0.00  0.00     0.053 C 
ENDBRANCH  16  17
ENDBRANCH  15  16
ENDBRANCH  13  15
ENDBRANCH   1  12
TORSDOF 4
ENDMDL
MODEL 4
REMARK VINA RESULT:      -2.2      1.887      2.009
REMARK  4 active torsions:
REMARK  status: ('A' for Active; 'I' for Inactive)
REMARK    1  A    between atoms: N_3  and  C_1 
REMARK       I    between atoms: C_7  and  N_3 
REMARK    2  A    between atoms: C_15  and  C_7 
REMARK    3  A    between atoms: C_10  and  S_11 
REMARK    4  A    between atoms: S_11  and  C_15 
ROOT
ATOM      1  C   UNL d   1      57.631   0.676  30.745  0.00  0.00     0.182 A 
ATOM      2  N   UNL d   1      57.885   0.676  29.958  0.00  0.00    -0.283 N 
ATOM      3  S   UNL d   1      58.306   0.669  31.229  0.00  0.00    -0.048 SA
ATOM      4  C   UNL d   1      58.973   0.665  30.736  0.00  0.00     0.051 A 
ATOM      5  C   UNL d   1      58.714   0.669  29.951  0.00  0.00     0.072 A 
ATOM      6  C   UNL d   1      59.783   0.658  30.911  0.00  0.00     0.038 A 
ATOM      7  C   UNL d   1      59.264   0.666  29.344  0.00  0.00     0.020 A 
ATOM      8  C   UNL d   1      60.320   0.655  30.290  0.00  0.00     0.141 A 
ATOM      9  C   UNL d   1      60.060   0.659  29.506  0.00  0.00     0.031 A 
ATOM     10  C   UNL d   1      57.397   0.682  29.302  0.00  0.00     0.101 C 
ATOM     11  F   UNL d   1      61.133   0.648  30.452  0.00  0.00    -0.204 F 
ENDROOT
BRANCH   1  12
ATOM     12  N   UNL d   1      56.847   0.682  31.004  0.00  0.00    -0.183 NA
ATOM     13  C   UNL d   1      56.892   0.532  31.818  0.00  0.00     0.288 C 
ATOM     14  O   UNL d   1      57.630   0.417  32.178  0.00  0.00    -0.265 OA
BRANCH  13  15
ATOM     15  C   UNL d   1      56.211   0.496  32.272  0.00  0.00     0.101 C 
BRANCH  15  16
ATOM     16  S   UNL d   1      56.128  -0.080  32.862  0.00  0.00    -0.040 SA
BRANCH  16  17
ATOM     17  C   UNL d   1      55.491  -0.043  33.394  0.00  0.00     0.226 C 
ATOM     18  O   UNL d   1      55.002   0.621  33.391  0.00  0.00    -0.279 OA
ATOM     19  C   UNL d   1      55.356  -0.660  33.913  0.00  0.00     0.053 C 
ENDBRANCH  16  17
ENDBRANCH  15  16
ENDBRANCH  13  15
ENDBRANCH   1  12
TORSDOF 4
ENDMDL
MODEL 5
REMARK VINA RESULT:      -1.2      2.185      4.277
REMARK  4 active torsions:
REMARK  status: ('A' for Active; 'I' for Inactive)
REMARK    1  A    between atoms: N_3  and  C_1 
REMARK       I    between atoms: C_7  and  N_3 
REMARK    2  A    between atoms: C_15  and  C_7 
REMARK    3  A    between atoms: C_10  and  S_11 
REMARK    4  A    between atoms: S_11  and  C_15 
ROOT
ATOM      1  C   UNL d   1      58.568  -0.876  29.505  0.00  0.00     0.182 A 
ATOM      2  N   UNL d   1      58.470  -0.068  29.649  0.00  0.00    -0.283 N 
ATOM      3  S   UNL d   1      58.113  -1.290  30.063  0.00  0.00    -0.048 SA
ATOM      4  C   UNL d   1      57.737  -0.732  30.549  0.00  0.00     0.051 A 
ATOM      5  C   UNL d   1      57.957   0.022  30.293  0.00  0.00     0.072 A 
ATOM      6  C   UNL d   1      57.222  -0.825  31.191  0.00  0.00     0.038 A 
ATOM      7  C   UNL d   1      57.662   0.682  30.680  0.00  0.00     0.020 A 
ATOM      8  C   UNL d   1      56.936  -0.153  31.566  0.00  0.00     0.141 A 
ATOM      9  C   UNL d   1      57.157   0.601  31.310  0.00  0.00     0.031 A 
ATOM     10  C   UNL d   1      58.822   0.534  29.223  0.00  0.00     0.101 C 
ATOM     11  F   UNL d   1      56.420  -0.231  32.211  0.00  0.00    -0.204 F 
ENDROOT
BRANCH   1  12
ATOM     12  N   UNL d   1      59.034  -1.214  28.913  0.00  0.00    -0.183 NA
ATOM     13  C   UNL d   1      59.334  -1.909  29.249  0.00  0.00     0.288 C 
ATOM     14  O   UNL d   1      59.133  -2.113  30.027  0.00  0.00    -0.265 OA
BRANCH  13  15
ATOM     15  C   UNL d   1      59.829  -2.399  28.818  0.00  0.00     0.101 C 
BRANCH  15  16
ATOM     16  S   UNL d   1      59.872  -3.209  28.988  0.00  0.00    -0.040 SA
BRANCH  16  17
ATOM     17  C   UNL d   1      60.611  -3.589  29.027  0.00  0.00     0.226 C 
ATOM     18  O   UNL d   1      61.123  -3.407  29.647  0.00  0.00    -0.279 OA
ATOM     19  C   UNL d   1      60.821  -4.133  28.455  0.00  0.00     0.053 C 
ENDBRANCH  16  17
ENDBRANCH  15  16
ENDBRANCH  13  15
ENDBRANCH   1  12
TORSDOF 4
ENDMDL
