MODEL 1
REMARK VINA RESULT:      45.5      0.000      0.000
REMARK  6 active torsions:
REMARK  status: ('A' for Active; 'I' for Inactive)
REMARK    1  A    between atoms: C_4  and  N_1 
REMARK    2  A    between atoms: C_7  and  C_3 
REMARK    3  A    between atoms: N_13  and  C_4 
REMARK    4  A    between atoms: C_16  and  N_13 
REMARK    5  A    between atoms: C_20  and  C_16 
REMARK    6  A    between atoms: C_17  and  C_20 
ROOT
ATOM      1  N   UNL d   1     -57.131 -98.799 -44.223  0.00  0.00    -0.281 N 
ATOM      2  C   UNL d   1     -58.409 -98.776 -43.609  0.00  0.00     0.080 A 
ATOM      3  C   UNL d   1     -57.948 -98.783 -44.287  0.00  0.00     0.084 A 
ATOM      4  N   UNL d   1     -58.053 -98.785 -42.869  0.00  0.00    -0.301 N 
ATOM      5  C   UNL d   1     -56.772 -98.807 -43.477  0.00  0.00     0.101 A 
ATOM      6  C   UNL d   1     -59.227 -98.761 -43.500  0.00  0.00     0.021 A 
ATOM      7  C   UNL d   1     -58.647 -98.775 -42.296  0.00  0.00     0.080 A 
ATOM      8  C   UNL d   1     -57.241 -98.800 -42.802  0.00  0.00     0.100 A 
ATOM      9  C   UNL d   1     -59.376 -98.761 -42.682  0.00  0.00     0.021 A 
ENDROOT
BRANCH   1  10
ATOM     10  C   UNL d   1     -56.658 -98.806 -44.901  0.00  0.00     0.184 C 
ATOM     11  S   UNL d   1     -57.012 -98.861 -45.636  0.00  0.00    -0.040 SA
BRANCH  10  12
ATOM     12  N   UNL d   1     -55.842 -98.759 -44.838  0.00  0.00    -0.330 N 
ATOM     13  H   UNL d   1     -55.480 -98.029 -44.704  0.00  0.00     0.168 HD
BRANCH  12  14
ATOM     14  C   UNL d   1     -55.384 -99.437 -44.909  0.00  0.00     0.074 C 
BRANCH  14  15
ATOM     15  C   UNL d   1     -55.210 -99.872 -44.266  0.00  0.00     0.018 C 
BRANCH  15  16
ATOM     16  C   UNL d   1     -55.081-100.689 -44.247  0.00  0.00     0.002 A 
ATOM     17  C   UNL d   1     -54.999-101.074 -43.513  0.00  0.00     0.000 A 
ATOM     18  C   UNL d   1     -54.871-101.889 -43.490  0.00  0.00     0.000 A 
ATOM     19  C   UNL d   1     -54.823-102.322 -44.195  0.00  0.00     0.000 A 
ATOM     20  C   UNL d   1     -54.904-101.938 -44.930  0.00  0.00     0.000 A 
ATOM     21  C   UNL d   1     -55.033-101.120 -44.945  0.00  0.00     0.000 A 
ENDBRANCH  15  16
ENDBRANCH  14  15
ENDBRANCH  12  14
ENDBRANCH  10  12
ENDBRANCH   1  10
BRANCH   3  22
ATOM     22  C   UNL d   1     -58.302 -98.775 -45.031  0.00  0.00     0.037 A 
ATOM     23  C   UNL d   1     -57.836 -98.771 -45.711  0.00  0.00     0.100 A 
ATOM     24  N   UNL d   1     -58.197 -98.763 -46.449  0.00  0.00    -0.242 NA
ATOM     25  C   UNL d   1     -59.003 -98.757 -46.520  0.00  0.00     0.099 A 
ATOM     26  C   UNL d   1     -59.478 -98.761 -45.841  0.00  0.00     0.021 A 
ATOM     27  C   UNL d   1     -59.123 -98.769 -45.096  0.00  0.00     0.005 A 
ENDBRANCH   3  22
TORSDOF 6
ENDMDL
