MODEL 1
REMARK VINA RESULT:      -4.3      0.000      0.000
REMARK  3 active torsions:
REMARK  status: ('A' for Active; 'I' for Inactive)
REMARK    1  A    between atoms: C_5  and  S_1 
REMARK    2  A    between atoms: N_7  and  S_1 
REMARK       I    between atoms: N_2  and  C_3 
REMARK    3  A    between atoms: C_3  and  C_9 
ROOT
ATOM      1  C   UNL d   1     -41.653-122.492 -51.122  0.00  0.00     0.104 A 
ATOM      2  C   UNL d   1     -41.444-122.566 -52.532  0.00  0.00     0.059 A 
ATOM      3  C   UNL d   1     -41.690-122.917 -51.826  0.00  0.00     0.018 A 
ATOM      4  C   UNL d   1     -41.371-121.718 -51.119  0.00  0.00     0.012 A 
ATOM      5  C   UNL d   1     -41.161-121.791 -52.533  0.00  0.00     0.005 A 
ATOM      6  C   UNL d   1     -41.125-121.367 -51.825  0.00  0.00     0.001 A 
ATOM      7  C   UNL d   1     -41.334-121.294 -50.416  0.00  0.00     0.001 C 
ENDROOT
BRANCH   1   8
ATOM      8  S   UNL d   1     -41.897-122.839 -50.423  0.00  0.00     0.272 S 
ATOM      9  O   UNL d   1     -42.769-122.481 -50.549  0.00  0.00    -0.200 OA
ATOM     10  O   UNL d   1     -41.139-123.151 -50.313  0.00  0.00    -0.200 OA
BRANCH   8  11
ATOM     11  N   UNL d   1     -42.201-123.167 -49.724  0.00  0.00    -0.225 N 
ATOM     12  C   UNL d   1     -43.000-123.330 -49.668  0.00  0.00     0.118 A 
ATOM     13  C   UNL d   1     -43.303-123.657 -48.973  0.00  0.00     0.142 A 
ATOM     14  O   UNL d   1     -42.797-123.817 -48.336  0.00  0.00    -0.300 OA
ATOM     15  C   UNL d   1     -41.990-123.649 -48.403  0.00  0.00     0.142 A 
ATOM     16  C   UNL d   1     -41.686-123.321 -49.101  0.00  0.00     0.118 A 
ENDBRANCH   8  11
ENDBRANCH   1   8
BRANCH   2  17
ATOM     17  C   UNL d   1     -41.478-122.985 -53.241  0.00  0.00     0.280 C 
ATOM     18  N   UNL d   1     -41.860-122.660 -53.891  0.00  0.00    -0.195 N 
ATOM     19  N   UNL d   1     -41.941-123.001 -54.625  0.00  0.00    -0.163 NA
ATOM     20  C   UNL d   1     -42.230-121.921 -53.905  0.00  0.00     0.088 A 
ATOM     21  C   UNL d   1     -42.362-122.485 -55.112  0.00  0.00     0.103 A 
ATOM     22  C   UNL d   1     -42.567-122.612 -55.899  0.00  0.00     0.022 C 
ATOM     23  C   UNL d   1     -42.540-121.816 -54.664  0.00  0.00     0.040 A 
ATOM     24  C   UNL d   1     -42.282-121.384 -53.277  0.00  0.00     0.021 C 
ATOM     25  O   UNL d   1     -41.129-123.727 -53.296  0.00  0.00    -0.265 OA
ENDBRANCH   2  17
TORSDOF 3
ENDMDL
MODEL 2
REMARK VINA RESULT:      -2.9      1.128      4.354
REMARK  3 active torsions:
REMARK  status: ('A' for Active; 'I' for Inactive)
REMARK    1  A    between atoms: C_5  and  S_1 
REMARK    2  A    between atoms: N_7  and  S_1 
REMARK       I    between atoms: N_2  and  C_3 
REMARK    3  A    between atoms: C_3  and  C_9 
ROOT
ATOM      1  C   UNL d   1     -41.602-122.149 -52.415  0.00  0.00     0.104 A 
ATOM      2  C   UNL d   1     -41.546-122.583 -51.057  0.00  0.00     0.059 A 
ATOM      3  C   UNL d   1     -41.693-122.743 -51.853  0.00  0.00     0.018 A 
ATOM      4  C   UNL d   1     -41.365-121.394 -52.186  0.00  0.00     0.012 A 
ATOM      5  C   UNL d   1     -41.308-121.827 -50.824  0.00  0.00     0.005 A 
ATOM      6  C   UNL d   1     -41.218-121.233 -51.389  0.00  0.00     0.001 A 
ATOM      7  C   UNL d   1     -41.274-120.800 -52.748  0.00  0.00     0.001 C 
ENDROOT
BRANCH   1   8
ATOM      8  S   UNL d   1     -41.747-122.308 -53.204  0.00  0.00     0.272 S 
ATOM      9  O   UNL d   1     -41.145-123.043 -53.167  0.00  0.00    -0.200 OA
ATOM     10  O   UNL d   1     -42.271-121.669 -53.237  0.00  0.00    -0.200 OA
BRANCH   8  11
ATOM     11  N   UNL d   1     -41.855-122.517 -54.000  0.00  0.00    -0.225 N 
ATOM     12  C   UNL d   1     -42.158-121.968 -54.524  0.00  0.00     0.118 A 
ATOM     13  C   UNL d   1     -42.265-122.174 -55.316  0.00  0.00     0.142 A 
ATOM     14  O   UNL d   1     -42.067-122.937 -55.576  0.00  0.00    -0.300 OA
ATOM     15  C   UNL d   1     -41.762-123.485 -55.037  0.00  0.00     0.142 A 
ATOM     16  C   UNL d   1     -41.653-123.277 -54.241  0.00  0.00     0.118 A 
ENDBRANCH   8  11
ENDBRANCH   1   8
BRANCH   2  17
ATOM     17  C   UNL d   1     -41.634-123.172 -50.488  0.00  0.00     0.280 C 
ATOM     18  N   UNL d   1     -42.231-123.114 -49.927  0.00  0.00    -0.195 N 
ATOM     19  N   UNL d   1     -42.390-123.646 -49.333  0.00  0.00    -0.163 NA
ATOM     20  C   UNL d   1     -42.775-122.494 -49.874  0.00  0.00     0.088 A 
ATOM     21  C   UNL d   1     -43.035-123.373 -48.897  0.00  0.00     0.103 A 
ATOM     22  C   UNL d   1     -43.379-123.742 -48.247  0.00  0.00     0.022 C 
ATOM     23  C   UNL d   1     -43.272-122.659 -49.234  0.00  0.00     0.040 A 
ATOM     24  C   UNL d   1     -42.818-121.832 -50.369  0.00  0.00     0.021 C 
ATOM     25  O   UNL d   1     -41.125-123.817 -50.483  0.00  0.00    -0.265 OA
ENDBRANCH   2  17
TORSDOF 3
ENDMDL
