MODEL 1
REMARK VINA RESULT:      67.0      0.000      0.000
REMARK  6 active torsions:
REMARK  status: ('A' for Active; 'I' for Inactive)
REMARK    1  A    between atoms: C_6  and  N_1 
REMARK    2  A    between atoms: C_7  and  C_4 
REMARK    3  A    between atoms: C_8  and  C_6 
REMARK    4  A    between atoms: C_11  and  C_6 
REMARK    5  A    between atoms: C_13  and  C_7 
REMARK    6  A    between atoms: C_16  and  C_11 
ROOT
ATOM      1  N   UNL d   1     -55.648-100.047 -44.244  0.00  0.00    -0.254 N 
ATOM      2  C   UNL d   1     -55.122 -99.699 -43.823  0.00  0.00     0.153 A 
ATOM      3  C   UNL d   1     -55.626-100.847 -44.083  0.00  0.00     0.272 A 
ATOM      4  C   UNL d   1     -55.044-100.984 -43.525  0.00  0.00     0.088 A 
ATOM      5  S   UNL d   1     -54.730-100.258 -43.366  0.00  0.00    -0.054 SA
ATOM      6  S   UNL d   1     -55.021 -98.854 -43.880  0.00  0.00    -0.052 SA
ATOM      7  O   UNL d   1     -56.113-101.449 -44.423  0.00  0.00    -0.266 OA
ENDROOT
BRANCH   1   8
ATOM      8  C   UNL d   1     -56.160 -99.651 -44.784  0.00  0.00     0.132 C 
BRANCH   8   9
ATOM      9  C   UNL d   1     -56.202 -99.869 -45.561  0.00  0.00     0.228 C 
ATOM     10  O   UNL d   1     -56.544-100.584 -45.794  0.00  0.00    -0.643 OA
ATOM     11  O   UNL d   1     -55.889 -99.351 -46.138  0.00  0.00    -0.643 OA
ENDBRANCH   8   9
BRANCH   8  12
ATOM     12  C   UNL d   1     -56.633 -99.008 -44.473  0.00  0.00     0.024 C 
BRANCH  12  13
ATOM     13  C   UNL d   1     -57.446 -99.097 -44.460  0.00  0.00     0.002 A 
ATOM     14  C   UNL d   1     -57.840 -99.481 -45.034  0.00  0.00     0.000 A 
ATOM     15  C   UNL d   1     -58.675 -99.556 -44.994  0.00  0.00     0.000 A 
ATOM     16  C   UNL d   1     -59.054 -99.237 -44.376  0.00  0.00     0.000 A 
ATOM     17  C   UNL d   1     -58.668 -98.838 -43.774  0.00  0.00     0.000 A 
ATOM     18  C   UNL d   1     -57.838 -98.760 -43.809  0.00  0.00     0.000 A 
ENDBRANCH  12  13
ENDBRANCH   8  12
ENDBRANCH   1   8
BRANCH   4  19
ATOM     19  C   UNL d   1     -54.873-101.737 -43.236  0.00  0.00     0.011 C 
BRANCH  19  20
ATOM     20  C   UNL d   1     -54.846-101.912 -42.406  0.00  0.00     0.001 A 
ATOM     21  C   UNL d   1     -54.754-101.302 -41.880  0.00  0.00     0.001 A 
ATOM     22  C   UNL d   1     -54.723-101.444 -41.063  0.00  0.00     0.007 A 
ATOM     23  C   UNL d   1     -54.794-102.267 -40.791  0.00  0.00     0.035 A 
ATOM     24  C   UNL d   1     -54.886-102.859 -41.349  0.00  0.00     0.007 A 
ATOM     25 BR   UNL d   1     -54.767-102.446 -39.964  0.00  0.00    -0.049 Br
ATOM     26  C   UNL d   1     -54.912-102.691 -42.140  0.00  0.00     0.001 A 
ENDBRANCH  19  20
ENDBRANCH   4  19
TORSDOF 6
ENDMDL
