MODEL 1
REMARK VINA RESULT:      70.4      0.000      0.000
REMARK  3 active torsions:
REMARK  status: ('A' for Active; 'I' for Inactive)
REMARK    1  A    between atoms: C_11  and  N_2 
REMARK    2  A    between atoms: N_7  and  C_4 
REMARK    3  A    between atoms: C_14  and  C_11 
ROOT
ATOM      1  C   UNL d   1      59.416  49.698  51.533  0.00  0.00     0.091 A 
ATOM      2  N   UNL d   1      58.295  49.700  50.651  0.00  0.00    -0.211 N 
ATOM      3  C   UNL d   1      58.602  49.698  51.413  0.00  0.00     0.170 A 
ATOM      4  C   UNL d   1      59.716  49.696  52.298  0.00  0.00     0.154 A 
ATOM      5  N   UNL d   1      58.805  49.703  50.005  0.00  0.00    -0.162 NA
ATOM      6  C   UNL d   1      59.623  49.703  50.126  0.00  0.00     0.127 A 
ATOM      7  N   UNL d   1      58.090  49.695  52.058  0.00  0.00    -0.205 NA
ATOM      8  N   UNL d   1      59.215  49.694  52.941  0.00  0.00    -0.206 NA
ATOM      9  C   UNL d   1      58.394  49.693  52.820  0.00  0.00     0.202 A 
ENDROOT
BRANCH   2  10
ATOM     10  C   UNL d   1      57.479  49.699  50.530  0.00  0.00     0.102 C 
BRANCH  10  11
ATOM     11  C   UNL d   1      57.126  49.091  50.109  0.00  0.00     0.019 A 
ATOM     12  C   UNL d   1      57.172  48.317  50.383  0.00  0.00     0.002 A 
ATOM     13  C   UNL d   1      56.817  47.707  49.958  0.00  0.00     0.011 A 
ATOM     14  C   UNL d   1      56.414  47.874  49.259  0.00  0.00     0.058 A 
ATOM     15  C   UNL d   1      56.366  48.659  48.982  0.00  0.00     0.011 A 
ATOM     16 CL   UNL d   1      56.054  47.263  48.829  0.00  0.00    -0.082 Cl
ATOM     17  C   UNL d   1      56.722  49.262  49.409  0.00  0.00     0.002 A 
ENDBRANCH  10  11
ENDBRANCH   2  10
BRANCH   4  18
ATOM     18  N   UNL d   1      60.560  49.697  52.422  0.00  0.00    -0.289 N 
ATOM     19  C   UNL d   1      61.081  49.697  51.738  0.00  0.00     0.082 A 
ATOM     20  C   UNL d   1      61.930  49.698  51.853  0.00  0.00     0.019 A 
ATOM     21  C   UNL d   1      62.249  49.698  52.651  0.00  0.00     0.003 A 
ATOM     22  C   UNL d   1      61.733  49.698  53.327  0.00  0.00     0.019 A 
ATOM     23  C   UNL d   1      63.094  49.699  52.766  0.00  0.00     0.000 C 
ATOM     24  C   UNL d   1      60.888  49.697  53.211  0.00  0.00     0.082 A 
ENDBRANCH   4  18
TORSDOF 3
ENDMDL
