MODEL 1
REMARK VINA RESULT:      -2.8      0.000      0.000
REMARK  1 active torsions:
REMARK  status: ('A' for Active; 'I' for Inactive)
REMARK    1  A    between atoms: C_6  and  C_1 
ROOT
ATOM      1  C   UNL d   1      30.707  16.665 -24.077  0.00  0.00     0.085 A 
ATOM      2  C   UNL d   1      30.421  17.231 -24.614  0.00  0.00     0.137 A 
ATOM      3  S   UNL d   1      29.633  17.215 -24.599  0.00  0.00    -0.066 SA
ATOM      4  C   UNL d   1      30.054  16.303 -23.734  0.00  0.00     0.013 A 
ATOM      5  C   UNL d   1      29.386  16.645 -24.059  0.00  0.00     0.031 A 
ATOM      6  N   UNL d   1      30.888  17.739 -25.095  0.00  0.00    -0.141 N 
ATOM      7  C   UNL d   1      29.976  15.706 -23.169  0.00  0.00     0.001 A 
ATOM      8  C   UNL d   1      28.638  16.391 -23.819  0.00  0.00     0.006 A 
ATOM      9  C   UNL d   1      29.228  15.453 -22.929  0.00  0.00     0.000 A 
ATOM     10  C   UNL d   1      28.560  15.795 -23.254  0.00  0.00     0.001 A 
ENDROOT
BRANCH   1  11
ATOM     11  C   UNL d   1      31.532  16.485 -23.906  0.00  0.00     0.299 C 
ATOM     12  O   UNL d   1      31.927  16.890 -23.292  0.00  0.00    -0.264 OA
ATOM     13  N   UNL d   1      31.939  15.911 -24.348  0.00  0.00    -0.102 N 
ENDBRANCH   1  11
TORSDOF 1
ENDMDL
MODEL 2
REMARK VINA RESULT:      -2.7      0.960      1.545
REMARK  1 active torsions:
REMARK  status: ('A' for Active; 'I' for Inactive)
REMARK    1  A    between atoms: C_6  and  C_1 
ROOT
ATOM      1  C   UNL d   1      30.817  16.454 -23.901  0.00  0.00     0.085 A 
ATOM      2  C   UNL d   1      31.040  15.795 -23.449  0.00  0.00     0.137 A 
ATOM      3  S   UNL d   1      30.390  15.454 -23.163  0.00  0.00    -0.066 SA
ATOM      4  C   UNL d   1      29.997  16.500 -23.877  0.00  0.00     0.013 A 
ATOM      5  C   UNL d   1      29.731  15.878 -23.417  0.00  0.00     0.031 A 
ATOM      6  N   UNL d   1      31.827  15.529 -23.315  0.00  0.00    -0.141 N 
ATOM      7  C   UNL d   1      29.453  17.025 -24.210  0.00  0.00     0.001 A 
ATOM      8  C   UNL d   1      28.921  15.778 -23.291  0.00  0.00     0.006 A 
ATOM      9  C   UNL d   1      28.644  16.925 -24.084  0.00  0.00     0.000 A 
ATOM     10  C   UNL d   1      28.378  16.302 -23.625  0.00  0.00     0.001 A 
ENDROOT
BRANCH   1  11
ATOM     11  C   UNL d   1      31.340  16.996 -24.320  0.00  0.00     0.299 C 
ATOM     12  O   UNL d   1      31.600  17.696 -23.946  0.00  0.00    -0.264 OA
ATOM     13  N   UNL d   1      31.588  16.827 -25.095  0.00  0.00    -0.102 N 
ENDBRANCH   1  11
TORSDOF 1
ENDMDL
MODEL 3
REMARK VINA RESULT:      -2.7      1.705      2.366
REMARK  1 active torsions:
REMARK  status: ('A' for Active; 'I' for Inactive)
REMARK    1  A    between atoms: C_6  and  C_1 
ROOT
ATOM      1  C   UNL d   1      29.234  16.564 -24.099  0.00  0.00     0.085 A 
ATOM      2  C   UNL d   1      29.347  17.198 -24.623  0.00  0.00     0.137 A 
ATOM      3  S   UNL d   1      30.121  17.324 -24.702  0.00  0.00    -0.066 SA
ATOM      4  C   UNL d   1      29.977  16.308 -23.861  0.00  0.00     0.013 A 
ATOM      5  C   UNL d   1      30.529  16.781 -24.237  0.00  0.00     0.031 A 
ATOM      6  N   UNL d   1      28.741  17.637 -25.008  0.00  0.00    -0.141 N 
ATOM      7  C   UNL d   1      30.229  15.708 -23.353  0.00  0.00     0.001 A 
ATOM      8  C   UNL d   1      31.335  16.654 -24.105  0.00  0.00     0.006 A 
ATOM      9  C   UNL d   1      31.034  15.582 -23.222  0.00  0.00     0.000 A 
ATOM     10  C   UNL d   1      31.586  16.055 -23.597  0.00  0.00     0.001 A 
ENDROOT
BRANCH   1  11
ATOM     11  C   UNL d   1      28.480  16.230 -23.845  0.00  0.00     0.299 C 
ATOM     12  O   UNL d   1      28.177  15.552 -24.227  0.00  0.00    -0.264 OA
ATOM     13  N   UNL d   1      28.054  16.578 -23.223  0.00  0.00    -0.102 N 
ENDBRANCH   1  11
TORSDOF 1
ENDMDL
MODEL 4
REMARK VINA RESULT:      -2.5      6.468      7.167
REMARK  1 active torsions:
REMARK  status: ('A' for Active; 'I' for Inactive)
REMARK    1  A    between atoms: C_6  and  C_1 
ROOT
ATOM      1  C   UNL d   1      32.553  22.280 -21.342  0.00  0.00     0.085 A 
ATOM      2  C   UNL d   1      32.389  23.018 -21.000  0.00  0.00     0.137 A 
ATOM      3  S   UNL d   1      32.520  23.579 -21.537  0.00  0.00    -0.066 SA
ATOM      4  C   UNL d   1      32.793  22.418 -22.116  0.00  0.00     0.013 A 
ATOM      5  C   UNL d   1      32.772  23.226 -22.237  0.00  0.00     0.031 A 
ATOM      6  N   UNL d   1      32.125  23.151 -20.212  0.00  0.00    -0.141 N 
ATOM      7  C   UNL d   1      33.027  21.917 -22.729  0.00  0.00     0.001 A 
ATOM      8  C   UNL d   1      32.986  23.536 -22.972  0.00  0.00     0.006 A 
ATOM      9  C   UNL d   1      33.241  22.227 -23.464  0.00  0.00     0.000 A 
ATOM     10  C   UNL d   1      33.220  23.036 -23.585  0.00  0.00     0.001 A 
ENDROOT
BRANCH   1  11
ATOM     11  C   UNL d   1      32.489  21.507 -20.964  0.00  0.00     0.299 C 
ATOM     12  O   UNL d   1      31.759  21.100 -20.973  0.00  0.00    -0.264 OA
ATOM     13  N   UNL d   1      33.147  21.165 -20.591  0.00  0.00    -0.102 N 
ENDBRANCH   1  11
TORSDOF 1
ENDMDL
MODEL 5
REMARK VINA RESULT:      -2.4      7.273      7.842
REMARK  1 active torsions:
REMARK  status: ('A' for Active; 'I' for Inactive)
REMARK    1  A    between atoms: C_6  and  C_1 
ROOT
ATOM      1  C   UNL d   1      32.542  22.619 -20.939  0.00  0.00     0.085 A 
ATOM      2  C   UNL d   1      32.712  21.807 -20.973  0.00  0.00     0.137 A 
ATOM      3  S   UNL d   1      32.989  21.580 -20.270  0.00  0.00    -0.066 SA
ATOM      4  C   UNL d   1      32.728  22.877 -20.182  0.00  0.00     0.013 A 
ATOM      5  C   UNL d   1      33.006  22.230 -19.766  0.00  0.00     0.031 A 
ATOM      6  N   UNL d   1      32.609  21.306 -21.640  0.00  0.00    -0.141 N 
ATOM      7  C   UNL d   1      32.683  23.614 -19.812  0.00  0.00     0.001 A 
ATOM      8  C   UNL d   1      33.240  22.319 -18.978  0.00  0.00     0.006 A 
ATOM      9  C   UNL d   1      32.916  23.702 -19.026  0.00  0.00     0.000 A 
ATOM     10  C   UNL d   1      33.194  23.056 -18.609  0.00  0.00     0.001 A 
ENDROOT
BRANCH   1  11
ATOM     11  C   UNL d   1      32.228  23.109 -21.576  0.00  0.00     0.299 C 
ATOM     12  O   UNL d   1      31.411  23.282 -21.603  0.00  0.00    -0.264 OA
ATOM     13  N   UNL d   1      32.732  23.410 -22.163  0.00  0.00    -0.102 N 
ENDBRANCH   1  11
TORSDOF 1
ENDMDL
MODEL 6
REMARK VINA RESULT:      -2.4      1.746      2.878
REMARK  1 active torsions:
REMARK  status: ('A' for Active; 'I' for Inactive)
REMARK    1  A    between atoms: C_6  and  C_1 
ROOT
ATOM      1  C   UNL d   1      31.491  16.907 -24.038  0.00  0.00     0.085 A 
ATOM      2  C   UNL d   1      31.113  17.348 -24.631  0.00  0.00     0.137 A 
ATOM      3  S   UNL d   1      31.471  18.048 -24.689  0.00  0.00    -0.066 SA
ATOM      4  C   UNL d   1      32.096  17.372 -23.735  0.00  0.00     0.013 A 
ATOM      5  C   UNL d   1      32.084  18.082 -24.140  0.00  0.00     0.031 A 
ATOM      6  N   UNL d   1      30.459  17.096 -25.097  0.00  0.00    -0.141 N 
ATOM      7  C   UNL d   1      32.660  17.246 -23.144  0.00  0.00     0.001 A 
ATOM      8  C   UNL d   1      32.635  18.669 -23.956  0.00  0.00     0.006 A 
ATOM      9  C   UNL d   1      33.210  17.833 -22.960  0.00  0.00     0.000 A 
ATOM     10  C   UNL d   1      33.198  18.543 -23.366  0.00  0.00     0.001 A 
ENDROOT
BRANCH   1  11
ATOM     11  C   UNL d   1      31.291  16.108 -23.780  0.00  0.00     0.299 C 
ATOM     12  O   UNL d   1      31.697  15.453 -24.102  0.00  0.00    -0.264 OA
ATOM     13  N   UNL d   1      30.696  15.985 -23.213  0.00  0.00    -0.102 N 
ENDBRANCH   1  11
TORSDOF 1
ENDMDL
MODEL 7
REMARK VINA RESULT:      -2.2      1.622      2.075
REMARK  1 active torsions:
REMARK  status: ('A' for Active; 'I' for Inactive)
REMARK    1  A    between atoms: C_6  and  C_1 
ROOT
ATOM      1  C   UNL d   1      32.195  17.747 -23.932  0.00  0.00     0.085 A 
ATOM      2  C   UNL d   1      32.269  18.221 -24.610  0.00  0.00     0.137 A 
ATOM      3  S   UNL d   1      31.669  18.058 -25.095  0.00  0.00    -0.066 SA
ATOM      4  C   UNL d   1      31.521  17.287 -24.028  0.00  0.00     0.013 A 
ATOM      5  C   UNL d   1      31.194  17.481 -24.752  0.00  0.00     0.031 A 
ATOM      6  N   UNL d   1      32.877  18.782 -24.760  0.00  0.00    -0.141 N 
ATOM      7  C   UNL d   1      31.159  16.716 -23.554  0.00  0.00     0.001 A 
ATOM      8  C   UNL d   1      30.503  17.104 -25.004  0.00  0.00     0.006 A 
ATOM      9  C   UNL d   1      30.469  16.340 -23.806  0.00  0.00     0.000 A 
ATOM     10  C   UNL d   1      30.142  16.534 -24.530  0.00  0.00     0.001 A 
ENDROOT
BRANCH   1  11
ATOM     11  C   UNL d   1      32.723  17.733 -23.250  0.00  0.00     0.299 C 
ATOM     12  O   UNL d   1      33.234  17.083 -23.133  0.00  0.00    -0.264 OA
ATOM     13  N   UNL d   1      32.727  18.363 -22.708  0.00  0.00    -0.102 N 
ENDBRANCH   1  11
TORSDOF 1
ENDMDL
MODEL 8
REMARK VINA RESULT:      -2.0      1.912      2.599
REMARK  1 active torsions:
REMARK  status: ('A' for Active; 'I' for Inactive)
REMARK    1  A    between atoms: C_6  and  C_1 
ROOT
ATOM      1  C   UNL d   1      31.864  17.525 -24.153  0.00  0.00     0.085 A 
ATOM      2  C   UNL d   1      31.082  17.289 -24.304  0.00  0.00     0.137 A 
ATOM      3  S   UNL d   1      30.991  16.547 -24.054  0.00  0.00    -0.066 SA
ATOM      4  C   UNL d   1      32.245  16.890 -23.797  0.00  0.00     0.013 A 
ATOM      5  C   UNL d   1      31.702  16.282 -23.736  0.00  0.00     0.031 A 
ATOM      6  N   UNL d   1      30.483  17.758 -24.664  0.00  0.00    -0.141 N 
ATOM      7  C   UNL d   1      33.016  16.781 -23.520  0.00  0.00     0.001 A 
ATOM      8  C   UNL d   1      31.928  15.563 -23.397  0.00  0.00     0.006 A 
ATOM      9  C   UNL d   1      33.241  16.063 -23.182  0.00  0.00     0.000 A 
ATOM     10  C   UNL d   1      32.697  15.455 -23.120  0.00  0.00     0.001 A 
ENDROOT
BRANCH   1  11
ATOM     11  C   UNL d   1      32.217  18.290 -24.331  0.00  0.00     0.299 C 
ATOM     12  O   UNL d   1      32.284  18.868 -23.731  0.00  0.00    -0.264 OA
ATOM     13  N   UNL d   1      32.492  18.459 -25.097  0.00  0.00    -0.102 N 
ENDBRANCH   1  11
TORSDOF 1
ENDMDL
