MODEL 1
REMARK VINA RESULT:      -6.7      0.000      0.000
REMARK  6 active torsions:
REMARK  status: ('A' for Active; 'I' for Inactive)
REMARK    1  A    between atoms: C_4  and  C_1 
REMARK    2  A    between atoms: C_3  and  N_8 
REMARK       I    between atoms: N_8  and  C_4 
REMARK    3  A    between atoms: C_14  and  C_6 
REMARK    4  A    between atoms: C_15  and  C_10 
REMARK    5  A    between atoms: C_12  and  C_16 
REMARK    6  A    between atoms: C_19  and  C_15 
ROOT
ATOM      1  C   UNL d   1     -41.495-122.738 -51.761  0.00  0.00     0.083 A 
ATOM      2  C   UNL d   1     -41.557-123.124 -52.485  0.00  0.00     0.032 A 
ATOM      3  C   UNL d   1     -41.506-122.557 -53.082  0.00  0.00     0.100 A 
ATOM      4  C   UNL d   1     -41.405-121.931 -51.909  0.00  0.00     0.105 A 
ATOM      5  O   UNL d   1     -41.412-121.818 -52.726  0.00  0.00    -0.307 OA
ATOM      6  C   UNL d   1     -41.323-121.338 -51.342  0.00  0.00     0.027 C 
ENDROOT
BRANCH   1   7
ATOM      7  C   UNL d   1     -41.518-123.097 -51.018  0.00  0.00     0.283 C 
ATOM      8  N   UNL d   1     -41.921-122.729 -50.397  0.00  0.00    -0.181 NA
ATOM      9  O   UNL d   1     -41.142-123.816 -50.897  0.00  0.00    -0.265 OA
BRANCH   8  10
ATOM     10  C   UNL d   1     -41.945-123.087 -49.654  0.00  0.00     0.216 A 
ATOM     11  N   UNL d   1     -41.384-123.001 -49.062  0.00  0.00    -0.200 NA
ATOM     12  C   UNL d   1     -41.627-123.454 -48.417  0.00  0.00     0.175 A 
ATOM     13  N   UNL d   1     -42.341-123.817 -48.617  0.00  0.00    -0.187 NA
ATOM     14  S   UNL d   1     -42.533-123.587 -49.384  0.00  0.00     0.054 SA
BRANCH  12  15
ATOM     15  C   UNL d   1     -41.229-123.530 -47.701  0.00  0.00     0.082 C 
BRANCH  15  16
ATOM     16  C   UNL d   1     -41.541-123.182 -47.019  0.00  0.00     0.199 C 
ATOM     17  O   UNL d   1     -42.231-123.490 -46.684  0.00  0.00    -0.286 OA
ATOM     18  C   UNL d   1     -41.166-122.534 -46.676  0.00  0.00     0.045 C 
ENDBRANCH  15  16
ENDBRANCH  12  15
ENDBRANCH   8  10
ENDBRANCH   1   7
BRANCH   3  19
ATOM     19  C   UNL d   1     -41.543-122.706 -53.895  0.00  0.00     0.023 A 
ATOM     20  C   UNL d   1     -41.941-122.184 -54.399  0.00  0.00     0.006 A 
ATOM     21  C   UNL d   1     -41.974-122.339 -55.207  0.00  0.00     0.071 A 
ATOM     22  C   UNL d   1     -41.611-123.011 -55.516  0.00  0.00     0.004 A 
ATOM     23  C   UNL d   1     -41.213-123.533 -55.012  0.00  0.00     0.000 A 
ATOM     24  C   UNL d   1     -41.179-123.379 -54.202  0.00  0.00     0.002 A 
BRANCH  21  25
ATOM     25  C   UNL d   1     -42.372-121.818 -55.710  0.00  0.00     0.419 C 
ATOM     26  F   UNL d   1     -41.950-121.244 -56.128  0.00  0.00    -0.166 F 
ATOM     27  F   UNL d   1     -43.191-121.870 -55.795  0.00  0.00    -0.166 F 
ATOM     28  F   UNL d   1     -41.579-121.603 -55.766  0.00  0.00    -0.166 F 
ENDBRANCH  21  25
ENDBRANCH   3  19
TORSDOF 6
ENDMDL
MODEL 2
REMARK VINA RESULT:      -4.8      3.403      6.160
REMARK  6 active torsions:
REMARK  status: ('A' for Active; 'I' for Inactive)
REMARK    1  A    between atoms: C_4  and  C_1 
REMARK    2  A    between atoms: C_3  and  N_8 
REMARK       I    between atoms: N_8  and  C_4 
REMARK    3  A    between atoms: C_14  and  C_6 
REMARK    4  A    between atoms: C_15  and  C_10 
REMARK    5  A    between atoms: C_12  and  C_16 
REMARK    6  A    between atoms: C_19  and  C_15 
ROOT
ATOM      1  C   UNL d   1     -42.043-122.627 -51.127  0.00  0.00     0.083 A 
ATOM      2  C   UNL d   1     -41.649-122.933 -50.473  0.00  0.00     0.032 A 
ATOM      3  C   UNL d   1     -42.143-122.855 -49.817  0.00  0.00     0.100 A 
ATOM      4  C   UNL d   1     -42.783-122.358 -50.876  0.00  0.00     0.105 A 
ATOM      5  O   UNL d   1     -42.845-122.499 -50.067  0.00  0.00    -0.307 OA
ATOM      6  C   UNL d   1     -43.360-122.009 -51.350  0.00  0.00     0.027 C 
ENDROOT
BRANCH   1   7
ATOM      7  C   UNL d   1     -41.749-122.594 -51.897  0.00  0.00     0.283 C 
ATOM      8  N   UNL d   1     -42.052-123.104 -52.475  0.00  0.00    -0.181 NA
ATOM      9  O   UNL d   1     -41.160-122.058 -52.090  0.00  0.00    -0.265 OA
BRANCH   8  10
ATOM     10  C   UNL d   1     -41.759-123.073 -53.244  0.00  0.00     0.216 A 
ATOM     11  N   UNL d   1     -41.889-122.467 -53.783  0.00  0.00    -0.200 NA
ATOM     12  C   UNL d   1     -41.495-122.662 -54.481  0.00  0.00     0.175 A 
ATOM     13  N   UNL d   1     -41.123-123.390 -54.367  0.00  0.00    -0.187 NA
ATOM     14  S   UNL d   1     -41.289-123.640 -53.601  0.00  0.00     0.054 SA
BRANCH  12  15
ATOM     15  C   UNL d   1     -41.477-122.211 -55.169  0.00  0.00     0.082 C 
BRANCH  15  16
ATOM     16  C   UNL d   1     -42.179-121.906 -55.479  0.00  0.00     0.199 C 
ATOM     17  O   UNL d   1     -42.484-121.199 -55.178  0.00  0.00    -0.286 OA
ATOM     18  C   UNL d   1     -42.573-122.303 -56.083  0.00  0.00     0.045 C 
ENDBRANCH  15  16
ENDBRANCH  12  15
ENDBRANCH   8  10
ENDBRANCH   1   7
BRANCH   3  19
ATOM     19  C   UNL d   1     -41.964-123.092 -49.046  0.00  0.00     0.023 A 
ATOM     20  C   UNL d   1     -42.436-122.847 -48.411  0.00  0.00     0.006 A 
ATOM     21  C   UNL d   1     -42.251-123.088 -47.646  0.00  0.00     0.071 A 
ATOM     22  C   UNL d   1     -41.598-123.572 -47.508  0.00  0.00     0.004 A 
ATOM     23  C   UNL d   1     -41.126-123.817 -48.143  0.00  0.00     0.000 A 
ATOM     24  C   UNL d   1     -41.310-123.577 -48.910  0.00  0.00     0.002 A 
BRANCH  21  25
ATOM     25  C   UNL d   1     -42.722-122.844 -47.012  0.00  0.00     0.419 C 
ATOM     26  F   UNL d   1     -43.308-123.345 -46.715  0.00  0.00    -0.166 F 
ATOM     27  F   UNL d   1     -42.608-122.099 -46.676  0.00  0.00    -0.166 F 
ATOM     28  F   UNL d   1     -42.990-123.600 -47.197  0.00  0.00    -0.166 F 
ENDBRANCH  21  25
ENDBRANCH   3  19
TORSDOF 6
ENDMDL
