MODEL 1
REMARK VINA RESULT:      25.9      0.000      0.000
REMARK  5 active torsions:
REMARK  status: ('A' for Active; 'I' for Inactive)
REMARK    1  A    between atoms: C_2  and  C_1 
REMARK    2  A    between atoms: C_3  and  C_1 
REMARK    3  A    between atoms: C_4  and  C_1 
REMARK    4  A    between atoms: C_5  and  C_2 
REMARK    5  A    between atoms: C_13  and  C_5 
ROOT
ATOM      1  C   UNL d   1      13.474  12.923  -3.524  0.00  0.00     0.029 C 
ENDROOT
BRANCH   1   2
ATOM      2  C   UNL d   1      13.403  12.547  -2.796  0.00  0.00     0.044 C 
BRANCH   2   3
ATOM      3  C   UNL d   1      14.022  12.089  -2.511  0.00  0.00     0.196 C 
ATOM      4  O   UNL d   1      14.420  11.794  -2.936  0.00  0.00    -0.287 OA
BRANCH   3   5
ATOM      5  C   UNL d   1      14.158  11.988  -1.687  0.00  0.00     0.039 A 
ATOM      6  C   UNL d   1      13.507  11.959  -1.187  0.00  0.00     0.003 A 
ATOM      7  C   UNL d   1      13.637  11.859  -0.367  0.00  0.00     0.000 A 
ATOM      8  C   UNL d   1      14.407  11.790  -0.068  0.00  0.00     0.000 A 
ATOM      9  C   UNL d   1      15.035  11.821  -0.592  0.00  0.00     0.000 A 
ATOM     10  C   UNL d   1      14.922  11.919  -1.392  0.00  0.00     0.003 A 
ENDBRANCH   3   5
ENDBRANCH   2   3
ENDBRANCH   1   2
BRANCH   1  11
ATOM     11  C   UNL d   1      13.416  12.484  -4.224  0.00  0.00     0.100 A 
ATOM     12  O   UNL d   1      14.095  12.306  -4.652  0.00  0.00    -0.305 OA
ATOM     13  C   UNL d   1      13.865  11.870  -5.312  0.00  0.00     0.123 A 
ATOM     14  C   UNL d   1      13.045  11.784  -5.283  0.00  0.00     0.029 A 
ATOM     15  C   UNL d   1      12.769  12.157  -4.621  0.00  0.00     0.027 A 
ENDBRANCH   1  11
BRANCH   1  16
ATOM     16  C   UNL d   1      13.603  13.744  -3.545  0.00  0.00     0.041 A 
ATOM     17  C   UNL d   1      13.259  14.211  -4.132  0.00  0.00     0.196 A 
ATOM     18  O   UNL d   1      12.775  13.874  -4.716  0.00  0.00    -0.287 OA
ATOM     19  C   UNL d   1      13.401  15.037  -4.137  0.00  0.00     0.042 A 
ATOM     20  C   UNL d   1      13.879  15.381  -3.562  0.00  0.00     0.003 A 
ATOM     21  C   UNL d   1      14.223  14.914  -2.976  0.00  0.00     0.000 A 
ATOM     22  C   UNL d   1      14.088  14.102  -2.964  0.00  0.00     0.003 A 
ENDBRANCH   1  16
TORSDOF 5
ENDMDL
