MODEL 1
REMARK VINA RESULT:      59.5      0.000      0.000
REMARK  7 active torsions:
REMARK  status: ('A' for Active; 'I' for Inactive)
REMARK    1  A    between atoms: C_11  and  C_3 
REMARK    2  A    between atoms: C_10  and  C_4 
REMARK    3  A    between atoms: O_15  and  C_10 
REMARK    4  A    between atoms: N_14  and  C_11 
REMARK    5  A    between atoms: C_20  and  N_14 
REMARK    6  A    between atoms: C_22  and  O_15 
REMARK    7  A    between atoms: C_21  and  C_20 
ROOT
ATOM      1  C   UNL d   1      58.816  49.546  51.338  0.00  0.00     0.035 A 
ATOM      2  C   UNL d   1      58.607  49.566  50.541  0.00  0.00     0.100 A 
ATOM      3  C   UNL d   1      58.230  49.569  51.916  0.00  0.00     0.060 A 
ATOM      4  C   UNL d   1      59.644  49.505  51.409  0.00  0.00     0.088 A 
ATOM      5  O   UNL d   1      59.329  49.535  50.107  0.00  0.00    -0.307 OA
ATOM      6  C   UNL d   1      59.955  49.498  50.647  0.00  0.00     0.105 A 
ATOM      7  C   UNL d   1      57.433  49.611  51.696  0.00  0.00     0.197 A 
ATOM      8  C   UNL d   1      57.820  49.607  50.324  0.00  0.00     0.026 A 
ATOM      9  C   UNL d   1      57.233  49.630  50.902  0.00  0.00     0.041 A 
ATOM     10  O   UNL d   1      56.836  49.634  52.284  0.00  0.00    -0.286 OA
ATOM     11  C   UNL d   1      60.793  49.458  50.454  0.00  0.00     0.027 C 
ATOM     12  C   UNL d   1      57.605  49.626  49.520  0.00  0.00     0.002 A 
ATOM     13  C   UNL d   1      56.431  49.672  50.676  0.00  0.00     0.003 A 
ATOM     14  C   UNL d   1      56.234  49.690  49.885  0.00  0.00     0.000 A 
ATOM     15  C   UNL d   1      56.821  49.667  49.307  0.00  0.00     0.000 A 
ENDROOT
BRANCH   3  16
ATOM     16  C   UNL d   1      58.471  49.548  52.715  0.00  0.00     0.102 C 
BRANCH  16  17
ATOM     17  N   UNL d   1      57.903  49.705  53.316  0.00  0.00    -0.239 NA
BRANCH  17  18
ATOM     18  C   UNL d   1      57.979  49.327  54.057  0.00  0.00     0.144 C 
BRANCH  18  19
ATOM     19  C   UNL d   1      57.336  48.926  54.370  0.00  0.00     0.255 C 
ATOM     20  O   UNL d   1      57.272  48.791  55.182  0.00  0.00    -0.281 OA
ENDBRANCH  18  19
ENDBRANCH  17  18
ENDBRANCH  16  17
ENDBRANCH   3  16
BRANCH   4  21
ATOM     21  C   UNL d   1      60.121  49.473  52.120  0.00  0.00     0.302 C 
ATOM     22  O   UNL d   1      59.789  49.235  52.835  0.00  0.00    -0.259 OA
BRANCH  21  23
ATOM     23  O   UNL d   1      60.904  49.684  52.071  0.00  0.00    -0.271 OA
BRANCH  23  24
ATOM     24  C   UNL d   1      61.502  49.157  52.271  0.00  0.00     0.126 C 
ATOM     25  C   UNL d   1      62.229  49.442  52.550  0.00  0.00     0.029 C 
ENDBRANCH  23  24
ENDBRANCH  21  23
ENDBRANCH   4  21
TORSDOF 7
ENDMDL
MODEL 2
REMARK VINA RESULT:      61.4      1.568      4.277
REMARK  7 active torsions:
REMARK  status: ('A' for Active; 'I' for Inactive)
REMARK    1  A    between atoms: C_11  and  C_3 
REMARK    2  A    between atoms: C_10  and  C_4 
REMARK    3  A    between atoms: O_15  and  C_10 
REMARK    4  A    between atoms: N_14  and  C_11 
REMARK    5  A    between atoms: C_20  and  N_14 
REMARK    6  A    between atoms: C_22  and  O_15 
REMARK    7  A    between atoms: C_21  and  C_20 
ROOT
ATOM      1  C   UNL d   1      59.239  49.705  51.027  0.00  0.00     0.035 A 
ATOM      2  C   UNL d   1      59.151  49.705  51.847  0.00  0.00     0.100 A 
ATOM      3  C   UNL d   1      59.994  49.706  50.696  0.00  0.00     0.060 A 
ATOM      4  C   UNL d   1      58.491  49.705  50.666  0.00  0.00     0.088 A 
ATOM      5  O   UNL d   1      58.321  49.704  51.994  0.00  0.00    -0.307 OA
ATOM      6  C   UNL d   1      57.928  49.704  51.267  0.00  0.00     0.105 A 
ATOM      7  C   UNL d   1      60.660  49.707  51.186  0.00  0.00     0.197 A 
ATOM      8  C   UNL d   1      59.810  49.706  52.330  0.00  0.00     0.026 A 
ATOM      9  C   UNL d   1      60.565  49.707  52.000  0.00  0.00     0.041 A 
ATOM     10  O   UNL d   1      61.428  49.708  50.850  0.00  0.00    -0.286 OA
ATOM     11  C   UNL d   1      57.075  49.703  51.148  0.00  0.00     0.027 C 
ATOM     12  C   UNL d   1      59.725  49.706  53.159  0.00  0.00     0.002 A 
ATOM     13  C   UNL d   1      61.235  49.707  52.498  0.00  0.00     0.003 A 
ATOM     14  C   UNL d   1      61.137  49.707  53.307  0.00  0.00     0.000 A 
ATOM     15  C   UNL d   1      60.383  49.706  53.637  0.00  0.00     0.000 A 
ENDROOT
BRANCH   3  16
ATOM     16  C   UNL d   1      60.052  49.706  49.864  0.00  0.00     0.102 C 
BRANCH  16  17
ATOM     17  N   UNL d   1      60.116  48.970  49.461  0.00  0.00    -0.239 NA
BRANCH  17  18
ATOM     18  C   UNL d   1      60.500  48.331  49.838  0.00  0.00     0.144 C 
BRANCH  18  19
ATOM     19  C   UNL d   1      61.253  48.115  49.593  0.00  0.00     0.255 C 
ATOM     20  O   UNL d   1      61.526  47.342  49.688  0.00  0.00    -0.281 OA
ENDBRANCH  18  19
ENDBRANCH  17  18
ENDBRANCH  16  17
ENDBRANCH   3  16
BRANCH   4  21
ATOM     21  C   UNL d   1      58.297  49.705  49.831  0.00  0.00     0.302 C 
ATOM     22  O   UNL d   1      58.895  49.703  49.265  0.00  0.00    -0.259 OA
BRANCH  21  23
ATOM     23  O   UNL d   1      57.515  49.706  49.614  0.00  0.00    -0.271 OA
BRANCH  23  24
ATOM     24  C   UNL d   1      57.260  49.331  48.928  0.00  0.00     0.126 C 
ATOM     25  C   UNL d   1      56.593  48.839  48.948  0.00  0.00     0.029 C 
ENDBRANCH  23  24
ENDBRANCH  21  23
ENDBRANCH   4  21
TORSDOF 7
ENDMDL
