MODEL 1
REMARK VINA RESULT:      -5.9      0.000      0.000
REMARK  4 active torsions:
REMARK  status: ('A' for Active; 'I' for Inactive)
REMARK    1  A    between atoms: N_7  and  C_6 
REMARK       I    between atoms: C_8  and  N_7 
REMARK    2  A    between atoms: C_14  and  C_8 
REMARK    3  A    between atoms: C_16  and  C_14 
REMARK    4  A    between atoms: C_17  and  C_16 
ROOT
ATOM      1  C   UNL d   1      58.772  -1.865  29.529  0.00  0.00     0.269 A 
ATOM      2  N   UNL d   1      59.344  -2.324  29.130  0.00  0.00    -0.239 N 
ATOM      3  C   UNL d   1      59.045  -1.084  29.518  0.00  0.00     0.079 A 
ATOM      4  C   UNL d   1      59.941  -1.835  28.887  0.00  0.00     0.267 A 
ATOM      5  C   UNL d   1      59.768  -1.066  29.121  0.00  0.00     0.063 A 
ATOM      6  C   UNL d   1      58.723  -0.392  29.821  0.00  0.00     0.089 A 
ATOM      7  O   UNL d   1      58.072  -2.131  29.870  0.00  0.00    -0.267 OA
ATOM      8  O   UNL d   1      60.625  -2.075  28.464  0.00  0.00    -0.267 OA
ATOM      9  C   UNL d   1      59.302  -3.139  29.007  0.00  0.00     0.105 C 
ATOM     10  C   UNL d   1      60.168  -0.356  29.026  0.00  0.00     0.005 A 
ATOM     11  C   UNL d   1      59.124   0.323  29.727  0.00  0.00     0.019 A 
ATOM     12  C   UNL d   1      59.847   0.341  29.330  0.00  0.00     0.002 A 
ENDROOT
BRANCH   6  13
ATOM     13  N   UNL d   1      58.000  -0.411  30.219  0.00  0.00    -0.208 NA
ATOM     14  C   UNL d   1      57.880   0.079  30.869  0.00  0.00     0.279 C 
ATOM     15  O   UNL d   1      58.474   0.586  31.127  0.00  0.00    -0.265 OA
BRANCH  14  16
ATOM     16  C   UNL d   1      57.157   0.060  31.267  0.00  0.00     0.062 C 
BRANCH  16  17
ATOM     17  C   UNL d   1      57.123   0.251  32.069  0.00  0.00     0.005 C 
BRANCH  17  18
ATOM     18  C   UNL d   1      56.451   0.062  32.509  0.00  0.00     0.000 A 
ATOM     19  C   UNL d   1      56.237  -0.737  32.613  0.00  0.00     0.000 A 
ATOM     20  C   UNL d   1      55.565  -0.926  33.053  0.00  0.00     0.000 A 
ATOM     21  C   UNL d   1      55.108  -0.316  33.390  0.00  0.00     0.000 A 
ATOM     22  C   UNL d   1      55.325   0.461  33.283  0.00  0.00     0.000 A 
ATOM     23  C   UNL d   1      55.996   0.650  32.842  0.00  0.00     0.000 A 
ENDBRANCH  17  18
ENDBRANCH  16  17
ENDBRANCH  14  16
ENDBRANCH   6  13
TORSDOF 4
ENDMDL
MODEL 2
REMARK VINA RESULT:      -3.5      9.068      9.364
REMARK  4 active torsions:
REMARK  status: ('A' for Active; 'I' for Inactive)
REMARK    1  A    between atoms: N_7  and  C_6 
REMARK       I    between atoms: C_8  and  N_7 
REMARK    2  A    between atoms: C_14  and  C_8 
REMARK    3  A    between atoms: C_16  and  C_14 
REMARK    4  A    between atoms: C_17  and  C_16 
ROOT
ATOM      1  C   UNL d   1      58.051  -9.810  30.667  0.00  0.00     0.269 A 
ATOM      2  N   UNL d   1      57.771  -9.805  29.880  0.00  0.00    -0.239 N 
ATOM      3  C   UNL d   1      58.877  -9.809  30.625  0.00  0.00     0.079 A 
ATOM      4  C   UNL d   1      58.409  -9.801  29.382  0.00  0.00     0.267 A 
ATOM      5  C   UNL d   1      59.098  -9.804  29.830  0.00  0.00     0.063 A 
ATOM      6  C   UNL d   1      59.450  -9.813  31.213  0.00  0.00     0.089 A 
ATOM      7  O   UNL d   1      57.598  -9.814  31.353  0.00  0.00    -0.267 OA
ATOM      8  O   UNL d   1      58.372  -9.796  28.543  0.00  0.00    -0.267 OA
ATOM      9  C   UNL d   1      56.978  -9.803  29.653  0.00  0.00     0.105 C 
ATOM     10  C   UNL d   1      59.893  -9.802  29.624  0.00  0.00     0.005 A 
ATOM     11  C   UNL d   1      60.249  -9.811  31.008  0.00  0.00     0.019 A 
ATOM     12  C   UNL d   1      60.471  -9.806  30.213  0.00  0.00     0.002 A 
ENDROOT
BRANCH   6  13
ATOM     13  N   UNL d   1      59.228  -9.818  32.008  0.00  0.00    -0.208 NA
ATOM     14  C   UNL d   1      59.791  -9.670  32.590  0.00  0.00     0.279 C 
ATOM     15  O   UNL d   1      60.574  -9.516  32.385  0.00  0.00    -0.265 OA
BRANCH  14  16
ATOM     16  C   UNL d   1      59.570  -9.675  33.384  0.00  0.00     0.062 C 
BRANCH  16  17
ATOM     17  C   UNL d   1      59.982  -9.213  33.930  0.00  0.00     0.005 C 
BRANCH  17  18
ATOM     18  C   UNL d   1      59.683  -9.111  34.692  0.00  0.00     0.000 A 
ATOM     19  C   UNL d   1      59.724  -8.361  35.055  0.00  0.00     0.000 A 
ATOM     20  C   UNL d   1      59.425  -8.259  35.817  0.00  0.00     0.000 A 
ATOM     21  C   UNL d   1      59.085  -8.906  36.216  0.00  0.00     0.000 A 
ATOM     22  C   UNL d   1      59.049  -9.634  35.854  0.00  0.00     0.000 A 
ATOM     23  C   UNL d   1      59.348  -9.736  35.092  0.00  0.00     0.000 A 
ENDBRANCH  17  18
ENDBRANCH  16  17
ENDBRANCH  14  16
ENDBRANCH   6  13
TORSDOF 4
ENDMDL
