MODEL 1
REMARK VINA RESULT:      -0.4      0.000      0.000
REMARK  6 active torsions:
REMARK  status: ('A' for Active; 'I' for Inactive)
REMARK       I    between atoms: C_6  and  N_1 
REMARK    1  A    between atoms: C_10  and  C_2 
REMARK    2  A    between atoms: O_16  and  C_8 
REMARK    3  A    between atoms: O_14  and  C_10 
REMARK    4  A    between atoms: O_17  and  C_11 
REMARK    5  A    between atoms: C_15  and  O_14 
REMARK    6  A    between atoms: C_24  and  C_18 
ROOT
ATOM      1  N   UNL d   1      33.083  22.364 -23.586  0.00  0.00    -0.271 N 
ATOM      2  C   UNL d   1      33.149  21.797 -22.990  0.00  0.00     0.092 A 
ATOM      3  C   UNL d   1      33.124  22.028 -22.206  0.00  0.00     0.020 A 
ATOM      4  C   UNL d   1      33.033  22.824 -22.010  0.00  0.00     0.005 A 
ATOM      5  C   UNL d   1      33.191  21.463 -21.614  0.00  0.00     0.028 A 
ATOM      6  C   UNL d   1      33.108  22.132 -24.388  0.00  0.00     0.265 C 
ATOM      7  C   UNL d   1      32.991  23.160 -23.390  0.00  0.00     0.083 A 
ATOM      8  C   UNL d   1      33.166  21.692 -20.822  0.00  0.00     0.116 A 
ATOM      9  C   UNL d   1      33.008  23.055 -21.222  0.00  0.00     0.026 A 
ATOM     10  C   UNL d   1      33.074  22.488 -20.626  0.00  0.00     0.116 A 
ATOM     11  C   UNL d   1      32.966  23.390 -22.597  0.00  0.00     0.019 A 
ATOM     12  O   UNL d   1      33.200  21.336 -24.585  0.00  0.00    -0.267 OA
ATOM     13  C   UNL d   1      33.042  22.698 -24.976  0.00  0.00     0.066 C 
ENDROOT
BRANCH   2  14
ATOM     14  C   UNL d   1      33.241  21.001 -23.186  0.00  0.00     0.140 C 
BRANCH  14  15
ATOM     15  O   UNL d   1      32.632  20.465 -23.031  0.00  0.00    -0.304 OA
BRANCH  15  16
ATOM     16  C   UNL d   1      32.660  19.706 -23.352  0.00  0.00     0.100 A 
ATOM     17  C   UNL d   1      32.153  19.502 -23.970  0.00  0.00     0.025 A 
ATOM     18  C   UNL d   1      32.180  18.742 -24.292  0.00  0.00     0.002 A 
ATOM     19  C   UNL d   1      32.714  18.187 -23.995  0.00  0.00     0.000 A 
ATOM     20  C   UNL d   1      33.221  18.392 -23.376  0.00  0.00     0.002 A 
ATOM     21  C   UNL d   1      33.194  19.152 -23.055  0.00  0.00     0.025 A 
BRANCH  19  22
ATOM     22  C   UNL d   1      32.741  17.428 -24.316  0.00  0.00     0.000 C 
ATOM     23  C   UNL d   1      32.047  17.053 -24.547  0.00  0.00     0.000 C 
ENDBRANCH  19  22
ENDBRANCH  15  16
ENDBRANCH  14  15
ENDBRANCH   2  14
BRANCH   8  24
ATOM     24  O   UNL d   1      33.233  21.119 -20.222  0.00  0.00    -0.326 OA
ATOM     25  C   UNL d   1      32.559  20.730 -19.946  0.00  0.00     0.181 C 
ENDBRANCH   8  24
BRANCH  10  26
ATOM     26  O   UNL d   1      33.049  22.725 -19.826  0.00  0.00    -0.326 OA
ATOM     27  C   UNL d   1      33.226  23.506 -19.626  0.00  0.00     0.181 C 
ENDBRANCH  10  26
TORSDOF 6
ENDMDL
MODEL 2
REMARK VINA RESULT:       0.4      2.789      6.088
REMARK  6 active torsions:
REMARK  status: ('A' for Active; 'I' for Inactive)
REMARK       I    between atoms: C_6  and  N_1 
REMARK    1  A    between atoms: C_10  and  C_2 
REMARK    2  A    between atoms: O_16  and  C_8 
REMARK    3  A    between atoms: O_14  and  C_10 
REMARK    4  A    between atoms: O_17  and  C_11 
REMARK    5  A    between atoms: C_15  and  O_14 
REMARK    6  A    between atoms: C_24  and  C_18 
ROOT
ATOM      1  N   UNL d   1      31.919  16.196 -24.543  0.00  0.00    -0.271 N 
ATOM      2  C   UNL d   1      31.408  16.806 -24.324  0.00  0.00     0.092 A 
ATOM      3  C   UNL d   1      30.610  16.747 -24.490  0.00  0.00     0.020 A 
ATOM      4  C   UNL d   1      30.314  16.081 -24.877  0.00  0.00     0.005 A 
ATOM      5  C   UNL d   1      30.104  17.355 -24.271  0.00  0.00     0.028 A 
ATOM      6  C   UNL d   1      32.735  16.252 -24.375  0.00  0.00     0.265 C 
ATOM      7  C   UNL d   1      31.623  15.530 -24.930  0.00  0.00     0.083 A 
ATOM      8  C   UNL d   1      29.297  17.299 -24.437  0.00  0.00     0.116 A 
ATOM      9  C   UNL d   1      29.512  16.022 -25.044  0.00  0.00     0.026 A 
ATOM     10  C   UNL d   1      29.002  16.633 -24.824  0.00  0.00     0.116 A 
ATOM     11  C   UNL d   1      30.816  15.474 -25.097  0.00  0.00     0.019 A 
ATOM     12  O   UNL d   1      33.031  16.918 -23.989  0.00  0.00    -0.267 OA
ATOM     13  C   UNL d   1      33.238  15.645 -24.595  0.00  0.00     0.066 C 
ENDROOT
BRANCH   2  14
ATOM     14  C   UNL d   1      31.704  17.472 -23.937  0.00  0.00     0.140 C 
BRANCH  14  15
ATOM     15  O   UNL d   1      31.861  18.161 -24.364  0.00  0.00    -0.304 OA
BRANCH  15  16
ATOM     16  C   UNL d   1      32.206  18.810 -23.988  0.00  0.00     0.100 A 
ATOM     17  C   UNL d   1      32.015  18.980 -23.203  0.00  0.00     0.025 A 
ATOM     18  C   UNL d   1      32.360  19.629 -22.828  0.00  0.00     0.002 A 
ATOM     19  C   UNL d   1      32.895  20.107 -23.236  0.00  0.00     0.000 A 
ATOM     20  C   UNL d   1      33.084  19.936 -24.022  0.00  0.00     0.002 A 
ATOM     21  C   UNL d   1      32.740  19.287 -24.397  0.00  0.00     0.025 A 
BRANCH  19  22
ATOM     22  C   UNL d   1      33.239  20.756 -22.860  0.00  0.00     0.000 C 
ATOM     23  C   UNL d   1      33.029  20.944 -22.089  0.00  0.00     0.000 C 
ENDBRANCH  19  22
ENDBRANCH  15  16
ENDBRANCH  14  15
ENDBRANCH   2  14
BRANCH   8  24
ATOM     24  O   UNL d   1      28.784  17.915 -24.215  0.00  0.00    -0.326 OA
ATOM     25  C   UNL d   1      28.233  17.794 -23.612  0.00  0.00     0.181 C 
ENDBRANCH   8  24
BRANCH  10  26
ATOM     26  O   UNL d   1      28.187  16.571 -24.995  0.00  0.00    -0.326 OA
ATOM     27  C   UNL d   1      27.806  15.843 -24.909  0.00  0.00     0.181 C 
ENDBRANCH  10  26
TORSDOF 6
ENDMDL
MODEL 3
REMARK VINA RESULT:       1.3      1.316      2.763
REMARK  6 active torsions:
REMARK  status: ('A' for Active; 'I' for Inactive)
REMARK       I    between atoms: C_6  and  N_1 
REMARK    1  A    between atoms: C_10  and  C_2 
REMARK    2  A    between atoms: O_16  and  C_8 
REMARK    3  A    between atoms: O_14  and  C_10 
REMARK    4  A    between atoms: O_17  and  C_11 
REMARK    5  A    between atoms: C_15  and  O_14 
REMARK    6  A    between atoms: C_24  and  C_18 
ROOT
ATOM      1  N   UNL d   1      33.230  20.592 -21.409  0.00  0.00    -0.271 N 
ATOM      2  C   UNL d   1      33.234  20.620 -22.234  0.00  0.00     0.092 A 
ATOM      3  C   UNL d   1      33.232  21.343 -22.615  0.00  0.00     0.020 A 
ATOM      4  C   UNL d   1      33.225  22.043 -22.179  0.00  0.00     0.005 A 
ATOM      5  C   UNL d   1      33.236  21.368 -23.436  0.00  0.00     0.028 A 
ATOM      6  C   UNL d   1      33.233  19.855 -21.015  0.00  0.00     0.265 C 
ATOM      7  C   UNL d   1      33.223  21.292 -20.973  0.00  0.00     0.083 A 
ATOM      8  C   UNL d   1      33.234  22.096 -23.825  0.00  0.00     0.116 A 
ATOM      9  C   UNL d   1      33.223  22.769 -22.564  0.00  0.00     0.026 A 
ATOM     10  C   UNL d   1      33.227  22.796 -23.389  0.00  0.00     0.116 A 
ATOM     11  C   UNL d   1      33.221  22.021 -21.362  0.00  0.00     0.019 A 
ATOM     12  O   UNL d   1      33.239  19.155 -21.451  0.00  0.00    -0.267 OA
ATOM     13  C   UNL d   1      33.228  19.833 -20.197  0.00  0.00     0.066 C 
ENDROOT
BRANCH   2  14
ATOM     14  C   UNL d   1      33.241  19.919 -22.670  0.00  0.00     0.140 C 
BRANCH  14  15
ATOM     15  O   UNL d   1      32.533  19.602 -22.951  0.00  0.00    -0.304 OA
BRANCH  15  16
ATOM     16  C   UNL d   1      32.539  18.900 -23.385  0.00  0.00     0.100 A 
ATOM     17  C   UNL d   1      31.998  18.302 -23.210  0.00  0.00     0.025 A 
ATOM     18  C   UNL d   1      32.005  17.601 -23.645  0.00  0.00     0.002 A 
ATOM     19  C   UNL d   1      32.552  17.497 -24.254  0.00  0.00     0.000 A 
ATOM     20  C   UNL d   1      33.093  18.096 -24.429  0.00  0.00     0.002 A 
ATOM     21  C   UNL d   1      33.087  18.798 -23.994  0.00  0.00     0.025 A 
BRANCH  19  22
ATOM     22  C   UNL d   1      32.559  16.796 -24.688  0.00  0.00     0.000 C 
ATOM     23  C   UNL d   1      31.907  16.295 -24.672  0.00  0.00     0.000 C 
ENDBRANCH  19  22
ENDBRANCH  15  16
ENDBRANCH  14  15
ENDBRANCH   2  14
BRANCH   8  24
ATOM     24  O   UNL d   1      33.238  22.122 -24.657  0.00  0.00    -0.326 OA
ATOM     25  C   UNL d   1      32.912  21.500 -25.090  0.00  0.00     0.181 C 
ENDBRANCH   8  24
BRANCH  10  26
ATOM     26  O   UNL d   1      33.224  23.535 -23.777  0.00  0.00    -0.326 OA
ATOM     27  C   UNL d   1      32.669  23.682 -24.371  0.00  0.00     0.181 C 
ENDBRANCH  10  26
TORSDOF 6
ENDMDL
