MODEL 1
REMARK VINA RESULT:      53.3      0.000      0.000
REMARK  2 active torsions:
REMARK  status: ('A' for Active; 'I' for Inactive)
REMARK    1  A    between atoms: C_2  and  C_1 
REMARK       I    between atoms: N_3  and  C_1 
REMARK    2  A    between atoms: C_5  and  N_4 
ROOT
ATOM      1  C   UNL d   1      13.812  12.326  -2.189  0.00  0.00     0.267 C 
ATOM      2  N   UNL d   1      13.959  13.054  -2.548  0.00  0.00    -0.269 N 
ATOM      3  N   UNL d   1      14.255  14.512  -3.266  0.00  0.00    -0.301 N 
ATOM      4  O   UNL d   1      13.317  11.779  -2.553  0.00  0.00    -0.267 OA
ATOM      5  C   UNL d   1      13.613  13.238  -3.271  0.00  0.00     0.102 A 
ATOM      6  C   UNL d   1      14.456  13.603  -2.183  0.00  0.00     0.102 A 
ATOM      7  C   UNL d   1      14.604  14.331  -2.542  0.00  0.00     0.100 A 
ATOM      8  C   UNL d   1      13.760  13.966  -3.630  0.00  0.00     0.100 A 
ENDROOT
BRANCH   1   9
ATOM      9  C   UNL d   1      14.160  12.144  -1.465  0.00  0.00     0.084 A 
ATOM     10  C   UNL d   1      13.687  11.990  -0.805  0.00  0.00     0.145 A 
ATOM     11  F   UNL d   1      12.866  12.018  -0.869  0.00  0.00    -0.204 F 
ATOM     12  C   UNL d   1      14.040  11.807  -0.076  0.00  0.00     0.030 A 
ATOM     13  C   UNL d   1      14.858  11.779  -0.014  0.00  0.00     0.002 A 
ATOM     14  C   UNL d   1      15.331  11.933  -0.674  0.00  0.00     0.000 A 
ATOM     15  C   UNL d   1      14.987  12.115  -1.397  0.00  0.00     0.007 A 
ENDBRANCH   1   9
BRANCH   3  16
ATOM     16  C   UNL d   1      14.404  15.243  -3.625  0.00  0.00     0.064 A 
ATOM     17  C   UNL d   1      14.594  15.895  -3.165  0.00  0.00     0.016 A 
ATOM     18  C   UNL d   1      14.742  16.625  -3.525  0.00  0.00     0.001 A 
ATOM     19  C   UNL d   1      14.638  15.825  -2.345  0.00  0.00     0.002 C 
ATOM     20  C   UNL d   1      14.699  16.699  -4.343  0.00  0.00     0.000 A 
ATOM     21  C   UNL d   1      14.508  16.043  -4.803  0.00  0.00     0.002 A 
ATOM     22  C   UNL d   1      14.847  17.427  -4.701  0.00  0.00     0.000 C 
ATOM     23  C   UNL d   1      14.360  15.313  -4.444  0.00  0.00     0.018 A 
ENDBRANCH   3  16
TORSDOF 2
ENDMDL
MODEL 2
REMARK VINA RESULT:      53.9      2.230      3.988
REMARK  2 active torsions:
REMARK  status: ('A' for Active; 'I' for Inactive)
REMARK    1  A    between atoms: C_2  and  C_1 
REMARK       I    between atoms: N_3  and  C_1 
REMARK    2  A    between atoms: C_5  and  N_4 
ROOT
ATOM      1  C   UNL d   1      15.349  15.076  -0.675  0.00  0.00     0.267 C 
ATOM      2  N   UNL d   1      14.982  14.606  -1.245  0.00  0.00    -0.269 N 
ATOM      3  N   UNL d   1      14.248  13.665  -2.386  0.00  0.00    -0.301 N 
ATOM      4  O   UNL d   1      15.695  14.730  -0.014  0.00  0.00    -0.267 OA
ATOM      5  C   UNL d   1      14.960  13.788  -1.156  0.00  0.00     0.102 A 
ATOM      6  C   UNL d   1      14.635  14.953  -1.908  0.00  0.00     0.102 A 
ATOM      7  C   UNL d   1      14.268  14.483  -2.478  0.00  0.00     0.100 A 
ATOM      8  C   UNL d   1      14.593  13.318  -1.726  0.00  0.00     0.100 A 
ENDROOT
BRANCH   1   9
ATOM      9  C   UNL d   1      15.371  15.895  -0.766  0.00  0.00     0.084 A 
ATOM     10  C   UNL d   1      16.005  16.330  -0.461  0.00  0.00     0.145 A 
ATOM     11  F   UNL d   1      16.617  15.945  -0.066  0.00  0.00    -0.204 F 
ATOM     12  C   UNL d   1      16.023  17.154  -0.555  0.00  0.00     0.030 A 
ATOM     13  C   UNL d   1      15.413  17.535  -0.949  0.00  0.00     0.002 A 
ATOM     14  C   UNL d   1      14.779  17.101  -1.254  0.00  0.00     0.000 A 
ATOM     15  C   UNL d   1      14.756  16.285  -1.164  0.00  0.00     0.007 A 
ENDBRANCH   1   9
BRANCH   3  16
ATOM     16  C   UNL d   1      13.879  13.193  -2.958  0.00  0.00     0.064 A 
ATOM     17  C   UNL d   1      13.800  12.385  -2.834  0.00  0.00     0.016 A 
ATOM     18  C   UNL d   1      13.432  11.914  -3.406  0.00  0.00     0.001 A 
ATOM     19  C   UNL d   1      14.086  12.042  -2.142  0.00  0.00     0.002 C 
ATOM     20  C   UNL d   1      13.145  12.252  -4.098  0.00  0.00     0.000 A 
ATOM     21  C   UNL d   1      13.226  13.063  -4.221  0.00  0.00     0.002 A 
ATOM     22  C   UNL d   1      12.778  11.782  -4.668  0.00  0.00     0.000 C 
ATOM     23  C   UNL d   1      13.594  13.534  -3.650  0.00  0.00     0.018 A 
ENDBRANCH   3  16
TORSDOF 2
ENDMDL
MODEL 3
REMARK VINA RESULT:      55.4      1.696      2.913
REMARK  2 active torsions:
REMARK  status: ('A' for Active; 'I' for Inactive)
REMARK    1  A    between atoms: C_2  and  C_1 
REMARK       I    between atoms: N_3  and  C_1 
REMARK    2  A    between atoms: C_5  and  N_4 
ROOT
ATOM      1  C   UNL d   1      13.863  12.465  -2.703  0.00  0.00     0.267 C 
ATOM      2  N   UNL d   1      14.129  13.180  -2.390  0.00  0.00    -0.269 N 
ATOM      3  N   UNL d   1      14.663  14.611  -1.761  0.00  0.00    -0.301 N 
ATOM      4  O   UNL d   1      13.887  11.780  -2.249  0.00  0.00    -0.267 OA
ATOM      5  C   UNL d   1      14.421  13.212  -1.621  0.00  0.00     0.102 A 
ATOM      6  C   UNL d   1      14.105  13.867  -2.845  0.00  0.00     0.102 A 
ATOM      7  C   UNL d   1      14.371  14.582  -2.531  0.00  0.00     0.100 A 
ATOM      8  C   UNL d   1      14.688  13.927  -1.307  0.00  0.00     0.100 A 
ENDROOT
BRANCH   1   9
ATOM      9  C   UNL d   1      13.571  12.435  -3.473  0.00  0.00     0.084 A 
ATOM     10  C   UNL d   1      13.066  13.030  -3.749  0.00  0.00     0.145 A 
ATOM     11  F   UNL d   1      12.855  13.654  -3.254  0.00  0.00    -0.204 F 
ATOM     12  C   UNL d   1      12.774  12.997  -4.525  0.00  0.00     0.030 A 
ATOM     13  C   UNL d   1      12.986  12.375  -5.016  0.00  0.00     0.002 A 
ATOM     14  C   UNL d   1      13.490  11.780  -4.741  0.00  0.00     0.000 A 
ATOM     15  C   UNL d   1      13.782  11.808  -3.974  0.00  0.00     0.007 A 
ENDBRANCH   1   9
BRANCH   3  16
ATOM     16  C   UNL d   1      14.930  15.329  -1.446  0.00  0.00     0.064 A 
ATOM     17  C   UNL d   1      15.210  15.359  -0.675  0.00  0.00     0.016 A 
ATOM     18  C   UNL d   1      15.477  16.076  -0.361  0.00  0.00     0.001 A 
ATOM     19  C   UNL d   1      15.225  14.677  -0.213  0.00  0.00     0.002 C 
ATOM     20  C   UNL d   1      15.463  16.759  -0.819  0.00  0.00     0.000 A 
ATOM     21  C   UNL d   1      15.183  16.726  -1.593  0.00  0.00     0.002 A 
ATOM     22  C   UNL d   1      15.730  17.473  -0.505  0.00  0.00     0.000 C 
ATOM     23  C   UNL d   1      14.915  16.010  -1.907  0.00  0.00     0.018 A 
ENDBRANCH   3  16
TORSDOF 2
ENDMDL
