MODEL 1
REMARK VINA RESULT:       5.1      0.000      0.000
REMARK  6 active torsions:
REMARK  status: ('A' for Active; 'I' for Inactive)
REMARK    1  A    between atoms: C_11  and  N_2 
REMARK    2  A    between atoms: O_15  and  C_9 
REMARK    3  A    between atoms: C_10  and  O_14 
REMARK    4  A    between atoms: C_16  and  C_11 
REMARK    5  A    between atoms: O_14  and  C_17 
REMARK    6  A    between atoms: C_17  and  C_16 
ROOT
ATOM      1  C   UNL d   1     -41.472-122.518 -51.885  0.00  0.00     0.087 C 
ENDROOT
BRANCH   1   2
ATOM      2  N   UNL d   1     -41.490-121.994 -52.525  0.00  0.00    -0.251 N 
ATOM      3  C   UNL d   1     -41.424-121.168 -52.519  0.00  0.00     0.378 A 
ATOM      4  O   UNL d   1     -41.476-120.904 -53.307  0.00  0.00    -0.258 OA
ATOM      5  O   UNL d   1     -41.324-120.693 -51.853  0.00  0.00    -0.237 OA
ATOM      6  C   UNL d   1     -41.574-121.564 -53.795  0.00  0.00     0.121 A 
ATOM      7  C   UNL d   1     -41.657-121.651 -54.619  0.00  0.00     0.026 A 
ATOM      8  C   UNL d   1     -41.582-122.238 -53.312  0.00  0.00     0.092 A 
ATOM      9  C   UNL d   1     -41.747-122.398 -54.952  0.00  0.00     0.002 A 
ATOM     10  C   UNL d   1     -41.755-123.070 -54.466  0.00  0.00     0.002 A 
ATOM     11  C   UNL d   1     -41.673-122.990 -53.651  0.00  0.00     0.020 A 
ATOM     12  C   UNL d   1     -41.845-123.818 -54.798  0.00  0.00     0.000 C 
ENDBRANCH   1   2
BRANCH   1  13
ATOM     13  C   UNL d   1     -41.155-122.286 -51.164  0.00  0.00     0.046 C 
BRANCH  13  14
ATOM     14  C   UNL d   1     -41.149-122.805 -50.521  0.00  0.00     0.124 C 
BRANCH  14  15
ATOM     15  O   UNL d   1     -41.849-123.093 -50.216  0.00  0.00    -0.303 OA
BRANCH  15  16
ATOM     16  C   UNL d   1     -41.836-123.302 -49.421  0.00  0.00     0.122 A 
ATOM     17  C   UNL d   1     -42.527-123.583 -49.056  0.00  0.00     0.117 A 
ATOM     18  C   UNL d   1     -42.513-123.792 -48.258  0.00  0.00     0.026 A 
ATOM     19  C   UNL d   1     -41.811-123.719 -47.832  0.00  0.00     0.002 A 
ATOM     20  C   UNL d   1     -41.128-123.440 -48.199  0.00  0.00     0.002 A 
ATOM     21  C   UNL d   1     -41.141-123.231 -48.994  0.00  0.00     0.027 A 
BRANCH  17  22
ATOM     22  O   UNL d   1     -43.223-123.652 -49.491  0.00  0.00    -0.326 OA
ATOM     23  C   UNL d   1     -43.956-123.817 -49.162  0.00  0.00     0.181 C 
ENDBRANCH  17  22
ENDBRANCH  15  16
ENDBRANCH  14  15
ENDBRANCH  13  14
ENDBRANCH   1  13
TORSDOF 6
ENDMDL
MODEL 2
REMARK VINA RESULT:       5.4      1.322      5.132
REMARK  6 active torsions:
REMARK  status: ('A' for Active; 'I' for Inactive)
REMARK    1  A    between atoms: C_11  and  N_2 
REMARK    2  A    between atoms: O_15  and  C_9 
REMARK    3  A    between atoms: C_10  and  O_14 
REMARK    4  A    between atoms: C_16  and  C_11 
REMARK    5  A    between atoms: O_14  and  C_17 
REMARK    6  A    between atoms: C_17  and  C_16 
ROOT
ATOM      1  C   UNL d   1     -42.467-122.587 -50.012  0.00  0.00     0.087 C 
ENDROOT
BRANCH   1   2
ATOM      2  N   UNL d   1     -42.062-123.003 -49.421  0.00  0.00    -0.251 N 
ATOM      3  C   UNL d   1     -41.455-123.559 -49.505  0.00  0.00     0.378 A 
ATOM      4  O   UNL d   1     -41.237-123.814 -48.743  0.00  0.00    -0.258 OA
ATOM      5  O   UNL d   1     -41.123-123.816 -50.216  0.00  0.00    -0.237 OA
ATOM      6  C   UNL d   1     -41.710-123.416 -48.193  0.00  0.00     0.121 A 
ATOM      7  C   UNL d   1     -41.750-123.437 -47.361  0.00  0.00     0.026 A 
ATOM      8  C   UNL d   1     -42.220-122.914 -48.612  0.00  0.00     0.092 A 
ATOM      9  C   UNL d   1     -42.291-122.965 -46.959  0.00  0.00     0.002 A 
ATOM     10  C   UNL d   1     -42.799-122.465 -47.381  0.00  0.00     0.002 A 
ATOM     11  C   UNL d   1     -42.764-122.440 -48.203  0.00  0.00     0.020 A 
ATOM     12  C   UNL d   1     -43.340-121.993 -46.979  0.00  0.00     0.000 C 
ENDBRANCH   1   2
BRANCH   1  13
ATOM     13  C   UNL d   1     -42.059-122.100 -50.533  0.00  0.00     0.046 C 
BRANCH  13  14
ATOM     14  C   UNL d   1     -41.804-122.388 -51.265  0.00  0.00     0.124 C 
BRANCH  14  15
ATOM     15  O   UNL d   1     -42.227-122.224 -51.943  0.00  0.00    -0.303 OA
BRANCH  15  16
ATOM     16  C   UNL d   1     -41.946-122.567 -52.635  0.00  0.00     0.122 A 
ATOM     17  C   UNL d   1     -41.987-122.148 -53.350  0.00  0.00     0.117 A 
ATOM     18  C   UNL d   1     -41.704-122.493 -54.045  0.00  0.00     0.026 A 
ATOM     19  C   UNL d   1     -41.382-123.253 -54.018  0.00  0.00     0.002 A 
ATOM     20  C   UNL d   1     -41.344-123.663 -53.305  0.00  0.00     0.002 A 
ATOM     21  C   UNL d   1     -41.626-123.320 -52.613  0.00  0.00     0.027 A 
BRANCH  17  22
ATOM     22  O   UNL d   1     -42.310-121.390 -53.366  0.00  0.00    -0.326 OA
ATOM     23  C   UNL d   1     -42.647-121.049 -54.031  0.00  0.00     0.181 C 
ENDBRANCH  17  22
ENDBRANCH  15  16
ENDBRANCH  14  15
ENDBRANCH  13  14
ENDBRANCH   1  13
TORSDOF 6
ENDMDL
MODEL 3
REMARK VINA RESULT:       6.2      1.404      4.967
REMARK  6 active torsions:
REMARK  status: ('A' for Active; 'I' for Inactive)
REMARK    1  A    between atoms: C_11  and  N_2 
REMARK    2  A    between atoms: O_15  and  C_9 
REMARK    3  A    between atoms: C_10  and  O_14 
REMARK    4  A    between atoms: C_16  and  C_11 
REMARK    5  A    between atoms: O_14  and  C_17 
REMARK    6  A    between atoms: C_17  and  C_16 
ROOT
ATOM      1  C   UNL d   1     -41.842-121.918 -52.170  0.00  0.00     0.087 C 
ENDROOT
BRANCH   1   2
ATOM      2  N   UNL d   1     -41.598-121.606 -51.443  0.00  0.00    -0.251 N 
ATOM      3  C   UNL d   1     -41.273-120.862 -51.282  0.00  0.00     0.378 A 
ATOM      4  O   UNL d   1     -41.123-120.821 -50.465  0.00  0.00    -0.258 OA
ATOM      5  O   UNL d   1     -41.123-120.266 -51.834  0.00  0.00    -0.237 OA
ATOM      6  C   UNL d   1     -41.355-121.538 -50.124  0.00  0.00     0.121 A 
ATOM      7  C   UNL d   1     -41.342-121.822 -49.341  0.00  0.00     0.026 A 
ATOM      8  C   UNL d   1     -41.649-122.024 -50.728  0.00  0.00     0.092 A 
ATOM      9  C   UNL d   1     -41.618-122.579 -49.169  0.00  0.00     0.002 A 
ATOM     10  C   UNL d   1     -41.911-123.062 -49.775  0.00  0.00     0.002 A 
ATOM     11  C   UNL d   1     -41.926-122.785 -50.551  0.00  0.00     0.020 A 
ATOM     12  C   UNL d   1     -42.186-123.817 -49.604  0.00  0.00     0.000 C 
ENDBRANCH   1   2
BRANCH   1  13
ATOM     13  C   UNL d   1     -42.254-121.452 -52.706  0.00  0.00     0.046 C 
BRANCH  13  14
ATOM     14  C   UNL d   1     -42.044-121.445 -53.506  0.00  0.00     0.124 C 
BRANCH  14  15
ATOM     15  O   UNL d   1     -42.086-122.129 -53.949  0.00  0.00    -0.303 OA
BRANCH  15  16
ATOM     16  C   UNL d   1     -41.969-122.042 -54.758  0.00  0.00     0.122 A 
ATOM     17  C   UNL d   1     -42.583-122.221 -55.286  0.00  0.00     0.117 A 
ATOM     18  C   UNL d   1     -42.464-122.132 -56.099  0.00  0.00     0.026 A 
ATOM     19  C   UNL d   1     -41.734-121.866 -56.375  0.00  0.00     0.002 A 
ATOM     20  C   UNL d   1     -41.128-121.690 -55.845  0.00  0.00     0.002 A 
ATOM     21  C   UNL d   1     -41.246-121.778 -55.037  0.00  0.00     0.027 A 
BRANCH  17  22
ATOM     22  O   UNL d   1     -43.309-122.486 -55.000  0.00  0.00    -0.326 OA
ATOM     23  C   UNL d   1     -44.025-122.364 -55.380  0.00  0.00     0.181 C 
ENDBRANCH  17  22
ENDBRANCH  15  16
ENDBRANCH  14  15
ENDBRANCH  13  14
ENDBRANCH   1  13
TORSDOF 6
ENDMDL
