MODEL 1
REMARK VINA RESULT:      -9.3      0.000      0.000
REMARK  1 active torsions:
REMARK  status: ('A' for Active; 'I' for Inactive)
REMARK    1  A    between atoms: C_6  and  C_1 
ROOT
ATOM      1  C   UNL d   1      53.691  32.198  54.171  0.00  0.00     0.111 A 
ATOM      2  N   UNL d   1      53.748  31.448  54.512  0.00  0.00    -0.239 NA
ATOM      3  S   UNL d   1      53.342  32.123  53.418  0.00  0.00    -0.066 SA
ATOM      4  C   UNL d   1      53.436  30.910  53.974  0.00  0.00     0.088 A 
ATOM      5  C   UNL d   1      53.187  31.323  53.304  0.00  0.00     0.049 A 
ATOM      6  C   UNL d   1      53.343  30.083  54.006  0.00  0.00     0.020 A 
ATOM      7  C   UNL d   1      52.847  30.907  52.671  0.00  0.00     0.008 A 
ATOM      8  C   UNL d   1      52.753  30.081  52.699  0.00  0.00     0.001 A 
ATOM      9  C   UNL d   1      53.002  29.668  53.369  0.00  0.00     0.002 A 
ENDROOT
BRANCH   1  10
ATOM     10  C   UNL d   1      53.916  32.916  54.463  0.00  0.00     0.025 A 
ATOM     11  C   UNL d   1      53.380  33.569  54.520  0.00  0.00     0.023 A 
ATOM     12  C   UNL d   1      53.613  34.282  54.813  0.00  0.00     0.103 A 
ATOM     13  N   UNL d   1      53.055  34.889  54.850  0.00  0.00    -0.148 N 
ATOM     14  C   UNL d   1      54.422  34.377  55.070  0.00  0.00     0.021 A 
ATOM     15  C   UNL d   1      54.949  33.754  55.020  0.00  0.00     0.002 A 
ATOM     16  C   UNL d   1      54.687  33.037  54.718  0.00  0.00     0.002 A 
ENDBRANCH   1  10
TORSDOF 1
ENDMDL
MODEL 2
REMARK VINA RESULT:      -9.1      0.860      3.677
REMARK  1 active torsions:
REMARK  status: ('A' for Active; 'I' for Inactive)
REMARK    1  A    between atoms: C_6  and  C_1 
ROOT
ATOM      1  C   UNL d   1      53.497  31.936  53.961  0.00  0.00     0.111 A 
ATOM      2  N   UNL d   1      54.134  32.192  54.418  0.00  0.00    -0.239 NA
ATOM      3  S   UNL d   1      53.001  32.587  53.804  0.00  0.00    -0.066 SA
ATOM      4  C   UNL d   1      54.035  32.998  54.547  0.00  0.00     0.088 A 
ATOM      5  C   UNL d   1      53.342  33.240  54.171  0.00  0.00     0.049 A 
ATOM      6  C   UNL d   1      54.494  33.555  54.964  0.00  0.00     0.020 A 
ATOM      7  C   UNL d   1      53.111  34.037  54.214  0.00  0.00     0.008 A 
ATOM      8  C   UNL d   1      53.566  34.595  54.629  0.00  0.00     0.001 A 
ATOM      9  C   UNL d   1      54.259  34.353  55.005  0.00  0.00     0.002 A 
ENDROOT
BRANCH   1  10
ATOM     10  C   UNL d   1      53.326  31.199  53.680  0.00  0.00     0.025 A 
ATOM     11  C   UNL d   1      53.431  30.501  54.149  0.00  0.00     0.023 A 
ATOM     12  C   UNL d   1      53.258  29.769  53.861  0.00  0.00     0.103 A 
ATOM     13  N   UNL d   1      53.376  29.118  54.355  0.00  0.00    -0.148 N 
ATOM     14  C   UNL d   1      52.961  29.700  53.063  0.00  0.00     0.021 A 
ATOM     15  C   UNL d   1      52.856  30.366  52.601  0.00  0.00     0.002 A 
ATOM     16  C   UNL d   1      53.039  31.100  52.917  0.00  0.00     0.002 A 
ENDBRANCH   1  10
TORSDOF 1
ENDMDL
MODEL 3
REMARK VINA RESULT:      -9.0      2.256      3.561
REMARK  1 active torsions:
REMARK  status: ('A' for Active; 'I' for Inactive)
REMARK    1  A    between atoms: C_6  and  C_1 
ROOT
ATOM      1  C   UNL d   1      52.405  33.927  53.512  0.00  0.00     0.111 A 
ATOM      2  N   UNL d   1      52.852  34.448  53.968  0.00  0.00    -0.239 NA
ATOM      3  S   UNL d   1      52.693  33.154  53.629  0.00  0.00    -0.066 SA
ATOM      4  C   UNL d   1      53.416  34.003  54.368  0.00  0.00     0.088 A 
ATOM      5  C   UNL d   1      53.319  33.210  54.160  0.00  0.00     0.049 A 
ATOM      6  C   UNL d   1      54.017  34.217  54.903  0.00  0.00     0.020 A 
ATOM      7  C   UNL d   1      53.823  32.637  54.489  0.00  0.00     0.008 A 
ATOM      8  C   UNL d   1      54.424  32.848  55.023  0.00  0.00     0.001 A 
ATOM      9  C   UNL d   1      54.521  33.641  55.231  0.00  0.00     0.002 A 
ENDROOT
BRANCH   1  10
ATOM     10  C   UNL d   1      51.784  34.075  53.018  0.00  0.00     0.025 A 
ATOM     11  C   UNL d   1      51.019  34.297  53.306  0.00  0.00     0.023 A 
ATOM     12  C   UNL d   1      50.406  34.443  52.805  0.00  0.00     0.103 A 
ATOM     13  N   UNL d   1      49.678  34.656  53.132  0.00  0.00    -0.148 N 
ATOM     14  C   UNL d   1      50.535  34.371  51.964  0.00  0.00     0.021 A 
ATOM     15  C   UNL d   1      51.268  34.158  51.673  0.00  0.00     0.002 A 
ATOM     16  C   UNL d   1      51.878  34.014  52.203  0.00  0.00     0.002 A 
ENDBRANCH   1  10
TORSDOF 1
ENDMDL
MODEL 4
REMARK VINA RESULT:      -8.8      2.183      2.918
REMARK  1 active torsions:
REMARK  status: ('A' for Active; 'I' for Inactive)
REMARK    1  A    between atoms: C_6  and  C_1 
ROOT
ATOM      1  C   UNL d   1      52.751  33.509  53.551  0.00  0.00     0.111 A 
ATOM      2  N   UNL d   1      52.013  33.299  53.854  0.00  0.00    -0.239 NA
ATOM      3  S   UNL d   1      52.638  33.963  52.861  0.00  0.00    -0.066 SA
ATOM      4  C   UNL d   1      51.443  33.621  53.356  0.00  0.00     0.088 A 
ATOM      5  C   UNL d   1      51.826  34.027  52.748  0.00  0.00     0.049 A 
ATOM      6  C   UNL d   1      50.611  33.598  53.375  0.00  0.00     0.020 A 
ATOM      7  C   UNL d   1      51.374  34.408  52.164  0.00  0.00     0.008 A 
ATOM      8  C   UNL d   1      50.543  34.386  52.180  0.00  0.00     0.001 A 
ATOM      9  C   UNL d   1      50.161  33.980  52.788  0.00  0.00     0.002 A 
ENDROOT
BRANCH   1  10
ATOM     10  C   UNL d   1      53.490  33.336  53.826  0.00  0.00     0.025 A 
ATOM     11  C   UNL d   1      53.778  33.631  54.566  0.00  0.00     0.023 A 
ATOM     12  C   UNL d   1      54.517  33.454  54.832  0.00  0.00     0.103 A 
ATOM     13  N   UNL d   1      54.753  33.765  55.560  0.00  0.00    -0.148 N 
ATOM     14  C   UNL d   1      55.018  32.955  54.353  0.00  0.00     0.021 A 
ATOM     15  C   UNL d   1      54.752  32.664  53.638  0.00  0.00     0.002 A 
ATOM     16  C   UNL d   1      53.996  32.859  53.388  0.00  0.00     0.002 A 
ENDBRANCH   1  10
TORSDOF 1
ENDMDL
