MODEL 1
REMARK VINA RESULT:      -6.2      0.000      0.000
REMARK  6 active torsions:
REMARK  status: ('A' for Active; 'I' for Inactive)
REMARK    1  A    between atoms: C_10  and  N_3 
REMARK    2  A    between atoms: C_12  and  C_6 
REMARK    3  A    between atoms: C_20  and  C_10 
REMARK    4  A    between atoms: C_11  and  C_17 
REMARK    5  A    between atoms: O_27  and  C_11 
REMARK    6  A    between atoms: N_13  and  C_20 
ROOT
ATOM      1  C   UNL d   1      52.927  32.198  53.361  0.00  0.00     0.083 A 
ATOM      2  C   UNL d   1      53.688  32.085  53.685  0.00  0.00     0.161 A 
ATOM      3  N   UNL d   1      53.445  33.401  53.624  0.00  0.00    -0.270 N 
ATOM      4  C   UNL d   1      54.004  32.828  53.845  0.00  0.00     0.288 A 
ATOM      5  C   UNL d   1      52.470  31.538  53.143  0.00  0.00     0.201 A 
ATOM      6  C   UNL d   1      52.785  33.010  53.327  0.00  0.00     0.072 A 
ATOM      7  O   UNL d   1      53.982  31.322  53.786  0.00  0.00    -0.302 OA
ATOM      8  C   UNL d   1      52.776  30.777  53.249  0.00  0.00     0.063 A 
ATOM      9  C   UNL d   1      53.534  30.665  53.571  0.00  0.00     0.103 A 
ATOM     10  O   UNL d   1      54.749  32.981  54.171  0.00  0.00    -0.264 OA
ATOM     11  O   UNL d   1      51.719  31.646  52.824  0.00  0.00    -0.286 OA
ATOM     12  C   UNL d   1      52.321  30.125  53.032  0.00  0.00     0.017 A 
ATOM     13  C   UNL d   1      53.821  29.902  53.669  0.00  0.00     0.026 A 
ATOM     14  C   UNL d   1      52.615  29.366  53.133  0.00  0.00     0.058 A 
ATOM     15  C   UNL d   1      53.366  29.254  53.452  0.00  0.00     0.013 A 
ATOM     16 CL   UNL d   1      52.160  28.719  52.916  0.00  0.00    -0.082 Cl
ENDROOT
BRANCH   6  17
ATOM     17  C   UNL d   1      52.081  33.328  53.035  0.00  0.00     0.016 A 
ATOM     18  C   UNL d   1      51.389  33.296  53.488  0.00  0.00     0.002 A 
ATOM     19  C   UNL d   1      50.685  33.615  53.197  0.00  0.00     0.005 A 
ATOM     20  C   UNL d   1      50.668  33.968  52.447  0.00  0.00     0.063 A 
ATOM     21  C   UNL d   1      51.366  33.998  51.994  0.00  0.00     0.005 A 
ATOM     22  C   UNL d   1      52.066  33.680  52.288  0.00  0.00     0.002 A 
BRANCH  20  23
ATOM     23  C   UNL d   1      49.965  34.286  52.156  0.00  0.00     0.296 C 
ATOM     24  O   UNL d   1      49.516  34.786  52.627  0.00  0.00    -0.259 OA
BRANCH  23  25
ATOM     25  O   UNL d   1      49.721  34.097  51.396  0.00  0.00    -0.296 OA
ATOM     26  C   UNL d   1      49.026  34.415  51.084  0.00  0.00     0.185 C 
ENDBRANCH  23  25
ENDBRANCH  20  23
ENDBRANCH   6  17
BRANCH   3  27
ATOM     27  C   UNL d   1      53.538  34.216  53.691  0.00  0.00     0.102 C 
BRANCH  27  28
ATOM     28  C   UNL d   1      53.800  34.551  54.398  0.00  0.00     0.100 C 
BRANCH  28  29
ATOM     29  N   UNL d   1      53.500  35.273  54.655  0.00  0.00    -0.298 N 
ATOM     30  C   UNL d   1      53.117  35.317  55.376  0.00  0.00     0.107 A 
ATOM     31  C   UNL d   1      52.817  36.038  55.632  0.00  0.00     0.142 A 
ATOM     32  O   UNL d   1      52.903  36.709  55.166  0.00  0.00    -0.300 OA
ATOM     33  C   UNL d   1      53.288  36.657  54.443  0.00  0.00     0.142 A 
ATOM     34  C   UNL d   1      53.588  35.936  54.187  0.00  0.00     0.107 A 
ENDBRANCH  28  29
ENDBRANCH  27  28
ENDBRANCH   3  27
TORSDOF 6
ENDMDL
MODEL 2
REMARK VINA RESULT:      -6.1     10.007     11.165
REMARK  6 active torsions:
REMARK  status: ('A' for Active; 'I' for Inactive)
REMARK    1  A    between atoms: C_10  and  N_3 
REMARK    2  A    between atoms: C_12  and  C_6 
REMARK    3  A    between atoms: C_20  and  C_10 
REMARK    4  A    between atoms: C_11  and  C_17 
REMARK    5  A    between atoms: O_27  and  C_11 
REMARK    6  A    between atoms: N_13  and  C_20 
ROOT
ATOM      1  C   UNL d   1      44.789  29.181  60.284  0.00  0.00     0.083 A 
ATOM      2  C   UNL d   1      44.719  29.977  60.525  0.00  0.00     0.161 A 
ATOM      3  N   UNL d   1      44.837  29.947  59.191  0.00  0.00    -0.270 N 
ATOM      4  C   UNL d   1      44.749  30.446  59.848  0.00  0.00     0.288 A 
ATOM      5  C   UNL d   1      44.776  28.576  60.855  0.00  0.00     0.201 A 
ATOM      6  C   UNL d   1      44.861  29.171  59.463  0.00  0.00     0.072 A 
ATOM      7  O   UNL d   1      44.638  30.159  61.324  0.00  0.00    -0.302 OA
ATOM      8  C   UNL d   1      44.694  28.771  61.654  0.00  0.00     0.063 A 
ATOM      9  C   UNL d   1      44.624  29.563  61.894  0.00  0.00     0.103 A 
ATOM     10  O   UNL d   1      44.701  31.272  59.825  0.00  0.00    -0.264 OA
ATOM     11  O   UNL d   1      44.844  27.790  60.621  0.00  0.00    -0.286 OA
ATOM     12  C   UNL d   1      44.681  28.168  62.217  0.00  0.00     0.017 A 
ATOM     13  C   UNL d   1      44.544  29.737  62.692  0.00  0.00     0.026 A 
ATOM     14  C   UNL d   1      44.600  28.351  63.012  0.00  0.00     0.058 A 
ATOM     15  C   UNL d   1      44.532  29.136  63.250  0.00  0.00     0.013 A 
ATOM     16 CL   UNL d   1      44.588  27.750  63.571  0.00  0.00    -0.082 Cl
ENDROOT
BRANCH   6  17
ATOM     17  C   UNL d   1      44.942  28.472  59.030  0.00  0.00     0.016 A 
ATOM     18  C   UNL d   1      45.649  28.306  58.633  0.00  0.00     0.002 A 
ATOM     19  C   UNL d   1      45.730  27.607  58.200  0.00  0.00     0.005 A 
ATOM     20  C   UNL d   1      45.102  27.068  58.162  0.00  0.00     0.063 A 
ATOM     21  C   UNL d   1      44.392  27.238  58.562  0.00  0.00     0.005 A 
ATOM     22  C   UNL d   1      44.315  27.936  58.993  0.00  0.00     0.002 A 
BRANCH  20  23
ATOM     23  C   UNL d   1      45.183  26.370  57.729  0.00  0.00     0.296 C 
ATOM     24  O   UNL d   1      45.183  25.646  58.118  0.00  0.00    -0.259 OA
BRANCH  23  25
ATOM     25  O   UNL d   1      45.263  26.407  56.915  0.00  0.00    -0.296 OA
ATOM     26  C   UNL d   1      45.311  25.718  56.462  0.00  0.00     0.185 C 
ENDBRANCH  23  25
ENDBRANCH  20  23
ENDBRANCH   6  17
BRANCH   3  27
ATOM     27  C   UNL d   1      44.891  30.189  58.406  0.00  0.00     0.102 C 
BRANCH  27  28
ATOM     28  C   UNL d   1      44.623  30.936  58.179  0.00  0.00     0.100 C 
BRANCH  28  29
ATOM     29  N   UNL d   1      44.556  31.131  57.382  0.00  0.00    -0.298 N 
ATOM     30  C   UNL d   1      44.496  30.536  56.825  0.00  0.00     0.107 A 
ATOM     31  C   UNL d   1      44.429  30.731  56.029  0.00  0.00     0.142 A 
ATOM     32  O   UNL d   1      44.423  31.519  55.797  0.00  0.00    -0.300 OA
ATOM     33  C   UNL d   1      44.484  32.111  56.363  0.00  0.00     0.142 A 
ATOM     34  C   UNL d   1      44.551  31.916  57.158  0.00  0.00     0.107 A 
ENDBRANCH  28  29
ENDBRANCH  27  28
ENDBRANCH   3  27
TORSDOF 6
ENDMDL
MODEL 3
REMARK VINA RESULT:      -4.6      9.877     10.680
REMARK  6 active torsions:
REMARK  status: ('A' for Active; 'I' for Inactive)
REMARK    1  A    between atoms: C_10  and  N_3 
REMARK    2  A    between atoms: C_12  and  C_6 
REMARK    3  A    between atoms: C_20  and  C_10 
REMARK    4  A    between atoms: C_11  and  C_17 
REMARK    5  A    between atoms: O_27  and  C_11 
REMARK    6  A    between atoms: N_13  and  C_20 
ROOT
ATOM      1  C   UNL d   1      44.838  27.941  58.943  0.00  0.00     0.083 A 
ATOM      2  C   UNL d   1      44.733  27.388  59.560  0.00  0.00     0.161 A 
ATOM      3  N   UNL d   1      44.634  28.621  60.074  0.00  0.00    -0.270 N 
ATOM      4  C   UNL d   1      44.608  27.812  60.255  0.00  0.00     0.288 A 
ATOM      5  C   UNL d   1      44.977  27.671  58.169  0.00  0.00     0.201 A 
ATOM      6  C   UNL d   1      44.775  28.696  59.267  0.00  0.00     0.072 A 
ATOM      7  O   UNL d   1      44.767  26.581  59.399  0.00  0.00    -0.302 OA
ATOM      8  C   UNL d   1      45.009  26.858  58.019  0.00  0.00     0.063 A 
ATOM      9  C   UNL d   1      44.905  26.308  58.634  0.00  0.00     0.103 A 
ATOM     10  O   UNL d   1      44.477  27.489  61.006  0.00  0.00    -0.264 OA
ATOM     11  O   UNL d   1      45.080  28.212  57.558  0.00  0.00    -0.286 OA
ATOM     12  C   UNL d   1      45.147  26.594  57.250  0.00  0.00     0.017 A 
ATOM     13  C   UNL d   1      44.940  25.506  58.466  0.00  0.00     0.026 A 
ATOM     14  C   UNL d   1      45.180  25.790  57.092  0.00  0.00     0.058 A 
ATOM     15  C   UNL d   1      45.077  25.246  57.700  0.00  0.00     0.013 A 
ATOM     16 CL   UNL d   1      45.317  25.530  56.326  0.00  0.00    -0.082 Cl
ENDROOT
BRANCH   6  17
ATOM     17  C   UNL d   1      44.850  29.384  58.815  0.00  0.00     0.016 A 
ATOM     18  C   UNL d   1      44.316  29.540  58.202  0.00  0.00     0.002 A 
ATOM     19  C   UNL d   1      44.391  30.227  57.750  0.00  0.00     0.005 A 
ATOM     20  C   UNL d   1      45.002  30.765  57.908  0.00  0.00     0.063 A 
ATOM     21  C   UNL d   1      45.537  30.604  58.526  0.00  0.00     0.005 A 
ATOM     22  C   UNL d   1      45.460  29.917  58.975  0.00  0.00     0.002 A 
BRANCH  20  23
ATOM     23  C   UNL d   1      45.076  31.451  57.457  0.00  0.00     0.296 C 
ATOM     24  O   UNL d   1      45.434  32.116  57.780  0.00  0.00    -0.259 OA
BRANCH  23  25
ATOM     25  O   UNL d   1      44.792  31.461  56.689  0.00  0.00    -0.296 OA
ATOM     26  C   UNL d   1      44.635  32.174  56.305  0.00  0.00     0.185 C 
ENDBRANCH  23  25
ENDBRANCH  20  23
ENDBRANCH   6  17
BRANCH   3  27
ATOM     27  C   UNL d   1      44.535  29.238  60.610  0.00  0.00     0.102 C 
BRANCH  27  28
ATOM     28  C   UNL d   1      44.888  29.207  61.355  0.00  0.00     0.100 C 
BRANCH  28  29
ATOM     29  N   UNL d   1      44.714  29.775  61.924  0.00  0.00    -0.298 N 
ATOM     30  C   UNL d   1      44.510  29.540  62.680  0.00  0.00     0.107 A 
ATOM     31  C   UNL d   1      44.336  30.107  63.248  0.00  0.00     0.142 A 
ATOM     32  O   UNL d   1      44.367  30.906  63.056  0.00  0.00    -0.300 OA
ATOM     33  C   UNL d   1      44.573  31.134  62.295  0.00  0.00     0.142 A 
ATOM     34  C   UNL d   1      44.747  30.567  61.727  0.00  0.00     0.107 A 
ENDBRANCH  28  29
ENDBRANCH  27  28
ENDBRANCH   3  27
TORSDOF 6
ENDMDL
MODEL 4
REMARK VINA RESULT:      -4.5      1.688      4.102
REMARK  6 active torsions:
REMARK  status: ('A' for Active; 'I' for Inactive)
REMARK    1  A    between atoms: C_10  and  N_3 
REMARK    2  A    between atoms: C_12  and  C_6 
REMARK    3  A    between atoms: C_20  and  C_10 
REMARK    4  A    between atoms: C_11  and  C_17 
REMARK    5  A    between atoms: O_27  and  C_11 
REMARK    6  A    between atoms: N_13  and  C_20 
ROOT
ATOM      1  C   UNL d   1      51.219  33.889  53.123  0.00  0.00     0.083 A 
ATOM      2  C   UNL d   1      51.171  34.662  53.435  0.00  0.00     0.161 A 
ATOM      3  N   UNL d   1      52.209  34.038  54.008  0.00  0.00    -0.270 N 
ATOM      4  C   UNL d   1      51.782  34.750  53.980  0.00  0.00     0.288 A 
ATOM      5  C   UNL d   1      50.667  33.640  52.553  0.00  0.00     0.201 A 
ATOM      6  C   UNL d   1      51.860  33.512  53.480  0.00  0.00     0.072 A 
ATOM      7  O   UNL d   1      50.577  35.172  53.178  0.00  0.00    -0.302 OA
ATOM      8  C   UNL d   1      50.076  34.161  52.303  0.00  0.00     0.063 A 
ATOM      9  C   UNL d   1      50.028  34.930  52.613  0.00  0.00     0.103 A 
ATOM     10  O   UNL d   1      51.945  35.429  54.424  0.00  0.00    -0.264 OA
ATOM     11  O   UNL d   1      50.712  32.879  52.244  0.00  0.00    -0.286 OA
ATOM     12  C   UNL d   1      49.530  33.910  51.738  0.00  0.00     0.017 A 
ATOM     13  C   UNL d   1      49.434  35.433  52.352  0.00  0.00     0.026 A 
ATOM     14  C   UNL d   1      48.940  34.420  51.483  0.00  0.00     0.058 A 
ATOM     15  C   UNL d   1      48.892  35.182  51.790  0.00  0.00     0.013 A 
ATOM     16 CL   UNL d   1      48.398  34.168  50.921  0.00  0.00    -0.082 Cl
ENDROOT
BRANCH   6  17
ATOM     17  C   UNL d   1      52.076  32.735  53.304  0.00  0.00     0.016 A 
ATOM     18  C   UNL d   1      51.709  32.102  53.692  0.00  0.00     0.002 A 
ATOM     19  C   UNL d   1      51.925  31.324  53.516  0.00  0.00     0.005 A 
ATOM     20  C   UNL d   1      52.511  31.173  52.949  0.00  0.00     0.063 A 
ATOM     21  C   UNL d   1      52.878  31.813  52.561  0.00  0.00     0.005 A 
ATOM     22  C   UNL d   1      52.660  32.587  52.739  0.00  0.00     0.002 A 
BRANCH  20  23
ATOM     23  C   UNL d   1      52.726  30.397  52.773  0.00  0.00     0.296 C 
ATOM     24  O   UNL d   1      52.948  30.197  52.009  0.00  0.00    -0.259 OA
BRANCH  23  25
ATOM     25  O   UNL d   1      52.715  29.832  53.367  0.00  0.00    -0.296 OA
ATOM     26  C   UNL d   1      53.215  29.176  53.335  0.00  0.00     0.185 C 
ENDBRANCH  23  25
ENDBRANCH  20  23
ENDBRANCH   6  17
BRANCH   3  27
ATOM     27  C   UNL d   1      52.865  33.889  54.482  0.00  0.00     0.102 C 
BRANCH  27  28
ATOM     28  C   UNL d   1      53.483  34.434  54.526  0.00  0.00     0.100 C 
BRANCH  28  29
ATOM     29  N   UNL d   1      54.207  34.219  54.854  0.00  0.00    -0.298 N 
ATOM     30  C   UNL d   1      54.226  33.858  55.587  0.00  0.00     0.107 A 
ATOM     31  C   UNL d   1      54.948  33.644  55.915  0.00  0.00     0.142 A 
ATOM     32  O   UNL d   1      55.646  33.793  55.507  0.00  0.00    -0.300 OA
ATOM     33  C   UNL d   1      55.619  34.155  54.771  0.00  0.00     0.142 A 
ATOM     34  C   UNL d   1      54.896  34.370  54.443  0.00  0.00     0.107 A 
ENDBRANCH  28  29
ENDBRANCH  27  28
ENDBRANCH   3  27
TORSDOF 6
ENDMDL
MODEL 5
REMARK VINA RESULT:      -3.9      9.804     10.731
REMARK  6 active torsions:
REMARK  status: ('A' for Active; 'I' for Inactive)
REMARK    1  A    between atoms: C_10  and  N_3 
REMARK    2  A    between atoms: C_12  and  C_6 
REMARK    3  A    between atoms: C_20  and  C_10 
REMARK    4  A    between atoms: C_11  and  C_17 
REMARK    5  A    between atoms: O_27  and  C_11 
REMARK    6  A    between atoms: N_13  and  C_20 
ROOT
ATOM      1  C   UNL d   1      44.824  27.160  58.087  0.00  0.00     0.083 A 
ATOM      2  C   UNL d   1      44.818  26.537  58.642  0.00  0.00     0.161 A 
ATOM      3  N   UNL d   1      44.869  27.698  59.308  0.00  0.00    -0.270 N 
ATOM      4  C   UNL d   1      44.846  26.873  59.394  0.00  0.00     0.288 A 
ATOM      5  C   UNL d   1      44.799  26.986  57.274  0.00  0.00     0.201 A 
ATOM      6  C   UNL d   1      44.855  27.871  58.504  0.00  0.00     0.072 A 
ATOM      7  O   UNL d   1      44.788  25.755  58.383  0.00  0.00    -0.302 OA
ATOM      8  C   UNL d   1      44.769  26.198  57.025  0.00  0.00     0.063 A 
ATOM      9  C   UNL d   1      44.764  25.578  57.578  0.00  0.00     0.103 A 
ATOM     10  O   UNL d   1      44.851  26.461  60.111  0.00  0.00    -0.264 OA
ATOM     11  O   UNL d   1      44.804  27.598  56.723  0.00  0.00    -0.286 OA
ATOM     12  C   UNL d   1      44.745  26.030  56.218  0.00  0.00     0.017 A 
ATOM     13  C   UNL d   1      44.734  24.802  57.313  0.00  0.00     0.026 A 
ATOM     14  C   UNL d   1      44.716  25.251  55.962  0.00  0.00     0.058 A 
ATOM     15  C   UNL d   1      44.710  24.637  56.510  0.00  0.00     0.013 A 
ATOM     16 CL   UNL d   1      44.692  25.086  55.159  0.00  0.00    -0.082 Cl
ENDROOT
BRANCH   6  17
ATOM     17  C   UNL d   1      44.868  28.607  58.131  0.00  0.00     0.016 A 
ATOM     18  C   UNL d   1      44.314  28.788  57.543  0.00  0.00     0.002 A 
ATOM     19  C   UNL d   1      44.327  29.524  57.171  0.00  0.00     0.005 A 
ATOM     20  C   UNL d   1      44.897  30.088  57.383  0.00  0.00     0.063 A 
ATOM     21  C   UNL d   1      45.453  29.903  57.975  0.00  0.00     0.005 A 
ATOM     22  C   UNL d   1      45.437  29.167  58.345  0.00  0.00     0.002 A 
BRANCH  20  23
ATOM     23  C   UNL d   1      44.910  30.824  57.011  0.00  0.00     0.296 C 
ATOM     24  O   UNL d   1      45.094  31.497  57.442  0.00  0.00    -0.259 OA
BRANCH  23  25
ATOM     25  O   UNL d   1      44.738  30.874  56.211  0.00  0.00    -0.296 OA
ATOM     26  C   UNL d   1      44.665  31.607  55.839  0.00  0.00     0.185 C 
ENDBRANCH  23  25
ENDBRANCH  20  23
ENDBRANCH   6  17
BRANCH   3  27
ATOM     27  C   UNL d   1      44.900  28.245  59.922  0.00  0.00     0.102 C 
BRANCH  27  28
ATOM     28  C   UNL d   1      44.470  28.122  60.616  0.00  0.00     0.100 C 
BRANCH  28  29
ATOM     29  N   UNL d   1      44.602  28.592  61.279  0.00  0.00    -0.298 N 
ATOM     30  C   UNL d   1      44.569  29.405  61.209  0.00  0.00     0.107 A 
ATOM     31  C   UNL d   1      44.700  29.874  61.871  0.00  0.00     0.142 A 
ATOM     32  O   UNL d   1      44.864  29.526  62.597  0.00  0.00    -0.300 OA
ATOM     33  C   UNL d   1      44.895  28.708  62.659  0.00  0.00     0.142 A 
ATOM     34  C   UNL d   1      44.763  28.239  61.997  0.00  0.00     0.107 A 
ENDBRANCH  28  29
ENDBRANCH  27  28
ENDBRANCH   3  27
TORSDOF 6
ENDMDL
MODEL 6
REMARK VINA RESULT:      -3.3      1.359      3.478
REMARK  6 active torsions:
REMARK  status: ('A' for Active; 'I' for Inactive)
REMARK    1  A    between atoms: C_10  and  N_3 
REMARK    2  A    between atoms: C_12  and  C_6 
REMARK    3  A    between atoms: C_20  and  C_10 
REMARK    4  A    between atoms: C_11  and  C_17 
REMARK    5  A    between atoms: O_27  and  C_11 
REMARK    6  A    between atoms: N_13  and  C_20 
ROOT
ATOM      1  C   UNL d   1      52.101  32.367  53.337  0.00  0.00     0.083 A 
ATOM      2  C   UNL d   1      51.477  31.881  53.071  0.00  0.00     0.161 A 
ATOM      3  N   UNL d   1      51.025  33.139  53.162  0.00  0.00    -0.270 N 
ATOM      4  C   UNL d   1      50.816  32.360  52.965  0.00  0.00     0.288 A 
ATOM      5  C   UNL d   1      52.846  32.031  53.493  0.00  0.00     0.201 A 
ATOM      6  C   UNL d   1      51.816  33.139  53.391  0.00  0.00     0.072 A 
ATOM      7  O   UNL d   1      51.601  31.073  52.965  0.00  0.00    -0.302 OA
ATOM      8  C   UNL d   1      52.959  31.219  53.383  0.00  0.00     0.063 A 
ATOM      9  C   UNL d   1      52.337  30.736  53.118  0.00  0.00     0.103 A 
ATOM     10  O   UNL d   1      50.070  32.112  52.705  0.00  0.00    -0.264 OA
ATOM     11  O   UNL d   1      53.464  32.506  53.756  0.00  0.00    -0.286 OA
ATOM     12  C   UNL d   1      53.698  30.890  53.538  0.00  0.00     0.017 A 
ATOM     13  C   UNL d   1      52.468  29.932  53.014  0.00  0.00     0.026 A 
ATOM     14  C   UNL d   1      53.820  30.085  53.432  0.00  0.00     0.058 A 
ATOM     15  C   UNL d   1      53.205  29.606  53.170  0.00  0.00     0.013 A 
ATOM     16 CL   UNL d   1      54.557  29.760  53.587  0.00  0.00    -0.082 Cl
ENDROOT
BRANCH   6  17
ATOM     17  C   UNL d   1      52.285  33.772  53.638  0.00  0.00     0.016 A 
ATOM     18  C   UNL d   1      52.379  33.931  54.445  0.00  0.00     0.002 A 
ATOM     19  C   UNL d   1      52.848  34.564  54.692  0.00  0.00     0.005 A 
ATOM     20  C   UNL d   1      53.227  35.045  54.133  0.00  0.00     0.063 A 
ATOM     21  C   UNL d   1      53.129  34.881  53.322  0.00  0.00     0.005 A 
ATOM     22  C   UNL d   1      52.661  34.249  53.079  0.00  0.00     0.002 A 
BRANCH  20  23
ATOM     23  C   UNL d   1      53.695  35.677  54.380  0.00  0.00     0.296 C 
ATOM     24  O   UNL d   1      54.504  35.575  54.473  0.00  0.00    -0.259 OA
BRANCH  23  25
ATOM     25  O   UNL d   1      53.345  36.403  54.530  0.00  0.00    -0.296 OA
ATOM     26  C   UNL d   1      53.319  36.710  55.296  0.00  0.00     0.185 C 
ENDBRANCH  23  25
ENDBRANCH  20  23
ENDBRANCH   6  17
BRANCH   3  27
ATOM     27  C   UNL d   1      50.528  33.794  53.134  0.00  0.00     0.102 C 
BRANCH  27  28
ATOM     28  C   UNL d   1      50.160  34.010  52.428  0.00  0.00     0.100 C 
BRANCH  28  29
ATOM     29  N   UNL d   1      49.530  34.540  52.430  0.00  0.00    -0.298 N 
ATOM     30  C   UNL d   1      49.030  34.574  51.785  0.00  0.00     0.107 A 
ATOM     31  C   UNL d   1      48.401  35.104  51.787  0.00  0.00     0.142 A 
ATOM     32  O   UNL d   1      48.278  35.594  52.434  0.00  0.00    -0.300 OA
ATOM     33  C   UNL d   1      48.785  35.554  53.079  0.00  0.00     0.142 A 
ATOM     34  C   UNL d   1      49.414  35.025  53.076  0.00  0.00     0.107 A 
ENDBRANCH  28  29
ENDBRANCH  27  28
ENDBRANCH   3  27
TORSDOF 6
ENDMDL
