MODEL 1
REMARK VINA RESULT:      61.3      0.000      0.000
REMARK  3 active torsions:
REMARK  status: ('A' for Active; 'I' for Inactive)
REMARK    1  A    between atoms: N_3  and  C_1 
REMARK       I    between atoms: C_5  and  N_3 
REMARK    2  A    between atoms: C_6  and  C_5 
REMARK    3  A    between atoms: O_19  and  C_17 
ROOT
ATOM      1  N   UNL d   1     -48.999  28.095  34.095  0.00  0.00    -0.181 NA
ATOM      2  C   UNL d   1     -48.808  28.294  34.872  0.00  0.00     0.306 C 
ATOM      3  O   UNL d   1     -49.092  27.816  35.504  0.00  0.00    -0.263 OA
ENDROOT
BRANCH   1   4
ATOM      4  C   UNL d   1     -49.463  27.436  33.929  0.00  0.00     0.197 A 
ATOM      5  N   UNL d   1     -49.168  26.677  33.779  0.00  0.00    -0.221 NA
ATOM      6  C   UNL d   1     -49.824  26.187  33.640  0.00  0.00     0.090 A 
ATOM      7  C   UNL d   1     -49.873  25.384  33.463  0.00  0.00     0.022 A 
ATOM      8  C   UNL d   1     -50.503  26.648  33.707  0.00  0.00     0.052 A 
ATOM      9  C   UNL d   1     -50.622  25.047  33.353  0.00  0.00     0.026 A 
ATOM     10  C   UNL d   1     -51.294  25.502  33.419  0.00  0.00     0.095 A 
ATOM     11  C   UNL d   1     -51.251  26.310  33.597  0.00  0.00     0.032 A 
ATOM     12  S   UNL d   1     -50.270  27.409  33.884  0.00  0.00    -0.047 SA
BRANCH  10  13
ATOM     13  O   UNL d   1     -52.070  25.161  33.307  0.00  0.00    -0.328 OA
ATOM     14  C   UNL d   1     -52.172  24.337  33.430  0.00  0.00     0.181 C 
ENDBRANCH  10  13
ENDBRANCH   1   4
BRANCH   2  15
ATOM     15  C   UNL d   1     -48.344  28.953  35.038  0.00  0.00     0.182 A 
ATOM     16  O   UNL d   1     -48.522  29.666  34.672  0.00  0.00    -0.298 OA
ATOM     17  C   UNL d   1     -48.053  30.338  34.838  0.00  0.00     0.123 A 
ATOM     18  C   UNL d   1     -48.226  31.061  34.473  0.00  0.00     0.027 A 
ATOM     19  C   UNL d   1     -47.428  30.275  35.360  0.00  0.00     0.123 A 
ATOM     20  C   UNL d   1     -47.758  31.719  34.643  0.00  0.00     0.002 A 
ATOM     21  C   UNL d   1     -47.135  31.668  35.159  0.00  0.00     0.002 A 
ATOM     22  C   UNL d   1     -46.963  30.944  35.525  0.00  0.00     0.027 A 
ATOM     23  O   UNL d   1     -47.255  29.551  35.726  0.00  0.00    -0.301 OA
ATOM     24  C   UNL d   1     -47.722  28.898  35.556  0.00  0.00     0.152 A 
ENDBRANCH   2  15
TORSDOF 3
ENDMDL
MODEL 2
REMARK VINA RESULT:      64.1      1.154      5.499
REMARK  3 active torsions:
REMARK  status: ('A' for Active; 'I' for Inactive)
REMARK    1  A    between atoms: N_3  and  C_1 
REMARK       I    between atoms: C_5  and  N_3 
REMARK    2  A    between atoms: C_6  and  C_5 
REMARK    3  A    between atoms: O_19  and  C_17 
ROOT
ATOM      1  N   UNL d   1     -49.252  27.859  34.661  0.00  0.00    -0.181 NA
ATOM      2  C   UNL d   1     -49.624  27.757  33.933  0.00  0.00     0.306 C 
ATOM      3  O   UNL d   1     -49.517  28.333  33.328  0.00  0.00    -0.263 OA
ENDROOT
BRANCH   1   4
ATOM      4  C   UNL d   1     -48.778  28.516  34.806  0.00  0.00     0.197 A 
ATOM      5  N   UNL d   1     -48.069  28.502  35.234  0.00  0.00    -0.221 NA
ATOM      6  C   UNL d   1     -47.779  29.279  35.243  0.00  0.00     0.090 A 
ATOM      7  C   UNL d   1     -47.100  29.600  35.583  0.00  0.00     0.022 A 
ATOM      8  C   UNL d   1     -48.307  29.752  34.825  0.00  0.00     0.052 A 
ATOM      9  C   UNL d   1     -46.957  30.412  35.495  0.00  0.00     0.026 A 
ATOM     10  C   UNL d   1     -47.480  30.880  35.082  0.00  0.00     0.095 A 
ATOM     11  C   UNL d   1     -48.164  30.564  34.738  0.00  0.00     0.032 A 
ATOM     12  S   UNL d   1     -48.913  29.275  34.563  0.00  0.00    -0.047 SA
BRANCH  10  13
ATOM     13  O   UNL d   1     -47.339  31.719  34.987  0.00  0.00    -0.328 OA
ATOM     14  C   UNL d   1     -47.879  32.170  34.530  0.00  0.00     0.181 C 
ENDBRANCH  10  13
ENDBRANCH   1   4
BRANCH   2  15
ATOM     15  C   UNL d   1     -50.098  27.100  33.788  0.00  0.00     0.182 A 
ATOM     16  O   UNL d   1     -49.747  26.359  33.741  0.00  0.00    -0.298 OA
ATOM     17  C   UNL d   1     -50.226  25.690  33.595  0.00  0.00     0.123 A 
ATOM     18  C   UNL d   1     -49.879  24.939  33.546  0.00  0.00     0.027 A 
ATOM     19  C   UNL d   1     -51.032  25.783  33.500  0.00  0.00     0.123 A 
ATOM     20  C   UNL d   1     -50.359  24.284  33.401  0.00  0.00     0.002 A 
ATOM     21  C   UNL d   1     -51.160  24.364  33.306  0.00  0.00     0.002 A 
ATOM     22  C   UNL d   1     -51.506  25.116  33.354  0.00  0.00     0.027 A 
ATOM     23  O   UNL d   1     -51.378  26.534  33.549  0.00  0.00    -0.301 OA
ATOM     24  C   UNL d   1     -50.900  27.184  33.693  0.00  0.00     0.152 A 
ENDBRANCH   2  15
TORSDOF 3
ENDMDL
