MODEL 1
REMARK VINA RESULT:      43.0      0.000      0.000
REMARK  4 active torsions:
REMARK  status: ('A' for Active; 'I' for Inactive)
REMARK    1  A    between atoms: C_2  and  S_1 
REMARK    2  A    between atoms: N_7  and  S_1 
REMARK    3  A    between atoms: C_3  and  C_12 
REMARK    4  A    between atoms: C_15  and  N_7 
ROOT
ATOM      1  C   UNL d   1      46.094 -16.897  44.052  0.00  0.00     0.024 A 
ATOM      2  C   UNL d   1      45.898 -15.365  44.658  0.00  0.00     0.094 A 
ATOM      3  C   UNL d   1      45.488 -16.725  44.582  0.00  0.00     0.004 A 
ATOM      4  C   UNL d   1      46.612 -16.296  43.819  0.00  0.00     0.004 A 
ATOM      5  C   UNL d   1      45.392 -15.971  44.881  0.00  0.00     0.020 A 
ATOM      6  C   UNL d   1      46.518 -15.536  44.117  0.00  0.00     0.020 A 
ENDROOT
BRANCH   2   7
ATOM      7  N   UNL d   1      45.805 -14.611  44.954  0.00  0.00    -0.158 NA
BRANCH   7   8
ATOM      8  S   UNL d   1      45.577 -13.994  44.447  0.00  0.00     0.287 S 
ATOM      9  O   UNL d   1      46.335 -13.974  44.124  0.00  0.00    -0.198 OA
ATOM     10  O   UNL d   1      44.820 -14.012  44.770  0.00  0.00    -0.198 OA
BRANCH   8  11
ATOM     11  C   UNL d   1      45.357 -13.382  43.943  0.00  0.00     0.135 A 
ATOM     12  C   UNL d   1      44.681 -13.436  43.483  0.00  0.00     0.045 A 
ATOM     13  C   UNL d   1      44.464 -12.826  42.982  0.00  0.00     0.141 A 
ATOM     14  F   UNL d   1      43.783 -12.886  42.523  0.00  0.00    -0.204 F 
ATOM     15  C   UNL d   1      44.932 -12.148  42.939  0.00  0.00     0.032 A 
ATOM     16  C   UNL d   1      45.618 -12.080  43.397  0.00  0.00     0.033 A 
ATOM     17  C   UNL d   1      45.826 -12.704  43.900  0.00  0.00     0.152 A 
ATOM     18  F   UNL d   1      46.514 -12.638  44.361  0.00  0.00    -0.203 F 
ENDBRANCH   8  11
ENDBRANCH   7   8
ENDBRANCH   2   7
BRANCH   1  19
ATOM     19  C   UNL d   1      46.191 -17.659  43.751  0.00  0.00     0.112 A 
ATOM     20  S   UNL d   1      46.235 -18.346  44.198  0.00  0.00    -0.047 SA
ATOM     21  C   UNL d   1      46.334 -18.993  43.673  0.00  0.00     0.130 A 
ATOM     22  N   UNL d   1      46.410 -19.803  43.800  0.00  0.00    -0.236 NA
ATOM     23  C   UNL d   1      46.350 -18.684  42.899  0.00  0.00     0.106 A 
ATOM     24  C   UNL d   1      46.503 -20.309  43.151  0.00  0.00     0.100 A 
ATOM     25  C   UNL d   1      46.518 -20.006  42.380  0.00  0.00     0.022 A 
ATOM     26  C   UNL d   1      46.442 -19.197  42.256  0.00  0.00     0.023 A 
ATOM     27  N   UNL d   1      46.261 -17.856  42.950  0.00  0.00    -0.237 NA
ENDBRANCH   1  19
TORSDOF 4
ENDMDL
