MODEL 1
REMARK VINA RESULT:      -8.9      0.000      0.000
REMARK  7 active torsions:
REMARK  status: ('A' for Active; 'I' for Inactive)
REMARK    1  A    between atoms: C_3  and  N_1 
REMARK       I    between atoms: C_2  and  N_4 
REMARK    2  A    between atoms: C_11  and  C_2 
REMARK    3  A    between atoms: N_4  and  C_12 
REMARK    4  A    between atoms: O_5  and  C_11 
REMARK    5  A    between atoms: C_6  and  O_5 
REMARK    6  A    between atoms: O_15  and  C_8 
REMARK    7  A    between atoms: C_20  and  O_15 
ROOT
ATOM      1  C   UNL d   1      49.614  34.686  52.279  0.00  0.00     0.353 C 
ATOM      2  N   UNL d   1      50.337  34.437  52.585  0.00  0.00    -0.363 NA
ATOM      3  O   UNL d   1      49.388  34.459  51.519  0.00  0.00    -0.249 OA
ENDROOT
BRANCH   1   4
ATOM      4  C   UNL d   1      49.113  35.161  52.727  0.00  0.00     0.199 C 
BRANCH   4   5
ATOM      5  O   UNL d   1      48.396  35.428  52.411  0.00  0.00    -0.297 OA
BRANCH   5   6
ATOM      6  C   UNL d   1      47.867  35.855  52.877  0.00  0.00     0.123 A 
ATOM      7  C   UNL d   1      47.104  36.027  52.591  0.00  0.00     0.123 A 
ATOM      8  C   UNL d   1      46.575  36.453  53.055  0.00  0.00     0.027 A 
ATOM      9  C   UNL d   1      46.803  36.710  53.805  0.00  0.00     0.002 A 
ATOM     10  C   UNL d   1      47.558  36.540  54.088  0.00  0.00     0.002 A 
ATOM     11  C   UNL d   1      48.094  36.111  53.625  0.00  0.00     0.027 A 
BRANCH   7  12
ATOM     12  O   UNL d   1      46.878  35.766  51.835  0.00  0.00    -0.303 OA
BRANCH  12  13
ATOM     13  C   UNL d   1      46.115  35.917  51.560  0.00  0.00     0.123 C 
ATOM     14  C   UNL d   1      45.855  35.577  50.856  0.00  0.00     0.029 C 
ENDBRANCH  12  13
ENDBRANCH   7  12
ENDBRANCH   5   6
ENDBRANCH   4   5
ENDBRANCH   1   4
BRANCH   2  15
ATOM     15  C   UNL d   1      51.058  34.193  52.898  0.00  0.00     0.135 A 
ATOM     16  C   UNL d   1      51.733  34.648  52.796  0.00  0.00     0.034 A 
ATOM     17  C   UNL d   1      52.454  34.403  53.109  0.00  0.00     0.020 A 
ATOM     18  C   UNL d   1      52.504  33.693  53.531  0.00  0.00     0.064 A 
ATOM     19  C   UNL d   1      51.829  33.230  53.637  0.00  0.00     0.020 A 
ATOM     20  C   UNL d   1      51.098  33.473  53.323  0.00  0.00     0.034 A 
BRANCH  18  21
ATOM     21  N   UNL d   1      53.224  33.448  53.843  0.00  0.00    -0.304 N 
ATOM     22  C   UNL d   1      53.700  32.925  53.417  0.00  0.00     0.080 A 
ATOM     23  C   UNL d   1      54.415  32.681  53.724  0.00  0.00     0.019 A 
ATOM     24  C   UNL d   1      54.667  32.956  54.464  0.00  0.00     0.003 A 
ATOM     25  C   UNL d   1      54.191  33.479  54.890  0.00  0.00     0.019 A 
ATOM     26  C   UNL d   1      53.463  33.731  54.584  0.00  0.00     0.080 A 
ENDBRANCH  18  21
ENDBRANCH   2  15
TORSDOF 7
ENDMDL
MODEL 2
REMARK VINA RESULT:      -7.7      1.787      6.416
REMARK  7 active torsions:
REMARK  status: ('A' for Active; 'I' for Inactive)
REMARK    1  A    between atoms: C_3  and  N_1 
REMARK       I    between atoms: C_2  and  N_4 
REMARK    2  A    between atoms: C_11  and  C_2 
REMARK    3  A    between atoms: N_4  and  C_12 
REMARK    4  A    between atoms: O_5  and  C_11 
REMARK    5  A    between atoms: C_6  and  O_5 
REMARK    6  A    between atoms: O_15  and  C_8 
REMARK    7  A    between atoms: C_20  and  O_15 
ROOT
ATOM      1  C   UNL d   1      51.642  34.183  52.604  0.00  0.00     0.353 C 
ATOM      2  N   UNL d   1      50.866  34.437  52.495  0.00  0.00    -0.363 NA
ATOM      3  O   UNL d   1      52.268  34.708  52.485  0.00  0.00    -0.249 OA
ENDROOT
BRANCH   1   4
ATOM      4  C   UNL d   1      51.799  33.408  52.831  0.00  0.00     0.199 C 
BRANCH   4   5
ATOM      5  O   UNL d   1      52.448  33.237  53.316  0.00  0.00    -0.297 OA
BRANCH   5   6
ATOM      6  C   UNL d   1      52.749  32.471  53.357  0.00  0.00     0.123 A 
ATOM      7  C   UNL d   1      53.403  32.306  53.845  0.00  0.00     0.123 A 
ATOM      8  C   UNL d   1      53.704  31.541  53.887  0.00  0.00     0.027 A 
ATOM      9  C   UNL d   1      53.357  30.939  53.444  0.00  0.00     0.002 A 
ATOM     10  C   UNL d   1      52.710  31.103  52.961  0.00  0.00     0.002 A 
ATOM     11  C   UNL d   1      52.402  31.870  52.915  0.00  0.00     0.027 A 
BRANCH   7  12
ATOM     12  O   UNL d   1      53.751  32.915  54.291  0.00  0.00    -0.303 OA
BRANCH  12  13
ATOM     13  C   UNL d   1      54.370  32.743  54.808  0.00  0.00     0.123 C 
ATOM     14  C   UNL d   1      54.728  33.347  55.239  0.00  0.00     0.029 C 
ENDBRANCH  12  13
ENDBRANCH   7  12
ENDBRANCH   5   6
ENDBRANCH   4   5
ENDBRANCH   1   4
BRANCH   2  15
ATOM     15  C   UNL d   1      50.089  34.683  52.388  0.00  0.00     0.135 A 
ATOM     16  C   UNL d   1      49.679  35.052  52.997  0.00  0.00     0.034 A 
ATOM     17  C   UNL d   1      48.901  35.297  52.889  0.00  0.00     0.020 A 
ATOM     18  C   UNL d   1      48.523  35.174  52.164  0.00  0.00     0.064 A 
ATOM     19  C   UNL d   1      48.928  34.803  51.548  0.00  0.00     0.020 A 
ATOM     20  C   UNL d   1      49.714  34.553  51.651  0.00  0.00     0.034 A 
BRANCH  18  21
ATOM     21  N   UNL d   1      47.745  35.419  52.057  0.00  0.00    -0.304 N 
ATOM     22  C   UNL d   1      47.384  35.896  52.627  0.00  0.00     0.080 A 
ATOM     23  C   UNL d   1      46.613  36.141  52.525  0.00  0.00     0.019 A 
ATOM     24  C   UNL d   1      46.189  35.914  51.850  0.00  0.00     0.003 A 
ATOM     25  C   UNL d   1      46.551  35.438  51.281  0.00  0.00     0.019 A 
ATOM     26  C   UNL d   1      47.334  35.185  51.379  0.00  0.00     0.080 A 
ENDBRANCH  18  21
ENDBRANCH   2  15
TORSDOF 7
ENDMDL
MODEL 3
REMARK VINA RESULT:      -7.6      1.661      6.202
REMARK  7 active torsions:
REMARK  status: ('A' for Active; 'I' for Inactive)
REMARK    1  A    between atoms: C_3  and  N_1 
REMARK       I    between atoms: C_2  and  N_4 
REMARK    2  A    between atoms: C_11  and  C_2 
REMARK    3  A    between atoms: N_4  and  C_12 
REMARK    4  A    between atoms: O_5  and  C_11 
REMARK    5  A    between atoms: C_6  and  O_5 
REMARK    6  A    between atoms: O_15  and  C_8 
REMARK    7  A    between atoms: C_20  and  O_15 
ROOT
ATOM      1  C   UNL d   1      51.367  33.869  52.424  0.00  0.00     0.353 C 
ATOM      2  N   UNL d   1      50.644  34.262  52.457  0.00  0.00    -0.363 NA
ATOM      3  O   UNL d   1      51.634  33.556  51.709  0.00  0.00    -0.249 OA
ENDROOT
BRANCH   1   4
ATOM      4  C   UNL d   1      51.827  33.784  53.101  0.00  0.00     0.199 C 
BRANCH   4   5
ATOM      5  O   UNL d   1      52.385  33.174  53.155  0.00  0.00    -0.297 OA
BRANCH   5   6
ATOM      6  C   UNL d   1      52.949  33.176  53.755  0.00  0.00     0.123 A 
ATOM      7  C   UNL d   1      53.343  32.470  53.959  0.00  0.00     0.123 A 
ATOM      8  C   UNL d   1      53.907  32.471  54.558  0.00  0.00     0.027 A 
ATOM      9  C   UNL d   1      54.081  33.171  54.956  0.00  0.00     0.002 A 
ATOM     10  C   UNL d   1      53.691  33.869  54.754  0.00  0.00     0.002 A 
ATOM     11  C   UNL d   1      53.123  33.874  54.152  0.00  0.00     0.027 A 
BRANCH   7  12
ATOM     12  O   UNL d   1      53.165  31.766  53.555  0.00  0.00    -0.303 OA
BRANCH  12  13
ATOM     13  C   UNL d   1      53.552  31.067  53.759  0.00  0.00     0.123 C 
ATOM     14  C   UNL d   1      53.326  30.354  53.415  0.00  0.00     0.029 C 
ENDBRANCH  12  13
ENDBRANCH   7  12
ENDBRANCH   5   6
ENDBRANCH   4   5
ENDBRANCH   1   4
BRANCH   2  15
ATOM     15  C   UNL d   1      49.924  34.657  52.499  0.00  0.00     0.135 A 
ATOM     16  C   UNL d   1      49.700  35.047  53.186  0.00  0.00     0.034 A 
ATOM     17  C   UNL d   1      48.978  35.442  53.227  0.00  0.00     0.020 A 
ATOM     18  C   UNL d   1      48.471  35.449  52.573  0.00  0.00     0.064 A 
ATOM     19  C   UNL d   1      48.690  35.059  51.880  0.00  0.00     0.020 A 
ATOM     20  C   UNL d   1      49.417  34.659  51.833  0.00  0.00     0.034 A 
BRANCH  18  21
ATOM     21  N   UNL d   1      47.751  35.843  52.615  0.00  0.00    -0.304 N 
ATOM     22  C   UNL d   1      47.254  35.860  51.955  0.00  0.00     0.080 A 
ATOM     23  C   UNL d   1      46.538  36.251  51.993  0.00  0.00     0.019 A 
ATOM     24  C   UNL d   1      46.308  36.631  52.692  0.00  0.00     0.003 A 
ATOM     25  C   UNL d   1      46.804  36.614  53.351  0.00  0.00     0.019 A 
ATOM     26  C   UNL d   1      47.533  36.219  53.319  0.00  0.00     0.080 A 
ENDBRANCH  18  21
ENDBRANCH   2  15
TORSDOF 7
ENDMDL
MODEL 4
REMARK VINA RESULT:      -6.1      1.551      2.260
REMARK  7 active torsions:
REMARK  status: ('A' for Active; 'I' for Inactive)
REMARK    1  A    between atoms: C_3  and  N_1 
REMARK       I    between atoms: C_2  and  N_4 
REMARK    2  A    between atoms: C_11  and  C_2 
REMARK    3  A    between atoms: N_4  and  C_12 
REMARK    4  A    between atoms: O_5  and  C_11 
REMARK    5  A    between atoms: C_6  and  O_5 
REMARK    6  A    between atoms: O_15  and  C_8 
REMARK    7  A    between atoms: C_20  and  O_15 
ROOT
ATOM      1  C   UNL d   1      50.624  34.719  53.148  0.00  0.00     0.353 C 
ATOM      2  N   UNL d   1      51.082  34.036  53.182  0.00  0.00    -0.363 NA
ATOM      3  O   UNL d   1      50.890  35.412  53.509  0.00  0.00    -0.249 OA
ENDROOT
BRANCH   1   4
ATOM      4  C   UNL d   1      49.901  34.718  52.756  0.00  0.00     0.199 C 
BRANCH   4   5
ATOM      5  O   UNL d   1      49.297  35.235  52.988  0.00  0.00    -0.297 OA
BRANCH   5   6
ATOM      6  C   UNL d   1      48.640  35.353  52.505  0.00  0.00     0.123 A 
ATOM      7  C   UNL d   1      47.986  35.783  52.790  0.00  0.00     0.123 A 
ATOM      8  C   UNL d   1      47.329  35.902  52.309  0.00  0.00     0.027 A 
ATOM      9  C   UNL d   1      47.320  35.595  51.544  0.00  0.00     0.002 A 
ATOM     10  C   UNL d   1      47.967  35.170  51.262  0.00  0.00     0.002 A 
ATOM     11  C   UNL d   1      48.631  35.047  51.742  0.00  0.00     0.027 A 
BRANCH   7  12
ATOM     12  O   UNL d   1      47.998  36.091  53.562  0.00  0.00    -0.303 OA
BRANCH  12  13
ATOM     13  C   UNL d   1      47.326  36.460  53.867  0.00  0.00     0.123 C 
ATOM     14  C   UNL d   1      47.312  36.708  54.652  0.00  0.00     0.029 C 
ENDBRANCH  12  13
ENDBRANCH   7  12
ENDBRANCH   5   6
ENDBRANCH   4   5
ENDBRANCH   1   4
BRANCH   2  15
ATOM     15  C   UNL d   1      51.533  33.349  53.212  0.00  0.00     0.135 A 
ATOM     16  C   UNL d   1      52.291  33.359  53.529  0.00  0.00     0.034 A 
ATOM     17  C   UNL d   1      52.742  32.671  53.558  0.00  0.00     0.020 A 
ATOM     18  C   UNL d   1      52.435  31.961  53.267  0.00  0.00     0.064 A 
ATOM     19  C   UNL d   1      51.674  31.942  52.947  0.00  0.00     0.020 A 
ATOM     20  C   UNL d   1      51.214  32.634  52.915  0.00  0.00     0.034 A 
BRANCH  18  21
ATOM     21  N   UNL d   1      52.886  31.274  53.297  0.00  0.00    -0.304 N 
ATOM     22  C   UNL d   1      53.698  31.322  53.440  0.00  0.00     0.080 A 
ATOM     23  C   UNL d   1      54.149  30.643  53.470  0.00  0.00     0.019 A 
ATOM     24  C   UNL d   1      53.794  29.903  53.357  0.00  0.00     0.003 A 
ATOM     25  C   UNL d   1      52.983  29.854  53.213  0.00  0.00     0.019 A 
ATOM     26  C   UNL d   1      52.519  30.541  53.182  0.00  0.00     0.080 A 
ENDBRANCH  18  21
ENDBRANCH   2  15
TORSDOF 7
ENDMDL
