MODEL 1
REMARK VINA RESULT:      37.8      0.000      0.000
REMARK  8 active torsions:
REMARK  status: ('A' for Active; 'I' for Inactive)
REMARK    1  A    between atoms: C_5  and  C_1 
REMARK    2  A    between atoms: C_9  and  N_2 
REMARK    3  A    between atoms: C_8  and  C_5 
REMARK    4  A    between atoms: C_7  and  C_9 
REMARK       I    between atoms: N_12  and  C_7 
REMARK       I    between atoms: N_10  and  C_8 
REMARK    5  A    between atoms: C_20  and  N_10 
REMARK    6  A    between atoms: C_11  and  C_20 
REMARK    7  A    between atoms: C_23  and  N_12 
REMARK    8  A    between atoms: C_24  and  N_12 
ROOT
ATOM      1  C   UNL d   1      13.642  13.764  -3.385  0.00  0.00     0.063 A 
ATOM      2  N   UNL d   1      13.838  12.547  -2.861  0.00  0.00    -0.300 N 
ATOM      3  C   UNL d   1      13.943  13.352  -2.721  0.00  0.00     0.084 A 
ATOM      4  C   UNL d   1      13.356  13.208  -3.923  0.00  0.00     0.021 A 
ATOM      5  C   UNL d   1      13.480  12.450  -3.594  0.00  0.00     0.064 A 
ATOM      6  C   UNL d   1      13.006  13.282  -4.657  0.00  0.00     0.002 A 
ATOM      7  C   UNL d   1      13.244  11.782  -4.017  0.00  0.00     0.018 A 
ATOM      8  C   UNL d   1      12.769  12.611  -5.082  0.00  0.00     0.000 A 
ATOM      9  C   UNL d   1      12.891  11.862  -4.756  0.00  0.00     0.002 A 
ENDROOT
BRANCH   1  10
ATOM     10  C   UNL d   1      13.635  14.581  -3.478  0.00  0.00     0.254 C 
ATOM     11  O   UNL d   1      12.929  14.997  -3.372  0.00  0.00    -0.281 OA
BRANCH  10  12
ATOM     12  C   UNL d   1      14.325  14.987  -3.676  0.00  0.00     0.318 C 
ATOM     13  N   UNL d   1      14.718  15.432  -3.103  0.00  0.00    -0.202 NA
ATOM     14  O   UNL d   1      14.614  14.942  -4.446  0.00  0.00    -0.262 OA
BRANCH  13  15
ATOM     15  C   UNL d   1      14.423  15.469  -2.344  0.00  0.00     0.127 C 
BRANCH  15  16
ATOM     16  C   UNL d   1      14.775  15.958  -1.791  0.00  0.00     0.119 A 
ATOM     17  O   UNL d   1      15.213  16.644  -1.946  0.00  0.00    -0.304 OA
ATOM     18  C   UNL d   1      15.468  16.968  -1.229  0.00  0.00     0.123 A 
ATOM     19  C   UNL d   1      15.186  16.478  -0.615  0.00  0.00     0.029 A 
ATOM     20  C   UNL d   1      14.767  15.866  -0.958  0.00  0.00     0.028 A 
ENDBRANCH  15  16
ENDBRANCH  13  15
ENDBRANCH  10  12
ENDBRANCH   1  10
BRANCH   2  21
ATOM     21  C   UNL d   1      14.057  11.939  -2.348  0.00  0.00     0.142 C 
BRANCH  21  22
ATOM     22  C   UNL d   1      13.776  11.926  -1.579  0.00  0.00     0.282 C 
ATOM     23  N   UNL d   1      14.302  11.882  -0.944  0.00  0.00    -0.271 N 
ATOM     24  O   UNL d   1      12.961  11.957  -1.438  0.00  0.00    -0.265 OA
BRANCH  23  25
ATOM     25  C   UNL d   1      14.013  11.870  -0.170  0.00  0.00     0.083 C 
ATOM     26  C   UNL d   1      13.204  11.784  -0.034  0.00  0.00     0.021 C 
ENDBRANCH  23  25
BRANCH  23  27
ATOM     27  C   UNL d   1      15.113  11.851  -1.083  0.00  0.00     0.083 C 
ATOM     28  C   UNL d   1      15.640  11.950  -0.462  0.00  0.00     0.021 C 
ENDBRANCH  23  27
ENDBRANCH  21  22
ENDBRANCH   2  21
TORSDOF 8
ENDMDL
