MODEL 1
REMARK VINA RESULT:     100.6      0.000      0.000
REMARK  6 active torsions:
REMARK  status: ('A' for Active; 'I' for Inactive)
REMARK    1  A    between atoms: S_13  and  C_3 
REMARK    2  A    between atoms: C_21  and  C_4 
REMARK       I    between atoms: N_7  and  C_10 
REMARK    3  A    between atoms: C_10  and  C_20 
REMARK    4  A    between atoms: C_20  and  S_13 
REMARK    5  A    between atoms: O_24  and  C_16 
REMARK    6  A    between atoms: O_25  and  C_17 
ROOT
ATOM      1  N   UNL d   1      61.183  47.187  50.295  0.00  0.00    -0.272 N 
ATOM      2  C   UNL d   1      60.875  47.909  50.623  0.00  0.00     0.271 C 
ATOM      3  C   UNL d   1      61.375  45.783  50.379  0.00  0.00     0.020 A 
ATOM      4  C   UNL d   1      61.077  46.475  50.697  0.00  0.00     0.083 A 
ATOM      5  C   UNL d   1      61.770  45.795  49.676  0.00  0.00     0.005 A 
ATOM      6  C   UNL d   1      61.270  45.061  50.781  0.00  0.00     0.028 A 
ATOM      7  C   UNL d   1      61.568  44.360  50.464  0.00  0.00     0.116 A 
ATOM      8  C   UNL d   1      61.964  44.372  49.760  0.00  0.00     0.116 A 
ATOM      9  C   UNL d   1      62.075  45.086  49.350  0.00  0.00     0.026 A 
ATOM     10  C   UNL d   1      61.579  47.199  49.592  0.00  0.00     0.083 A 
ATOM     11  O   UNL d   1      60.471  47.888  51.344  0.00  0.00    -0.266 OA
ATOM     12  C   UNL d   1      61.882  46.499  49.266  0.00  0.00     0.019 A 
ENDROOT
BRANCH   2  13
ATOM     13  C   UNL d   1      60.982  48.621  50.220  0.00  0.00     0.099 C 
BRANCH  13  14
ATOM     14  S   UNL d   1      60.648  49.308  50.518  0.00  0.00    -0.043 SA
BRANCH  14  15
ATOM     15  C   UNL d   1      60.573  49.412  51.345  0.00  0.00     0.202 A 
ATOM     16  N   UNL d   1      59.877  49.516  51.737  0.00  0.00    -0.263 N 
ATOM     17  C   UNL d   1      60.058  49.596  52.532  0.00  0.00     0.202 A 
ATOM     18  C   UNL d   1      59.057  49.575  51.659  0.00  0.00     0.074 A 
ATOM     19  N   UNL d   1      60.866  49.541  52.624  0.00  0.00    -0.121 NA
ATOM     20  S   UNL d   1      59.352  49.705  52.951  0.00  0.00    -0.046 SA
ATOM     21  N   UNL d   1      61.182  49.426  51.880  0.00  0.00    -0.121 NA
ATOM     22  C   UNL d   1      58.729  49.691  52.407  0.00  0.00     0.056 A 
BRANCH  18  23
ATOM     23  C   UNL d   1      58.645  49.525  50.954  0.00  0.00     0.017 A 
ATOM     24  C   UNL d   1      59.038  49.688  50.235  0.00  0.00     0.002 A 
ATOM     25  C   UNL d   1      58.624  49.637  49.541  0.00  0.00     0.000 A 
ATOM     26  C   UNL d   1      57.831  49.429  49.523  0.00  0.00     0.000 A 
ATOM     27  C   UNL d   1      57.449  49.268  50.248  0.00  0.00     0.000 A 
ATOM     28  C   UNL d   1      57.859  49.318  50.945  0.00  0.00     0.002 A 
ENDBRANCH  18  23
ENDBRANCH  14  15
ENDBRANCH  13  14
ENDBRANCH   2  13
BRANCH   7  29
ATOM     29  O   UNL d   1      61.455  43.656  50.876  0.00  0.00    -0.326 OA
ATOM     30  C   UNL d   1      60.899  43.631  51.511  0.00  0.00     0.181 C 
ENDBRANCH   7  29
BRANCH   8  31
ATOM     31  O   UNL d   1      62.266  43.680  49.434  0.00  0.00    -0.326 OA
ATOM     32  C   UNL d   1      63.063  43.475  49.588  0.00  0.00     0.181 C 
ENDBRANCH   8  31
TORSDOF 6
ENDMDL
