MODEL 1
REMARK VINA RESULT:      88.6      0.000      0.000
REMARK  7 active torsions:
REMARK  status: ('A' for Active; 'I' for Inactive)
REMARK    1  A    between atoms: C_16  and  N_3 
REMARK    2  A    between atoms: C_15  and  N_8 
REMARK    3  A    between atoms: C_12  and  C_10 
REMARK    4  A    between atoms: C_11  and  N_14 
REMARK    5  A    between atoms: O_22  and  C_12 
REMARK    6  A    between atoms: C_13  and  C_15 
REMARK       I    between atoms: N_14  and  C_13 
REMARK    7  A    between atoms: C_28  and  O_22 
ROOT
ATOM      1  C   UNL d   1      59.715  49.034  50.786  0.00  0.00     0.191 A 
ATOM      2  C   UNL d   1      60.317  49.116  51.357  0.00  0.00     0.196 A 
ATOM      3  N   UNL d   1      59.037  49.406  51.085  0.00  0.00    -0.193 N 
ATOM      4  N   UNL d   1      59.222  49.707  51.823  0.00  0.00    -0.058 NA
ATOM      5  N   UNL d   1      59.995  49.537  51.995  0.00  0.00    -0.122 NA
ATOM      6  N   UNL d   1      59.871  48.639  50.088  0.00  0.00    -0.204 NA
ATOM      7  C   UNL d   1      61.056  48.801  51.213  0.00  0.00     0.289 A 
ATOM      8  N   UNL d   1      61.217  48.402  50.511  0.00  0.00    -0.249 N 
ATOM      9  C   UNL d   1      60.616  48.320  49.940  0.00  0.00     0.187 A 
ATOM     10  O   UNL d   1      61.657  48.884  51.784  0.00  0.00    -0.265 OA
ENDROOT
BRANCH   8  11
ATOM     11  C   UNL d   1      61.967  48.079  50.357  0.00  0.00     0.147 C 
BRANCH  11  12
ATOM     12  C   UNL d   1      62.040  47.362  49.942  0.00  0.00     0.297 C 
ATOM     13  N   UNL d   1      61.813  46.661  50.305  0.00  0.00    -0.207 NA
ATOM     14  O   UNL d   1      62.339  47.361  49.173  0.00  0.00    -0.264 OA
BRANCH  13  15
ATOM     15  C   UNL d   1      61.884  45.944  49.898  0.00  0.00     0.090 A 
ATOM     16  C   UNL d   1      61.462  45.295  50.151  0.00  0.00     0.081 A 
ATOM     17  C   UNL d   1      61.533  44.578  49.743  0.00  0.00     0.007 A 
ATOM     18  C   UNL d   1      62.028  44.525  49.085  0.00  0.00     0.000 A 
ATOM     19  C   UNL d   1      62.448  45.174  48.833  0.00  0.00     0.002 A 
ATOM     20  C   UNL d   1      62.376  45.883  49.239  0.00  0.00     0.019 A 
BRANCH  16  21
ATOM     21  C   UNL d   1      60.967  45.347  50.809  0.00  0.00     0.302 C 
ATOM     22  O   UNL d   1      60.773  46.090  51.119  0.00  0.00    -0.259 OA
BRANCH  21  23
ATOM     23  O   UNL d   1      60.668  44.659  51.155  0.00  0.00    -0.271 OA
BRANCH  23  24
ATOM     24  C   UNL d   1      60.948  44.407  51.893  0.00  0.00     0.126 C 
ATOM     25  C   UNL d   1      61.329  43.685  51.962  0.00  0.00     0.029 C 
ENDBRANCH  23  24
ENDBRANCH  21  23
ENDBRANCH  16  21
ENDBRANCH  13  15
ENDBRANCH  11  12
ENDBRANCH   8  11
BRANCH   3  26
ATOM     26  C   UNL d   1      58.307  49.480  50.747  0.00  0.00     0.086 A 
ATOM     27  C   UNL d   1      58.236  49.608  49.921  0.00  0.00     0.019 A 
ATOM     28  C   UNL d   1      57.501  49.682  49.588  0.00  0.00     0.002 A 
ATOM     29  C   UNL d   1      56.808  49.631  50.064  0.00  0.00     0.000 A 
ATOM     30  C   UNL d   1      56.886  49.507  50.863  0.00  0.00     0.002 A 
ATOM     31  C   UNL d   1      56.038  49.708  49.719  0.00  0.00     0.000 C 
ATOM     32  C   UNL d   1      57.627  49.431  51.213  0.00  0.00     0.019 A 
ENDBRANCH   3  26
TORSDOF 7
ENDMDL
MODEL 2
REMARK VINA RESULT:      88.8      1.697      5.293
REMARK  7 active torsions:
REMARK  status: ('A' for Active; 'I' for Inactive)
REMARK    1  A    between atoms: C_16  and  N_3 
REMARK    2  A    between atoms: C_15  and  N_8 
REMARK    3  A    between atoms: C_12  and  C_10 
REMARK    4  A    between atoms: C_11  and  N_14 
REMARK    5  A    between atoms: O_22  and  C_12 
REMARK    6  A    between atoms: C_13  and  C_15 
REMARK       I    between atoms: N_14  and  C_13 
REMARK    7  A    between atoms: C_28  and  O_22 
ROOT
ATOM      1  C   UNL d   1      60.903  47.195  50.596  0.00  0.00     0.191 A 
ATOM      2  C   UNL d   1      60.527  47.480  51.283  0.00  0.00     0.196 A 
ATOM      3  N   UNL d   1      61.238  46.459  50.784  0.00  0.00    -0.193 N 
ATOM      4  N   UNL d   1      61.069  46.302  51.569  0.00  0.00    -0.058 NA
ATOM      5  N   UNL d   1      60.640  46.914  51.879  0.00  0.00    -0.122 NA
ATOM      6  N   UNL d   1      60.885  47.638  49.911  0.00  0.00    -0.204 NA
ATOM      7  C   UNL d   1      60.145  48.201  51.264  0.00  0.00     0.289 A 
ATOM      8  N   UNL d   1      60.125  48.652  50.575  0.00  0.00    -0.249 N 
ATOM      9  C   UNL d   1      60.500  48.367  49.888  0.00  0.00     0.187 A 
ATOM     10  O   UNL d   1      59.770  48.487  51.951  0.00  0.00    -0.265 OA
ENDROOT
BRANCH   8  11
ATOM     11  C   UNL d   1      59.738  49.387  50.548  0.00  0.00     0.147 C 
BRANCH  11  12
ATOM     12  C   UNL d   1      59.032  49.477  50.119  0.00  0.00     0.297 C 
ATOM     13  N   UNL d   1      58.312  49.442  50.515  0.00  0.00    -0.207 NA
ATOM     14  O   UNL d   1      59.059  49.599  49.304  0.00  0.00    -0.264 OA
BRANCH  13  15
ATOM     15  C   UNL d   1      57.606  49.530  50.093  0.00  0.00     0.090 A 
ATOM     16  C   UNL d   1      56.899  49.565  50.496  0.00  0.00     0.081 A 
ATOM     17  C   UNL d   1      56.192  49.653  50.075  0.00  0.00     0.007 A 
ATOM     18  C   UNL d   1      56.207  49.705  49.252  0.00  0.00     0.000 A 
ATOM     19  C   UNL d   1      56.913  49.671  48.850  0.00  0.00     0.002 A 
ATOM     20  C   UNL d   1      57.612  49.584  49.270  0.00  0.00     0.019 A 
BRANCH  16  21
ATOM     21  C   UNL d   1      56.884  49.512  51.319  0.00  0.00     0.302 C 
ATOM     22  O   UNL d   1      57.561  49.701  51.757  0.00  0.00    -0.259 OA
BRANCH  21  23
ATOM     23  O   UNL d   1      56.192  49.271  51.704  0.00  0.00    -0.271 OA
BRANCH  23  24
ATOM     24  C   UNL d   1      56.035  49.525  52.476  0.00  0.00     0.126 C 
ATOM     25  C   UNL d   1      56.391  49.149  53.112  0.00  0.00     0.029 C 
ENDBRANCH  23  24
ENDBRANCH  21  23
ENDBRANCH  16  21
ENDBRANCH  13  15
ENDBRANCH  11  12
ENDBRANCH   8  11
BRANCH   3  26
ATOM     26  C   UNL d   1      61.660  45.958  50.312  0.00  0.00     0.086 A 
ATOM     27  C   UNL d   1      62.032  46.245  49.617  0.00  0.00     0.019 A 
ATOM     28  C   UNL d   1      62.454  45.736  49.148  0.00  0.00     0.002 A 
ATOM     29  C   UNL d   1      62.522  44.922  49.353  0.00  0.00     0.000 A 
ATOM     30  C   UNL d   1      62.158  44.652  50.027  0.00  0.00     0.002 A 
ATOM     31  C   UNL d   1      62.962  44.387  48.865  0.00  0.00     0.000 C 
ATOM     32  C   UNL d   1      61.727  45.159  50.512  0.00  0.00     0.019 A 
ENDBRANCH   3  26
TORSDOF 7
ENDMDL
