MODEL 1
REMARK VINA RESULT:      72.3      0.000      0.000
REMARK  4 active torsions:
REMARK  status: ('A' for Active; 'I' for Inactive)
REMARK    1  A    between atoms: C_4  and  C_1 
REMARK    2  A    between atoms: C_12  and  N_2 
REMARK    3  A    between atoms: C_11  and  N_5 
REMARK    4  A    between atoms: C_14  and  C_12 
ROOT
ATOM      1  C   UNL d   1     -49.973  25.974  33.537  0.00  0.00     0.149 A 
ATOM      2  N   UNL d   1     -50.632  25.463  33.451  0.00  0.00    -0.289 N 
ATOM      3  N   UNL d   1     -49.288  25.509  33.552  0.00  0.00    -0.227 NA
ATOM      4  C   UNL d   1     -50.342  24.684  33.414  0.00  0.00     0.083 A 
ATOM      5  C   UNL d   1     -49.516  24.707  33.476  0.00  0.00     0.099 A 
ATOM      6  C   UNL d   1     -50.729  23.951  33.331  0.00  0.00     0.019 A 
ATOM      7  C   UNL d   1     -49.075  24.013  33.456  0.00  0.00     0.021 A 
ATOM      8  C   UNL d   1     -50.280  23.254  33.312  0.00  0.00     0.002 A 
ATOM      9  C   UNL d   1     -49.455  23.285  33.374  0.00  0.00     0.002 A 
ENDROOT
BRANCH   1  10
ATOM     10  C   UNL d   1     -50.008  26.795  33.596  0.00  0.00     0.057 A 
ATOM     11  C   UNL d   1     -49.444  27.282  33.941  0.00  0.00     0.081 A 
ATOM     12  N   UNL d   1     -49.709  28.065  33.874  0.00  0.00    -0.298 N 
ATOM     13  C   UNL d   1     -50.436  28.058  33.488  0.00  0.00     0.261 A 
ATOM     14  C   UNL d   1     -50.624  27.272  33.314  0.00  0.00     0.065 A 
ATOM     15  O   UNL d   1     -50.895  28.714  33.306  0.00  0.00    -0.267 OA
BRANCH  12  16
ATOM     16  C   UNL d   1     -49.312  28.735  34.148  0.00  0.00     0.071 C 
ATOM     17  C   UNL d   1     -48.865  29.317  34.510  0.00  0.00     0.023 C 
ATOM     18  C   UNL d   1     -48.803  28.676  34.789  0.00  0.00     0.023 C 
ATOM     19  C   UNL d   1     -49.430  29.460  33.773  0.00  0.00     0.023 C 
ENDBRANCH  12  16
ENDBRANCH   1  10
BRANCH   2  20
ATOM     20  C   UNL d   1     -51.419  25.691  33.411  0.00  0.00     0.082 C 
BRANCH  20  21
ATOM     21  C   UNL d   1     -52.016  25.169  33.649  0.00  0.00     0.018 A 
ATOM     22  C   UNL d   1     -52.555  25.403  34.229  0.00  0.00     0.002 A 
ATOM     23  C   UNL d   1     -53.149  24.888  34.468  0.00  0.00     0.000 A 
ATOM     24  C   UNL d   1     -53.205  24.140  34.128  0.00  0.00     0.000 A 
ATOM     25  C   UNL d   1     -52.662  23.910  33.547  0.00  0.00     0.000 A 
ATOM     26  C   UNL d   1     -52.074  24.425  33.313  0.00  0.00     0.002 A 
ENDBRANCH  20  21
ENDBRANCH   2  20
TORSDOF 4
ENDMDL
