MODEL 1
REMARK VINA RESULT:      14.7      0.000      0.000
REMARK  7 active torsions:
REMARK  status: ('A' for Active; 'I' for Inactive)
REMARK    1  A    between atoms: C_7  and  C_1 
REMARK    2  A    between atoms: N_5  and  C_2 
REMARK       I    between atoms: C_8  and  N_5 
REMARK    3  A    between atoms: N_9  and  C_7 
REMARK    4  A    between atoms: C_11  and  C_7 
REMARK    5  A    between atoms: C_16  and  C_8 
REMARK    6  A    between atoms: C_21  and  N_10 
REMARK    7  A    between atoms: C_27  and  C_21 
ROOT
ATOM      1  C   UNL d   1     -42.915-122.187 -51.022  0.00  0.00     0.042 A 
ATOM      2  C   UNL d   1     -42.807-122.809 -50.485  0.00  0.00     0.115 A 
ATOM      3  C   UNL d   1     -43.679-121.930 -50.959  0.00  0.00     0.009 A 
ATOM      4  S   UNL d   1     -43.506-122.926 -50.098  0.00  0.00    -0.068 SA
ATOM      5  C   UNL d   1     -44.054-122.371 -50.399  0.00  0.00     0.031 A 
ATOM      6  C   UNL d   1     -44.052-121.288 -51.411  0.00  0.00     0.001 C 
ATOM      7  C   UNL d   1     -44.831-122.299 -50.158  0.00  0.00     0.007 C 
ENDROOT
BRANCH   1   8
ATOM      8  C   UNL d   1     -42.301-121.932 -51.503  0.00  0.00     0.084 C 
BRANCH   8   9
ATOM      9  N   UNL d   1     -42.092-122.402 -52.143  0.00  0.00    -0.300 N 
ATOM     10  C   UNL d   1     -41.440-122.912 -52.103  0.00  0.00     0.100 A 
ATOM     11  C   UNL d   1     -41.256-123.370 -52.758  0.00  0.00     0.100 A 
ATOM     12  N   UNL d   1     -41.691-123.338 -53.438  0.00  0.00    -0.297 N 
ATOM     13  C   UNL d   1     -42.343-122.828 -53.478  0.00  0.00     0.100 A 
ATOM     14  C   UNL d   1     -42.552-122.357 -52.838  0.00  0.00     0.100 A 
BRANCH  12  15
ATOM     15  C   UNL d   1     -41.488-123.814 -54.101  0.00  0.00     0.126 C 
BRANCH  15  16
ATOM     16  C   UNL d   1     -41.264-123.472 -54.820  0.00  0.00     0.253 C 
ATOM     17  O   UNL d   1     -41.829-123.292 -55.382  0.00  0.00    -0.281 OA
ENDBRANCH  15  16
ENDBRANCH  12  15
ENDBRANCH   8   9
BRANCH   8  18
ATOM     18  C   UNL d   1     -41.904-121.222 -51.348  0.00  0.00     0.098 A 
ATOM     19  N   UNL d   1     -41.866-120.937 -50.589  0.00  0.00    -0.243 NA
ATOM     20  C   UNL d   1     -41.464-120.227 -50.465  0.00  0.00     0.099 A 
ATOM     21  C   UNL d   1     -41.125-119.828 -51.045  0.00  0.00     0.021 A 
ATOM     22  C   UNL d   1     -41.155-120.104 -51.821  0.00  0.00     0.003 A 
ATOM     23  C   UNL d   1     -41.551-120.812 -51.975  0.00  0.00     0.021 A 
ENDBRANCH   8  18
ENDBRANCH   1   8
BRANCH   2  24
ATOM     24  N   UNL d   1     -42.086-123.167 -50.435  0.00  0.00    -0.201 NA
ATOM     25  C   UNL d   1     -41.844-123.450 -49.695  0.00  0.00     0.280 C 
ATOM     26  O   UNL d   1     -41.123-123.815 -49.619  0.00  0.00    -0.265 OA
BRANCH  25  27
ATOM     27  C   UNL d   1     -42.334-123.363 -49.032  0.00  0.00     0.058 A 
ATOM     28  C   UNL d   1     -43.013-123.817 -48.957  0.00  0.00     0.005 A 
ATOM     29  C   UNL d   1     -43.511-123.730 -48.289  0.00  0.00     0.000 A 
ATOM     30  C   UNL d   1     -43.316-123.185 -47.704  0.00  0.00     0.000 A 
ATOM     31  C   UNL d   1     -42.631-122.733 -47.789  0.00  0.00     0.000 A 
ATOM     32  C   UNL d   1     -42.137-122.814 -48.446  0.00  0.00     0.005 A 
ENDBRANCH  25  27
ENDBRANCH   2  24
TORSDOF 7
ENDMDL
MODEL 2
REMARK VINA RESULT:      15.1      1.545      4.490
REMARK  7 active torsions:
REMARK  status: ('A' for Active; 'I' for Inactive)
REMARK    1  A    between atoms: C_7  and  C_1 
REMARK    2  A    between atoms: N_5  and  C_2 
REMARK       I    between atoms: C_8  and  N_5 
REMARK    3  A    between atoms: N_9  and  C_7 
REMARK    4  A    between atoms: C_11  and  C_7 
REMARK    5  A    between atoms: C_16  and  C_8 
REMARK    6  A    between atoms: C_21  and  N_10 
REMARK    7  A    between atoms: C_27  and  C_21 
ROOT
ATOM      1  C   UNL d   1     -41.816-122.346 -52.400  0.00  0.00     0.042 A 
ATOM      2  C   UNL d   1     -42.049-122.007 -53.120  0.00  0.00     0.115 A 
ATOM      3  C   UNL d   1     -41.460-123.055 -52.559  0.00  0.00     0.009 A 
ATOM      4  S   UNL d   1     -41.833-122.512 -53.713  0.00  0.00    -0.068 SA
ATOM      5  C   UNL d   1     -41.462-123.171 -53.356  0.00  0.00     0.031 A 
ATOM      6  C   UNL d   1     -41.126-123.611 -51.980  0.00  0.00     0.001 C 
ATOM      7  C   UNL d   1     -41.159-123.815 -53.757  0.00  0.00     0.007 C 
ENDROOT
BRANCH   1   8
ATOM      8  C   UNL d   1     -41.958-121.965 -51.687  0.00  0.00     0.084 C 
BRANCH   8   9
ATOM      9  N   UNL d   1     -42.389-122.366 -51.115  0.00  0.00    -0.300 N 
ATOM     10  C   UNL d   1     -43.193-122.205 -50.993  0.00  0.00     0.100 A 
ATOM     11  C   UNL d   1     -43.596-122.622 -50.414  0.00  0.00     0.100 A 
ATOM     12  N   UNL d   1     -43.234-123.183 -49.962  0.00  0.00    -0.297 N 
ATOM     13  C   UNL d   1     -42.430-123.345 -50.083  0.00  0.00     0.100 A 
ATOM     14  C   UNL d   1     -41.999-122.944 -50.656  0.00  0.00     0.100 A 
BRANCH  12  15
ATOM     15  C   UNL d   1     -43.663-123.603 -49.371  0.00  0.00     0.126 C 
BRANCH  15  16
ATOM     16  C   UNL d   1     -43.432-123.580 -48.577  0.00  0.00     0.253 C 
ATOM     17  O   UNL d   1     -43.991-123.490 -47.990  0.00  0.00    -0.281 OA
ENDBRANCH  15  16
ENDBRANCH  12  15
ENDBRANCH   8   9
BRANCH   8  18
ATOM     18  C   UNL d   1     -41.676-121.199 -51.550  0.00  0.00     0.098 A 
ATOM     19  N   UNL d   1     -41.538-120.949 -50.790  0.00  0.00    -0.243 NA
ATOM     20  C   UNL d   1     -41.257-120.181 -50.683  0.00  0.00     0.099 A 
ATOM     21  C   UNL d   1     -41.123-119.694 -51.279  0.00  0.00     0.021 A 
ATOM     22  C   UNL d   1     -41.258-119.933 -52.057  0.00  0.00     0.003 A 
ATOM     23  C   UNL d   1     -41.539-120.696 -52.194  0.00  0.00     0.021 A 
ENDBRANCH   8  18
ENDBRANCH   1   8
BRANCH   2  24
ATOM     24  N   UNL d   1     -42.420-121.292 -53.118  0.00  0.00    -0.201 NA
ATOM     25  C   UNL d   1     -42.732-121.015 -53.834  0.00  0.00     0.280 C 
ATOM     26  O   UNL d   1     -43.111-120.297 -53.859  0.00  0.00    -0.265 OA
BRANCH  25  27
ATOM     27  C   UNL d   1     -42.659-121.467 -54.525  0.00  0.00     0.058 A 
ATOM     28  C   UNL d   1     -43.286-121.926 -54.788  0.00  0.00     0.005 A 
ATOM     29  C   UNL d   1     -43.215-122.384 -55.485  0.00  0.00     0.000 A 
ATOM     30  C   UNL d   1     -42.510-122.373 -55.910  0.00  0.00     0.000 A 
ATOM     31  C   UNL d   1     -41.885-121.908 -55.637  0.00  0.00     0.000 A 
ATOM     32  C   UNL d   1     -41.950-121.455 -54.950  0.00  0.00     0.005 A 
ENDBRANCH  25  27
ENDBRANCH   2  24
TORSDOF 7
ENDMDL
