MODEL 1
REMARK VINA RESULT:      -1.7      0.000      0.000
REMARK  8 active torsions:
REMARK  status: ('A' for Active; 'I' for Inactive)
REMARK    1  A    between atoms: C_2  and  C_4 
REMARK    2  A    between atoms: S_9  and  C_6 
REMARK    3  A    between atoms: C_7  and  C_17 
REMARK       I    between atoms: N_16  and  C_7 
REMARK    4  A    between atoms: C_17  and  S_9 
REMARK    5  A    between atoms: O_19  and  C_14 
REMARK    6  A    between atoms: C_15  and  C_21 
REMARK    7  A    between atoms: C_20  and  N_16 
REMARK    8  A    between atoms: C_21  and  C_20 
ROOT
ATOM      1  C   UNL d   1      33.067  20.022 -21.536  0.00  0.00     0.286 C 
ATOM      2  O   UNL d   1      32.717  19.698 -20.866  0.00  0.00    -0.265 OA
ATOM      3  N   UNL d   1      33.240  20.818 -21.557  0.00  0.00    -0.206 NA
ENDROOT
BRANCH   1   4
ATOM      4  C   UNL d   1      33.240  19.539 -22.184  0.00  0.00     0.099 C 
BRANCH   4   5
ATOM      5  S   UNL d   1      32.714  19.500 -22.813  0.00  0.00    -0.061 SA
BRANCH   5   6
ATOM      6  C   UNL d   1      32.534  18.775 -23.163  0.00  0.00     0.133 A 
ATOM      7  N   UNL d   1      31.786  18.633 -23.465  0.00  0.00    -0.141 NA
ATOM      8  N   UNL d   1      31.603  17.915 -23.812  0.00  0.00    -0.147 NA
ATOM      9  C   UNL d   1      32.179  17.327 -23.860  0.00  0.00     0.109 A 
ATOM     10  C   UNL d   1      32.937  17.463 -23.557  0.00  0.00     0.024 A 
ATOM     11  C   UNL d   1      33.112  18.180 -23.213  0.00  0.00     0.029 A 
BRANCH   9  12
ATOM     12  C   UNL d   1      32.003  16.602 -24.208  0.00  0.00     0.049 A 
ATOM     13  S   UNL d   1      31.297  16.183 -24.136  0.00  0.00    -0.085 SA
ATOM     14  C   UNL d   1      31.354  15.487 -24.573  0.00  0.00     0.035 A 
ATOM     15  C   UNL d   1      32.112  15.473 -24.925  0.00  0.00     0.007 A 
ATOM     16  C   UNL d   1      32.513  16.161 -24.700  0.00  0.00     0.009 A 
ENDBRANCH   9  12
ENDBRANCH   5   6
ENDBRANCH   4   5
ENDBRANCH   1   4
BRANCH   3  17
ATOM     17  C   UNL d   1      33.067  21.302 -20.909  0.00  0.00     0.102 C 
BRANCH  17  18
ATOM     18  C   UNL d   1      33.219  22.107 -20.942  0.00  0.00     0.023 C 
BRANCH  18  19
ATOM     19  C   UNL d   1      32.786  22.632 -20.472  0.00  0.00     0.024 A 
ATOM     20  C   UNL d   1      32.293  23.185 -20.818  0.00  0.00     0.094 A 
ATOM     21  C   UNL d   1      31.867  23.702 -20.356  0.00  0.00     0.024 A 
ATOM     22  C   UNL d   1      31.932  23.670 -19.530  0.00  0.00     0.002 A 
ATOM     23  C   UNL d   1      32.432  23.111 -19.181  0.00  0.00     0.000 A 
ATOM     24  C   UNL d   1      32.857  22.593 -19.657  0.00  0.00     0.002 A 
BRANCH  20  25
ATOM     25  O   UNL d   1      32.224  23.222 -21.635  0.00  0.00    -0.328 OA
ATOM     26  C   UNL d   1      31.588  23.619 -21.972  0.00  0.00     0.181 C 
ENDBRANCH  20  25
ENDBRANCH  18  19
ENDBRANCH  17  18
ENDBRANCH   3  17
TORSDOF 8
ENDMDL
MODEL 2
REMARK VINA RESULT:       0.8      0.978      1.346
REMARK  8 active torsions:
REMARK  status: ('A' for Active; 'I' for Inactive)
REMARK    1  A    between atoms: C_2  and  C_4 
REMARK    2  A    between atoms: S_9  and  C_6 
REMARK    3  A    between atoms: C_7  and  C_17 
REMARK       I    between atoms: N_16  and  C_7 
REMARK    4  A    between atoms: C_17  and  S_9 
REMARK    5  A    between atoms: O_19  and  C_14 
REMARK    6  A    between atoms: C_15  and  C_21 
REMARK    7  A    between atoms: C_20  and  N_16 
REMARK    8  A    between atoms: C_21  and  C_20 
ROOT
ATOM      1  C   UNL d   1      32.873  20.646 -20.957  0.00  0.00     0.286 C 
ATOM      2  O   UNL d   1      32.202  20.385 -20.559  0.00  0.00    -0.265 OA
ATOM      3  N   UNL d   1      33.170  21.389 -20.804  0.00  0.00    -0.206 NA
ENDROOT
BRANCH   1   4
ATOM      4  C   UNL d   1      33.241  20.153 -21.510  0.00  0.00     0.099 C 
BRANCH   4   5
ATOM      5  S   UNL d   1      33.014  20.188 -22.298  0.00  0.00    -0.061 SA
BRANCH   5   6
ATOM      6  C   UNL d   1      32.893  19.494 -22.728  0.00  0.00     0.133 A 
ATOM      7  N   UNL d   1      32.503  19.513 -23.448  0.00  0.00    -0.141 NA
ATOM      8  N   UNL d   1      32.381  18.828 -23.878  0.00  0.00    -0.147 NA
ATOM      9  C   UNL d   1      32.655  18.108 -23.583  0.00  0.00     0.109 A 
ATOM     10  C   UNL d   1      33.049  18.081 -22.857  0.00  0.00     0.024 A 
ATOM     11  C   UNL d   1      33.167  18.766 -22.434  0.00  0.00     0.029 A 
BRANCH   9  12
ATOM     12  C   UNL d   1      32.536  17.414 -24.010  0.00  0.00     0.049 A 
ATOM     13  S   UNL d   1      32.707  17.294 -24.806  0.00  0.00    -0.085 SA
ATOM     14  C   UNL d   1      32.503  16.521 -25.010  0.00  0.00     0.035 A 
ATOM     15  C   UNL d   1      32.197  16.154 -24.325  0.00  0.00     0.007 A 
ATOM     16  C   UNL d   1      32.217  16.704 -23.706  0.00  0.00     0.009 A 
ENDBRANCH   9  12
ENDBRANCH   5   6
ENDBRANCH   4   5
ENDBRANCH   1   4
BRANCH   3  17
ATOM     17  C   UNL d   1      32.802  21.882 -20.252  0.00  0.00     0.102 C 
BRANCH  17  18
ATOM     18  C   UNL d   1      33.240  22.439 -19.838  0.00  0.00     0.023 C 
BRANCH  18  19
ATOM     19  C   UNL d   1      32.971  22.725 -19.111  0.00  0.00     0.024 A 
ATOM     20  C   UNL d   1      32.447  23.352 -19.082  0.00  0.00     0.094 A 
ATOM     21  C   UNL d   1      32.181  23.633 -18.366  0.00  0.00     0.024 A 
ATOM     22  C   UNL d   1      32.442  23.284 -17.661  0.00  0.00     0.002 A 
ATOM     23  C   UNL d   1      32.972  22.649 -17.691  0.00  0.00     0.000 A 
ATOM     24  C   UNL d   1      33.234  22.373 -18.420  0.00  0.00     0.002 A 
BRANCH  20  25
ATOM     25  O   UNL d   1      32.185  23.702 -19.777  0.00  0.00    -0.328 OA
ATOM     26  C   UNL d   1      31.391  23.652 -19.982  0.00  0.00     0.181 C 
ENDBRANCH  20  25
ENDBRANCH  18  19
ENDBRANCH  17  18
ENDBRANCH   3  17
TORSDOF 8
ENDMDL
