MODEL 1
REMARK VINA RESULT:     154.3      0.000      0.000
REMARK  3 active torsions:
REMARK  status: ('A' for Active; 'I' for Inactive)
REMARK    1  A    between atoms: C_5  and  N_1 
REMARK    2  A    between atoms: C_13  and  C_6 
REMARK    3  A    between atoms: O_24  and  C_19 
ROOT
ATOM      1  N   UNL d   1     -55.567-101.480 -44.038  0.00  0.00    -0.256 N 
ATOM      2  C   UNL d   1     -55.638-100.609 -43.020  0.00  0.00     0.083 A 
ATOM      3  C   UNL d   1     -55.197-101.258 -42.773  0.00  0.00     0.161 A 
ATOM      4  C   UNL d   1     -55.150-101.800 -43.399  0.00  0.00     0.289 A 
ATOM      5  C   UNL d   1     -55.869-100.742 -43.803  0.00  0.00     0.075 A 
ATOM      6  C   UNL d   1     -55.776 -99.978 -42.507  0.00  0.00     0.201 A 
ATOM      7  O   UNL d   1     -54.889-101.277 -42.000  0.00  0.00    -0.302 OA
ATOM      8  C   UNL d   1     -55.469-100.000 -41.742  0.00  0.00     0.063 A 
ATOM      9  C   UNL d   1     -55.027-100.648 -41.491  0.00  0.00     0.103 A 
ATOM     10  O   UNL d   1     -54.763-102.521 -43.390  0.00  0.00    -0.264 OA
ATOM     11  O   UNL d   1     -56.217 -99.329 -42.753  0.00  0.00    -0.286 OA
ATOM     12  C   UNL d   1     -55.606 -99.368 -41.225  0.00  0.00     0.017 A 
ATOM     13  C   UNL d   1     -54.720-100.663 -40.716  0.00  0.00     0.026 A 
ATOM     14  C   UNL d   1     -55.304 -99.384 -40.463  0.00  0.00     0.058 A 
ATOM     15  C   UNL d   1     -54.859-100.034 -40.208  0.00  0.00     0.013 A 
ATOM     16 CL   UNL d   1     -55.439 -98.759 -39.952  0.00  0.00    -0.082 Cl
ENDROOT
BRANCH   5  17
ATOM     17  C   UNL d   1     -56.310-100.094 -44.053  0.00  0.00     0.039 A 
ATOM     18  C   UNL d   1     -55.975 -99.523 -44.549  0.00  0.00     0.096 A 
ATOM     19  C   UNL d   1     -56.420 -98.878 -44.797  0.00  0.00     0.024 A 
ATOM     20  C   UNL d   1     -57.210 -98.795 -44.551  0.00  0.00     0.002 A 
ATOM     21  C   UNL d   1     -57.546 -99.365 -44.055  0.00  0.00     0.000 A 
ATOM     22  C   UNL d   1     -57.093-100.016 -43.807  0.00  0.00     0.003 A 
BRANCH  18  23
ATOM     23  O   UNL d   1     -55.192 -99.610 -44.790  0.00  0.00    -0.328 OA
ATOM     24  C   UNL d   1     -54.717 -98.944 -44.880  0.00  0.00     0.181 C 
ENDBRANCH  18  23
ENDBRANCH   5  17
BRANCH   1  25
ATOM     25  C   UNL d   1     -55.667-101.828 -44.777  0.00  0.00     0.179 A 
ATOM     26  N   UNL d   1     -55.084-101.941 -45.341  0.00  0.00    -0.108 NA
ATOM     27  O   UNL d   1     -55.424-102.308 -45.995  0.00  0.00    -0.210 OA
ATOM     28  C   UNL d   1     -56.223-102.422 -45.832  0.00  0.00     0.128 A 
ATOM     29  C   UNL d   1     -56.378-102.126 -45.080  0.00  0.00     0.067 A 
ATOM     30  C   UNL d   1     -56.777-102.771 -46.335  0.00  0.00     0.029 C 
ENDBRANCH   1  25
TORSDOF 3
ENDMDL
