MODEL 1
REMARK VINA RESULT:       7.3      0.000      0.000
REMARK  10 active torsions:
REMARK  status: ('A' for Active; 'I' for Inactive)
REMARK    1  A    between atoms: C_16  and  N_1 
REMARK    2  A    between atoms: S_10  and  C_2 
REMARK    3  A    between atoms: N_8  and  C_9 
REMARK    4  A    between atoms: C_18  and  S_10 
REMARK    5  A    between atoms: C_12  and  C_18 
REMARK       I    between atoms: N_19  and  C_12 
REMARK    6  A    between atoms: C_27  and  C_16 
REMARK    7  A    between atoms: C_25  and  N_19 
REMARK    8  A    between atoms: O_22  and  C_26 
REMARK    9  A    between atoms: C_26  and  C_25 
REMARK   10  A    between atoms: C_29  and  C_27 
ROOT
ATOM      1  N   UNL d   1     -41.675-121.740 -52.049  0.00  0.00    -0.253 N 
ATOM      2  C   UNL d   1     -41.530-122.540 -51.877  0.00  0.00     0.182 A 
ATOM      3  C   UNL d   1     -41.847-121.504 -52.816  0.00  0.00     0.268 A 
ATOM      4  C   UNL d   1     -41.872-122.077 -53.413  0.00  0.00     0.076 A 
ATOM      5  N   UNL d   1     -41.558-123.101 -52.472  0.00  0.00    -0.222 NA
ATOM      6  C   UNL d   1     -41.729-122.870 -53.242  0.00  0.00     0.088 A 
ATOM      7  C   UNL d   1     -42.043-121.836 -54.173  0.00  0.00     0.024 A 
ATOM      8  C   UNL d   1     -42.073-122.401 -54.787  0.00  0.00     0.065 A 
ATOM      9  O   UNL d   1     -41.990-120.710 -52.987  0.00  0.00    -0.267 OA
ATOM     10  C   UNL d   1     -41.756-123.432 -53.841  0.00  0.00     0.021 A 
ATOM     11  C   UNL d   1     -41.926-123.200 -54.603  0.00  0.00     0.019 A 
ENDROOT
BRANCH   2  12
ATOM     12  S   UNL d   1     -41.357-122.767 -51.091  0.00  0.00    -0.044 SA
BRANCH  12  13
ATOM     13  C   UNL d   1     -41.721-123.433 -50.772  0.00  0.00     0.101 C 
BRANCH  13  14
ATOM     14  C   UNL d   1     -41.765-123.541 -49.952  0.00  0.00     0.286 C 
ATOM     15  O   UNL d   1     -41.123-123.817 -49.533  0.00  0.00    -0.265 OA
ATOM     16  N   UNL d   1     -42.464-123.369 -49.545  0.00  0.00    -0.204 NA
BRANCH  16  17
ATOM     17  C   UNL d   1     -42.514-123.476 -48.714  0.00  0.00     0.129 C 
BRANCH  17  18
ATOM     18  C   UNL d   1     -43.107-123.105 -48.305  0.00  0.00     0.137 C 
BRANCH  18  19
ATOM     19  O   UNL d   1     -42.930-122.721 -47.599  0.00  0.00    -0.325 OA
ATOM     20  C   UNL d   1     -42.960-123.134 -46.890  0.00  0.00     0.182 C 
ENDBRANCH  18  19
ENDBRANCH  17  18
ENDBRANCH  16  17
ENDBRANCH  13  14
ENDBRANCH  12  13
ENDBRANCH   2  12
BRANCH   1  21
ATOM     21  C   UNL d   1     -41.645-121.174 -51.434  0.00  0.00     0.085 C 
BRANCH  21  22
ATOM     22  C   UNL d   1     -41.123-120.550 -51.487  0.00  0.00     0.019 C 
BRANCH  22  23
ATOM     23  C   UNL d   1     -41.165-119.931 -50.949  0.00  0.00     0.002 C 
ATOM     24  C   UNL d   1     -41.238-120.089 -50.136  0.00  0.00     0.000 C 
ENDBRANCH  22  23
ENDBRANCH  21  22
ENDBRANCH   1  21
BRANCH   8  25
ATOM     25  N   UNL d   1     -42.244-122.171 -55.557  0.00  0.00    -0.300 N 
ATOM     26  C   UNL d   1     -43.025-122.218 -55.829  0.00  0.00     0.107 A 
ATOM     27  C   UNL d   1     -43.193-121.984 -56.606  0.00  0.00     0.142 A 
ATOM     28  O   UNL d   1     -42.588-121.707 -57.106  0.00  0.00    -0.300 OA
ATOM     29  C   UNL d   1     -41.811-121.664 -56.823  0.00  0.00     0.142 A 
ATOM     30  C   UNL d   1     -41.628-121.894 -56.049  0.00  0.00     0.107 A 
ENDBRANCH   8  25
TORSDOF 10
ENDMDL
MODEL 2
REMARK VINA RESULT:      10.2      1.266      5.924
REMARK  10 active torsions:
REMARK  status: ('A' for Active; 'I' for Inactive)
REMARK    1  A    between atoms: C_16  and  N_1 
REMARK    2  A    between atoms: S_10  and  C_2 
REMARK    3  A    between atoms: N_8  and  C_9 
REMARK    4  A    between atoms: C_18  and  S_10 
REMARK    5  A    between atoms: C_12  and  C_18 
REMARK       I    between atoms: N_19  and  C_12 
REMARK    6  A    between atoms: C_27  and  C_16 
REMARK    7  A    between atoms: C_25  and  N_19 
REMARK    8  A    between atoms: O_22  and  C_26 
REMARK    9  A    between atoms: C_26  and  C_25 
REMARK   10  A    between atoms: C_29  and  C_27 
ROOT
ATOM      1  N   UNL d   1     -41.645-122.848 -51.885  0.00  0.00    -0.253 N 
ATOM      2  C   UNL d   1     -42.168-122.231 -52.082  0.00  0.00     0.182 A 
ATOM      3  C   UNL d   1     -41.640-123.164 -51.128  0.00  0.00     0.268 A 
ATOM      4  C   UNL d   1     -42.163-122.856 -50.565  0.00  0.00     0.076 A 
ATOM      5  N   UNL d   1     -42.681-121.933 -51.520  0.00  0.00    -0.222 NA
ATOM      6  C   UNL d   1     -42.681-122.245 -50.760  0.00  0.00     0.088 A 
ATOM      7  C   UNL d   1     -42.153-123.174 -49.815  0.00  0.00     0.024 A 
ATOM      8  C   UNL d   1     -42.674-122.876 -49.234  0.00  0.00     0.065 A 
ATOM      9  O   UNL d   1     -41.123-123.775 -50.934  0.00  0.00    -0.267 OA
ATOM     10  C   UNL d   1     -43.196-121.947 -50.194  0.00  0.00     0.021 A 
ATOM     11  C   UNL d   1     -43.192-122.259 -49.442  0.00  0.00     0.019 A 
ENDROOT
BRANCH   2  12
ATOM     12  S   UNL d   1     -42.162-121.919 -52.857  0.00  0.00    -0.044 SA
BRANCH  12  13
ATOM     13  C   UNL d   1     -42.283-121.112 -52.970  0.00  0.00     0.101 C 
BRANCH  13  14
ATOM     14  C   UNL d   1     -42.132-120.759 -53.703  0.00  0.00     0.286 C 
ATOM     15  O   UNL d   1     -41.641-120.110 -53.761  0.00  0.00    -0.265 OA
ATOM     16  N   UNL d   1     -42.477-121.060 -54.391  0.00  0.00    -0.204 NA
BRANCH  16  17
ATOM     17  C   UNL d   1     -42.327-120.707 -55.137  0.00  0.00     0.129 C 
BRANCH  17  18
ATOM     18  C   UNL d   1     -42.219-121.183 -55.784  0.00  0.00     0.137 C 
BRANCH  18  19
ATOM     19  O   UNL d   1     -42.874-121.512 -56.158  0.00  0.00    -0.325 OA
ATOM     20  C   UNL d   1     -42.874-122.309 -56.357  0.00  0.00     0.182 C 
ENDBRANCH  18  19
ENDBRANCH  17  18
ENDBRANCH  16  17
ENDBRANCH  13  14
ENDBRANCH  12  13
ENDBRANCH   2  12
BRANCH   1  21
ATOM     21  C   UNL d   1     -41.123-123.147 -52.467  0.00  0.00     0.085 C 
BRANCH  21  22
ATOM     22  C   UNL d   1     -41.334-123.808 -52.894  0.00  0.00     0.019 C 
BRANCH  22  23
ATOM     23  C   UNL d   1     -41.244-123.817 -53.711  0.00  0.00     0.002 C 
ATOM     24  C   UNL d   1     -41.913-123.816 -54.204  0.00  0.00     0.000 C 
ENDBRANCH  22  23
ENDBRANCH  21  22
ENDBRANCH   1  21
BRANCH   8  25
ATOM     25  N   UNL d   1     -42.673-123.189 -48.473  0.00  0.00    -0.300 N 
ATOM     26  C   UNL d   1     -43.394-123.293 -48.079  0.00  0.00     0.107 A 
ATOM     27  C   UNL d   1     -43.388-123.608 -47.312  0.00  0.00     0.142 A 
ATOM     28  O   UNL d   1     -42.672-123.816 -46.945  0.00  0.00    -0.300 OA
ATOM     29  C   UNL d   1     -41.958-123.708 -47.350  0.00  0.00     0.142 A 
ATOM     30  C   UNL d   1     -41.948-123.394 -48.116  0.00  0.00     0.107 A 
ENDBRANCH   8  25
TORSDOF 10
ENDMDL
