MODEL 1
REMARK VINA RESULT:      -1.6      0.000      0.000
REMARK  5 active torsions:
REMARK  status: ('A' for Active; 'I' for Inactive)
REMARK    1  A    between atoms: C_10  and  C_3 
REMARK    2  A    between atoms: N_12  and  C_4 
REMARK    3  A    between atoms: N_11  and  C_21 
REMARK    4  A    between atoms: C_20  and  N_12 
REMARK    5  A    between atoms: C_21  and  C_20 
ROOT
ATOM      1  C   UNL d   1     -41.487-122.184 -52.963  0.00  0.00     0.168 A 
ATOM      2  N   UNL d   1     -41.393-122.544 -52.197  0.00  0.00    -0.184 N 
ATOM      3  C   UNL d   1     -41.658-122.643 -53.610  0.00  0.00     0.057 A 
ATOM      4  C   UNL d   1     -41.224-122.071 -51.565  0.00  0.00     0.218 A 
ATOM      5  N   UNL d   1     -41.649-123.817 -52.779  0.00  0.00    -0.160 NA
ATOM      6  N   UNL d   1     -41.406-121.376 -53.046  0.00  0.00    -0.227 NA
ATOM      7  C   UNL d   1     -41.139-121.255 -51.638  0.00  0.00     0.071 A 
ATOM      8  C   UNL d   1     -41.741-123.469 -53.521  0.00  0.00     0.124 A 
ATOM      9  C   UNL d   1     -41.232-120.901 -52.392  0.00  0.00     0.087 A 
ATOM     10  C   UNL d   1     -41.146-120.049 -52.478  0.00  0.00     0.021 C 
ENDROOT
BRANCH   4  11
ATOM     11  N   UNL d   1     -41.128-122.431 -50.790  0.00  0.00    -0.379 NA
BRANCH  11  12
ATOM     12  C   UNL d   1     -41.248-122.823 -50.039  0.00  0.00     0.182 C 
BRANCH  12  13
ATOM     13  C   UNL d   1     -41.960-122.689 -49.619  0.00  0.00     0.116 C 
BRANCH  13  14
ATOM     14  N   UNL d   1     -42.033-122.968 -48.805  0.00  0.00    -0.297 N 
ATOM     15  C   UNL d   1     -41.449-122.756 -48.233  0.00  0.00     0.107 A 
ATOM     16  C   UNL d   1     -41.520-123.036 -47.412  0.00  0.00     0.142 A 
ATOM     17  O   UNL d   1     -42.165-123.516 -47.181  0.00  0.00    -0.300 OA
ATOM     18  C   UNL d   1     -42.772-123.741 -47.758  0.00  0.00     0.142 A 
ATOM     19  C   UNL d   1     -42.706-123.466 -48.576  0.00  0.00     0.107 A 
ENDBRANCH  13  14
ENDBRANCH  12  13
ENDBRANCH  11  12
ENDBRANCH   4  11
BRANCH   3  20
ATOM     20  C   UNL d   1     -41.749-122.295 -54.352  0.00  0.00     0.005 A 
ATOM     21  C   UNL d   1     -42.445-121.914 -54.538  0.00  0.00     0.001 A 
ATOM     22  C   UNL d   1     -42.535-121.571 -55.268  0.00  0.00     0.011 A 
ATOM     23  C   UNL d   1     -41.930-121.603 -55.824  0.00  0.00     0.058 A 
ATOM     24  C   UNL d   1     -41.234-121.985 -55.637  0.00  0.00     0.011 A 
ATOM     25 CL   UNL d   1     -42.026-121.238 -56.602  0.00  0.00    -0.082 Cl
ATOM     26  C   UNL d   1     -41.143-122.333 -54.895  0.00  0.00     0.001 A 
ENDBRANCH   3  20
TORSDOF 5
ENDMDL
MODEL 2
REMARK VINA RESULT:      -0.9      2.762      5.549
REMARK  5 active torsions:
REMARK  status: ('A' for Active; 'I' for Inactive)
REMARK    1  A    between atoms: C_10  and  C_3 
REMARK    2  A    between atoms: N_12  and  C_4 
REMARK    3  A    between atoms: N_11  and  C_21 
REMARK    4  A    between atoms: C_20  and  N_12 
REMARK    5  A    between atoms: C_21  and  C_20 
ROOT
ATOM      1  C   UNL d   1     -41.586-122.399 -50.830  0.00  0.00     0.168 A 
ATOM      2  N   UNL d   1     -41.466-122.434 -51.672  0.00  0.00    -0.184 N 
ATOM      3  C   UNL d   1     -41.808-123.064 -50.423  0.00  0.00     0.057 A 
ATOM      4  C   UNL d   1     -41.246-121.762 -52.061  0.00  0.00     0.218 A 
ATOM      5  N   UNL d   1     -41.801-123.817 -51.649  0.00  0.00    -0.160 NA
ATOM      6  N   UNL d   1     -41.478-121.693 -50.433  0.00  0.00    -0.227 NA
ATOM      7  C   UNL d   1     -41.134-121.045 -51.670  0.00  0.00     0.071 A 
ATOM      8  C   UNL d   1     -41.917-123.783 -50.833  0.00  0.00     0.124 A 
ATOM      9  C   UNL d   1     -41.252-121.010 -50.841  0.00  0.00     0.087 A 
ATOM     10  C   UNL d   1     -41.139-120.267 -50.423  0.00  0.00     0.021 C 
ENDROOT
BRANCH   4  11
ATOM     11  N   UNL d   1     -41.123-121.794 -52.912  0.00  0.00    -0.379 NA
BRANCH  11  12
ATOM     12  C   UNL d   1     -41.197-121.725 -53.762  0.00  0.00     0.182 C 
BRANCH  12  13
ATOM     13  C   UNL d   1     -41.491-122.375 -54.199  0.00  0.00     0.116 C 
BRANCH  13  14
ATOM     14  N   UNL d   1     -41.989-122.232 -54.891  0.00  0.00    -0.297 N 
ATOM     15  C   UNL d   1     -42.754-122.586 -54.941  0.00  0.00     0.107 A 
ATOM     16  C   UNL d   1     -43.256-122.444 -55.636  0.00  0.00     0.142 A 
ATOM     17  O   UNL d   1     -42.988-121.956 -56.261  0.00  0.00    -0.300 OA
ATOM     18  C   UNL d   1     -42.205-121.586 -56.223  0.00  0.00     0.142 A 
ATOM     19  C   UNL d   1     -41.701-121.725 -55.533  0.00  0.00     0.107 A 
ENDBRANCH  13  14
ENDBRANCH  12  13
ENDBRANCH  11  12
ENDBRANCH   4  11
BRANCH   3  20
ATOM     20  C   UNL d   1     -41.924-123.030 -49.607  0.00  0.00     0.005 A 
ATOM     21  C   UNL d   1     -41.283-123.048 -49.105  0.00  0.00     0.001 A 
ATOM     22  C   UNL d   1     -41.398-123.014 -48.302  0.00  0.00     0.011 A 
ATOM     23  C   UNL d   1     -42.156-122.962 -47.988  0.00  0.00     0.058 A 
ATOM     24  C   UNL d   1     -42.797-122.944 -48.491  0.00  0.00     0.011 A 
ATOM     25 CL   UNL d   1     -42.278-122.926 -47.133  0.00  0.00    -0.082 Cl
ATOM     26  C   UNL d   1     -42.680-122.978 -49.307  0.00  0.00     0.001 A 
ENDBRANCH   3  20
TORSDOF 5
ENDMDL
