MODEL 1
REMARK VINA RESULT:      -7.0      0.000      0.000
REMARK  6 active torsions:
REMARK  status: ('A' for Active; 'I' for Inactive)
REMARK    1  A    between atoms: N_3  and  C_1 
REMARK       I    between atoms: C_5  and  N_3 
REMARK    2  A    between atoms: C_19  and  N_3 
REMARK    3  A    between atoms: C_8  and  C_5 
REMARK    4  A    between atoms: C_20  and  C_19 
REMARK    5  A    between atoms: C_23  and  C_20 
REMARK    6  A    between atoms: N_21  and  C_23 
ROOT
ATOM      1  N   UNL d   1      52.390  33.642  53.397  0.00  0.00    -0.253 N 
ATOM      2  C   UNL d   1      52.106  34.360  53.104  0.00  0.00     0.266 C 
ATOM      3  O   UNL d   1      52.490  35.058  53.275  0.00  0.00    -0.267 OA
ENDROOT
BRANCH   1   4
ATOM      4  C   UNL d   1      53.075  33.639  53.871  0.00  0.00     0.182 A 
ATOM      5  N   UNL d   1      53.849  33.570  53.595  0.00  0.00    -0.222 NA
ATOM      6  C   UNL d   1      54.360  33.592  54.238  0.00  0.00     0.089 A 
ATOM      7  C   UNL d   1      55.172  33.548  54.302  0.00  0.00     0.018 A 
ATOM      8  C   UNL d   1      53.897  33.676  54.921  0.00  0.00     0.050 A 
ATOM      9  C   UNL d   1      55.538  33.586  55.037  0.00  0.00     0.002 A 
ATOM     10  C   UNL d   1      55.642  33.464  53.624  0.00  0.00     0.002 C 
ATOM     11  C   UNL d   1      55.076  33.669  55.709  0.00  0.00     0.001 A 
ATOM     12  C   UNL d   1      54.256  33.713  55.644  0.00  0.00     0.008 A 
ATOM     13  S   UNL d   1      53.102  33.705  54.696  0.00  0.00    -0.048 SA
ENDBRANCH   1   4
BRANCH   1  14
ATOM     14  C   UNL d   1      52.002  32.936  53.224  0.00  0.00     0.086 C 
BRANCH  14  15
ATOM     15  C   UNL d   1      52.433  32.230  53.176  0.00  0.00     0.038 C 
BRANCH  15  16
ATOM     16  C   UNL d   1      52.048  31.528  52.980  0.00  0.00     0.082 C 
BRANCH  16  17
ATOM     17  N   UNL d   1      52.457  30.814  53.004  0.00  0.00    -0.300 N 
ATOM     18  C   UNL d   1      53.041  30.655  52.446  0.00  0.00     0.100 C 
ATOM     19  C   UNL d   1      52.280  30.260  53.585  0.00  0.00     0.100 C 
ENDBRANCH  16  17
ENDBRANCH  15  16
ENDBRANCH  14  15
ENDBRANCH   1  14
BRANCH   2  20
ATOM     20  C   UNL d   1      51.426  34.359  52.634  0.00  0.00     0.057 A 
ATOM     21  C   UNL d   1      50.689  34.521  52.964  0.00  0.00     0.013 A 
ATOM     22  C   UNL d   1      50.018  34.515  52.476  0.00  0.00     0.049 A 
ATOM     23  S   UNL d   1      49.222  34.656  52.652  0.00  0.00    -0.064 SA
ATOM     24  C   UNL d   1      50.082  34.349  51.671  0.00  0.00     0.088 A 
ATOM     25  C   UNL d   1      48.796  34.574  51.946  0.00  0.00     0.135 A 
ATOM     26  N   UNL d   1      49.329  34.384  51.341  0.00  0.00    -0.236 NA
ATOM     27  C   UNL d   1      50.819  34.186  51.341  0.00  0.00     0.020 A 
ATOM     28  C   UNL d   1      51.493  34.189  51.817  0.00  0.00     0.006 A 
ENDBRANCH   2  20
TORSDOF 6
ENDMDL
MODEL 2
REMARK VINA RESULT:      -5.6      1.706      4.709
REMARK  6 active torsions:
REMARK  status: ('A' for Active; 'I' for Inactive)
REMARK    1  A    between atoms: N_3  and  C_1 
REMARK       I    between atoms: C_5  and  N_3 
REMARK    2  A    between atoms: C_19  and  N_3 
REMARK    3  A    between atoms: C_8  and  C_5 
REMARK    4  A    between atoms: C_20  and  C_19 
REMARK    5  A    between atoms: C_23  and  C_20 
REMARK    6  A    between atoms: N_21  and  C_23 
ROOT
ATOM      1  N   UNL d   1      52.532  31.917  53.353  0.00  0.00    -0.253 N 
ATOM      2  C   UNL d   1      52.206  31.158  53.331  0.00  0.00     0.266 C 
ATOM      3  O   UNL d   1      51.425  31.048  53.127  0.00  0.00    -0.267 OA
ENDROOT
BRANCH   1   4
ATOM      4  C   UNL d   1      52.051  32.570  53.165  0.00  0.00     0.182 A 
ATOM      5  N   UNL d   1      52.142  33.060  52.507  0.00  0.00    -0.222 NA
ATOM      6  C   UNL d   1      51.557  33.637  52.525  0.00  0.00     0.089 A 
ATOM      7  C   UNL d   1      51.377  34.258  52.030  0.00  0.00     0.018 A 
ATOM      8  C   UNL d   1      51.097  33.503  53.202  0.00  0.00     0.050 A 
ATOM      9  C   UNL d   1      50.743  34.755  52.193  0.00  0.00     0.002 A 
ATOM     10  C   UNL d   1      51.832  34.399  51.350  0.00  0.00     0.002 C 
ATOM     11  C   UNL d   1      50.292  34.619  52.863  0.00  0.00     0.001 A 
ATOM     12  C   UNL d   1      50.474  33.991  53.364  0.00  0.00     0.008 A 
ATOM     13  S   UNL d   1      51.401  32.844  53.599  0.00  0.00    -0.048 SA
ENDBRANCH   1   4
BRANCH   1  14
ATOM     14  C   UNL d   1      53.322  32.028  53.559  0.00  0.00     0.086 C 
BRANCH  14  15
ATOM     15  C   UNL d   1      53.529  32.633  54.086  0.00  0.00     0.038 C 
BRANCH  15  16
ATOM     16  C   UNL d   1      54.324  32.799  54.227  0.00  0.00     0.082 C 
BRANCH  16  17
ATOM     17  N   UNL d   1      54.539  33.267  54.869  0.00  0.00    -0.300 N 
ATOM     18  C   UNL d   1      54.428  32.992  55.636  0.00  0.00     0.100 C 
ATOM     19  C   UNL d   1      54.866  34.010  54.741  0.00  0.00     0.100 C 
ENDBRANCH  16  17
ENDBRANCH  15  16
ENDBRANCH  14  15
ENDBRANCH   1  14
BRANCH   2  20
ATOM     20  C   UNL d   1      52.686  30.512  53.518  0.00  0.00     0.057 A 
ATOM     21  C   UNL d   1      52.607  30.127  54.243  0.00  0.00     0.013 A 
ATOM     22  C   UNL d   1      53.097  29.481  54.413  0.00  0.00     0.049 A 
ATOM     23  S   UNL d   1      53.141  28.998  55.083  0.00  0.00    -0.064 SA
ATOM     24  C   UNL d   1      53.660  29.222  53.868  0.00  0.00     0.088 A 
ATOM     25  C   UNL d   1      53.736  28.438  54.946  0.00  0.00     0.135 A 
ATOM     26  N   UNL d   1      54.055  28.579  54.194  0.00  0.00    -0.236 NA
ATOM     27  C   UNL d   1      53.739  29.606  53.143  0.00  0.00     0.020 A 
ATOM     28  C   UNL d   1      53.256  30.251  52.964  0.00  0.00     0.006 A 
ENDBRANCH   2  20
TORSDOF 6
ENDMDL
MODEL 3
REMARK VINA RESULT:      -5.1      1.021      4.470
REMARK  6 active torsions:
REMARK  status: ('A' for Active; 'I' for Inactive)
REMARK    1  A    between atoms: N_3  and  C_1 
REMARK       I    between atoms: C_5  and  N_3 
REMARK    2  A    between atoms: C_19  and  N_3 
REMARK    3  A    between atoms: C_8  and  C_5 
REMARK    4  A    between atoms: C_20  and  C_19 
REMARK    5  A    between atoms: C_23  and  C_20 
REMARK    6  A    between atoms: N_21  and  C_23 
ROOT
ATOM      1  N   UNL d   1      52.003  33.883  53.419  0.00  0.00    -0.253 N 
ATOM      2  C   UNL d   1      52.515  34.490  53.648  0.00  0.00     0.266 C 
ATOM      3  O   UNL d   1      52.395  35.253  53.388  0.00  0.00    -0.267 OA
ENDROOT
BRANCH   1   4
ATOM      4  C   UNL d   1      51.361  34.060  52.918  0.00  0.00     0.182 A 
ATOM      5  N   UNL d   1      50.629  34.353  53.161  0.00  0.00    -0.222 NA
ATOM      6  C   UNL d   1      50.153  34.452  52.499  0.00  0.00     0.089 A 
ATOM      7  C   UNL d   1      49.389  34.719  52.402  0.00  0.00     0.018 A 
ATOM      8  C   UNL d   1      50.595  34.217  51.838  0.00  0.00     0.050 A 
ATOM      9  C   UNL d   1      49.050  34.758  51.654  0.00  0.00     0.002 A 
ATOM     10  C   UNL d   1      48.940  34.955  53.059  0.00  0.00     0.002 C 
ATOM     11  C   UNL d   1      49.490  34.525  51.004  0.00  0.00     0.001 A 
ATOM     12  C   UNL d   1      50.262  34.256  51.102  0.00  0.00     0.008 A 
ATOM     13  S   UNL d   1      51.342  33.975  52.095  0.00  0.00    -0.048 SA
ENDBRANCH   1   4
BRANCH   1  14
ATOM     14  C   UNL d   1      52.124  33.112  53.682  0.00  0.00     0.086 C 
BRANCH  14  15
ATOM     15  C   UNL d   1      52.215  32.498  53.132  0.00  0.00     0.038 C 
BRANCH  15  16
ATOM     16  C   UNL d   1      52.104  31.717  53.368  0.00  0.00     0.082 C 
BRANCH  16  17
ATOM     17  N   UNL d   1      52.649  31.140  53.151  0.00  0.00    -0.300 N 
ATOM     18  C   UNL d   1      52.779  30.974  52.356  0.00  0.00     0.100 C 
ATOM     19  C   UNL d   1      53.062  30.729  53.731  0.00  0.00     0.100 C 
ENDBRANCH  16  17
ENDBRANCH  15  16
ENDBRANCH  14  15
ENDBRANCH   1  14
BRANCH   2  20
ATOM     20  C   UNL d   1      53.150  34.311  54.144  0.00  0.00     0.057 A 
ATOM     21  C   UNL d   1      53.902  34.183  53.833  0.00  0.00     0.013 A 
ATOM     22  C   UNL d   1      54.527  34.004  54.347  0.00  0.00     0.049 A 
ATOM     23  S   UNL d   1      55.326  33.852  54.194  0.00  0.00    -0.064 SA
ATOM     24  C   UNL d   1      54.404  33.953  55.162  0.00  0.00     0.088 A 
ATOM     25  C   UNL d   1      55.694  33.707  54.922  0.00  0.00     0.135 A 
ATOM     26  N   UNL d   1      55.122  33.770  55.518  0.00  0.00    -0.236 NA
ATOM     27  C   UNL d   1      53.652  34.081  55.473  0.00  0.00     0.020 A 
ATOM     28  C   UNL d   1      53.023  34.260  54.970  0.00  0.00     0.006 A 
ENDBRANCH   2  20
TORSDOF 6
ENDMDL
MODEL 4
REMARK VINA RESULT:      -4.3      1.601      3.286
REMARK  6 active torsions:
REMARK  status: ('A' for Active; 'I' for Inactive)
REMARK    1  A    between atoms: N_3  and  C_1 
REMARK       I    between atoms: C_5  and  N_3 
REMARK    2  A    between atoms: C_19  and  N_3 
REMARK    3  A    between atoms: C_8  and  C_5 
REMARK    4  A    between atoms: C_20  and  C_19 
REMARK    5  A    between atoms: C_23  and  C_20 
REMARK    6  A    between atoms: N_21  and  C_23 
ROOT
ATOM      1  N   UNL d   1      52.671  31.886  53.411  0.00  0.00    -0.253 N 
ATOM      2  C   UNL d   1      51.889  31.973  53.159  0.00  0.00     0.266 C 
ATOM      3  O   UNL d   1      51.397  31.325  53.104  0.00  0.00    -0.267 OA
ENDROOT
BRANCH   1   4
ATOM      4  C   UNL d   1      52.951  31.127  53.609  0.00  0.00     0.182 A 
ATOM      5  N   UNL d   1      52.828  30.742  54.329  0.00  0.00    -0.222 NA
ATOM      6  C   UNL d   1      53.194  30.007  54.300  0.00  0.00     0.089 A 
ATOM      7  C   UNL d   1      53.256  29.398  54.838  0.00  0.00     0.018 A 
ATOM      8  C   UNL d   1      53.550  29.936  53.554  0.00  0.00     0.050 A 
ATOM      9  C   UNL d   1      53.668  28.712  54.650  0.00  0.00     0.002 A 
ATOM     10  C   UNL d   1      52.904  29.462  55.587  0.00  0.00     0.002 C 
ATOM     11  C   UNL d   1      54.017  28.646  53.912  0.00  0.00     0.001 A 
ATOM     12  C   UNL d   1      53.954  29.261  53.368  0.00  0.00     0.008 A 
ATOM     13  S   UNL d   1      53.400  30.627  53.126  0.00  0.00    -0.048 SA
ENDBRANCH   1   4
BRANCH   1  14
ATOM     14  C   UNL d   1      53.168  32.540  53.467  0.00  0.00     0.086 C 
BRANCH  14  15
ATOM     15  C   UNL d   1      53.580  32.687  54.171  0.00  0.00     0.038 C 
BRANCH  15  16
ATOM     16  C   UNL d   1      54.191  33.239  54.181  0.00  0.00     0.082 C 
BRANCH  16  17
ATOM     17  N   UNL d   1      54.351  33.664  54.867  0.00  0.00    -0.300 N 
ATOM     18  C   UNL d   1      53.969  34.380  55.006  0.00  0.00     0.100 C 
ATOM     19  C   UNL d   1      54.893  33.374  55.411  0.00  0.00     0.100 C 
ENDBRANCH  16  17
ENDBRANCH  15  16
ENDBRANCH  14  15
ENDBRANCH   1  14
BRANCH   2  20
ATOM     20  C   UNL d   1      51.614  32.727  52.963  0.00  0.00     0.057 A 
ATOM     21  C   UNL d   1      51.016  33.082  53.404  0.00  0.00     0.013 A 
ATOM     22  C   UNL d   1      50.753  33.840  53.192  0.00  0.00     0.049 A 
ATOM     23  S   UNL d   1      50.171  34.323  53.528  0.00  0.00    -0.064 SA
ATOM     24  C   UNL d   1      51.083  34.238  52.549  0.00  0.00     0.088 A 
ATOM     25  C   UNL d   1      50.146  35.023  53.085  0.00  0.00     0.135 A 
ATOM     26  N   UNL d   1      50.711  34.967  52.481  0.00  0.00    -0.236 NA
ATOM     27  C   UNL d   1      51.682  33.882  52.108  0.00  0.00     0.020 A 
ATOM     28  C   UNL d   1      51.950  33.128  52.310  0.00  0.00     0.006 A 
ENDBRANCH   2  20
TORSDOF 6
ENDMDL
MODEL 5
REMARK VINA RESULT:      -4.1      1.662      3.746
REMARK  6 active torsions:
REMARK  status: ('A' for Active; 'I' for Inactive)
REMARK    1  A    between atoms: N_3  and  C_1 
REMARK       I    between atoms: C_5  and  N_3 
REMARK    2  A    between atoms: C_19  and  N_3 
REMARK    3  A    between atoms: C_8  and  C_5 
REMARK    4  A    between atoms: C_20  and  C_19 
REMARK    5  A    between atoms: C_23  and  C_20 
REMARK    6  A    between atoms: N_21  and  C_23 
ROOT
ATOM      1  N   UNL d   1      52.830  32.784  53.663  0.00  0.00    -0.253 N 
ATOM      2  C   UNL d   1      53.526  33.222  53.744  0.00  0.00     0.266 C 
ATOM      3  O   UNL d   1      54.253  32.858  53.687  0.00  0.00    -0.267 OA
ENDROOT
BRANCH   1   4
ATOM      4  C   UNL d   1      52.879  31.965  53.524  0.00  0.00     0.182 A 
ATOM      5  N   UNL d   1      52.962  31.384  54.104  0.00  0.00    -0.222 NA
ATOM      6  C   UNL d   1      52.990  30.649  53.737  0.00  0.00     0.089 A 
ATOM      7  C   UNL d   1      53.065  29.890  54.024  0.00  0.00     0.018 A 
ATOM      8  C   UNL d   1      52.922  30.776  52.920  0.00  0.00     0.050 A 
ATOM      9  C   UNL d   1      53.075  29.246  53.511  0.00  0.00     0.002 A 
ATOM     10  C   UNL d   1      53.133  29.754  54.840  0.00  0.00     0.002 C 
ATOM     11  C   UNL d   1      53.009  29.377  52.706  0.00  0.00     0.001 A 
ATOM     12  C   UNL d   1      52.933  30.145  52.416  0.00  0.00     0.008 A 
ATOM     13  S   UNL d   1      52.854  31.590  52.787  0.00  0.00    -0.048 SA
ENDBRANCH   1   4
BRANCH   1  14
ATOM     14  C   UNL d   1      52.095  33.153  53.720  0.00  0.00     0.086 C 
BRANCH  14  15
ATOM     15  C   UNL d   1      51.575  33.137  53.075  0.00  0.00     0.038 C 
BRANCH  15  16
ATOM     16  C   UNL d   1      50.776  33.302  53.188  0.00  0.00     0.082 C 
BRANCH  16  17
ATOM     17  N   UNL d   1      50.396  33.851  52.708  0.00  0.00    -0.300 N 
ATOM     18  C   UNL d   1      50.437  33.780  51.889  0.00  0.00     0.100 C 
ATOM     19  C   UNL d   1      49.975  34.470  53.047  0.00  0.00     0.100 C 
ENDBRANCH  16  17
ENDBRANCH  15  16
ENDBRANCH  14  15
ENDBRANCH   1  14
BRANCH   2  20
ATOM     20  C   UNL d   1      53.473  34.035  53.882  0.00  0.00     0.057 A 
ATOM     21  C   UNL d   1      53.297  34.321  54.634  0.00  0.00     0.013 A 
ATOM     22  C   UNL d   1      53.248  35.141  54.753  0.00  0.00     0.049 A 
ATOM     23  S   UNL d   1      53.083  35.578  55.436  0.00  0.00    -0.064 SA
ATOM     24  C   UNL d   1      53.372  35.667  54.130  0.00  0.00     0.088 A 
ATOM     25  C   UNL d   1      53.108  36.379  55.227  0.00  0.00     0.135 A 
ATOM     26  N   UNL d   1      53.287  36.432  54.420  0.00  0.00    -0.236 NA
ATOM     27  C   UNL d   1      53.548  35.381  53.378  0.00  0.00     0.020 A 
ATOM     28  C   UNL d   1      53.600  34.567  53.248  0.00  0.00     0.006 A 
ENDBRANCH   2  20
TORSDOF 6
ENDMDL
