MODEL 1
REMARK VINA RESULT:      -0.1      0.000      0.000
REMARK  5 active torsions:
REMARK  status: ('A' for Active; 'I' for Inactive)
REMARK    1  A    between atoms: C_9  and  C_1 
REMARK    2  A    between atoms: S_2  and  N_8 
REMARK    3  A    between atoms: C_10  and  S_2 
REMARK    4  A    between atoms: C_14  and  C_3 
REMARK    5  A    between atoms: N_8  and  C_9 
ROOT
ATOM      1  C   UNL d   1      58.140  -1.225  30.276  0.00  0.00     0.078 A 
ATOM      2  C   UNL d   1      58.916  -1.223  29.976  0.00  0.00     0.008 A 
ATOM      3  C   UNL d   1      57.639  -1.856  30.118  0.00  0.00     0.281 A 
ATOM      4  C   UNL d   1      59.173  -1.856  29.521  0.00  0.00     0.019 A 
ATOM      5  N   UNL d   1      57.904  -2.496  29.655  0.00  0.00    -0.208 NA
ATOM      6  C   UNL d   1      58.671  -2.487  29.362  0.00  0.00     0.085 A 
ATOM      7  C   UNL d   1      59.943  -1.850  29.225  0.00  0.00     0.013 A 
ATOM      8  O   UNL d   1      56.854  -1.854  30.424  0.00  0.00    -0.265 OA
ATOM      9  C   UNL d   1      58.930  -3.123  28.905  0.00  0.00     0.020 A 
ATOM     10  C   UNL d   1      60.209  -2.490  28.762  0.00  0.00     0.058 A 
ATOM     11  C   UNL d   1      59.708  -3.120  28.604  0.00  0.00     0.013 A 
ATOM     12 CL   UNL d   1      60.993  -2.492  28.457  0.00  0.00    -0.082 Cl
ENDROOT
BRANCH   1  13
ATOM     13  C   UNL d   1      57.873  -0.585  30.739  0.00  0.00     0.117 C 
BRANCH  13  14
ATOM     14  N   UNL d   1      57.065  -0.404  30.760  0.00  0.00    -0.157 NA
BRANCH  14  15
ATOM     15  S   UNL d   1      56.890  -0.184  31.548  0.00  0.00     0.285 S 
ATOM     16  O   UNL d   1      57.054   0.608  31.364  0.00  0.00    -0.198 OA
ATOM     17  O   UNL d   1      56.727  -0.983  31.724  0.00  0.00    -0.198 OA
BRANCH  15  18
ATOM     18  C   UNL d   1      56.716   0.033  32.330  0.00  0.00     0.105 A 
ATOM     19  C   UNL d   1      55.966  -0.112  32.648  0.00  0.00     0.013 A 
ATOM     20  C   UNL d   1      55.786   0.098  33.418  0.00  0.00     0.001 A 
ATOM     21  C   UNL d   1      56.370   0.467  33.893  0.00  0.00     0.000 A 
ATOM     22  C   UNL d   1      57.120   0.612  33.576  0.00  0.00     0.001 A 
ATOM     23  C   UNL d   1      56.198   0.682  34.668  0.00  0.00     0.000 C 
ATOM     24  C   UNL d   1      57.294   0.395  32.794  0.00  0.00     0.013 A 
ENDBRANCH  15  18
ENDBRANCH  14  15
ENDBRANCH  13  14
ENDBRANCH   1  13
BRANCH   2  25
ATOM     25  C   UNL d   1      59.418  -0.591  30.135  0.00  0.00     0.000 A 
ATOM     26  C   UNL d   1      59.863  -0.574  30.824  0.00  0.00     0.000 A 
ATOM     27  C   UNL d   1      60.365   0.057  30.983  0.00  0.00     0.000 A 
ATOM     28  C   UNL d   1      60.431   0.682  30.455  0.00  0.00     0.000 A 
ATOM     29  C   UNL d   1      59.980   0.674  29.749  0.00  0.00     0.000 A 
ATOM     30  C   UNL d   1      59.480   0.040  29.595  0.00  0.00     0.000 A 
ENDBRANCH   2  25
TORSDOF 5
ENDMDL
