MODEL 1
REMARK VINA RESULT:      -2.6      0.000      0.000
REMARK  5 active torsions:
REMARK  status: ('A' for Active; 'I' for Inactive)
REMARK    1  A    between atoms: C_10  and  C_1 
REMARK    2  A    between atoms: C_16  and  C_2 
REMARK    3  A    between atoms: C_7  and  C_14 
REMARK    4  A    between atoms: C_13  and  C_10 
REMARK    5  A    between atoms: C_14  and  C_13 
ROOT
ATOM      1  C   UNL d   1      31.504  17.972 -24.550  0.00  0.00     0.097 A 
ATOM      2  C   UNL d   1      31.166  17.218 -24.363  0.00  0.00     0.009 A 
ATOM      3  C   UNL d   1      31.048  18.552 -24.907  0.00  0.00     0.282 A 
ATOM      4  C   UNL d   1      30.389  17.097 -24.548  0.00  0.00     0.019 A 
ATOM      5  N   UNL d   1      30.235  18.403 -25.092  0.00  0.00    -0.208 NA
ATOM      6  C   UNL d   1      29.933  17.678 -24.905  0.00  0.00     0.085 A 
ATOM      7  C   UNL d   1      30.059  16.350 -24.360  0.00  0.00     0.013 A 
ATOM      8  C   UNL d   1      29.128  17.535 -25.089  0.00  0.00     0.020 A 
ATOM      9  O   UNL d   1      31.378  19.300 -25.095  0.00  0.00    -0.265 OA
ATOM     10  C   UNL d   1      29.247  16.201 -24.545  0.00  0.00     0.058 A 
ATOM     11  C   UNL d   1      28.791  16.781 -24.902  0.00  0.00     0.013 A 
ATOM     12 CL   UNL d   1      28.916  15.453 -24.358  0.00  0.00    -0.082 Cl
ENDROOT
BRANCH   1  13
ATOM     13  C   UNL d   1      32.309  18.115 -24.366  0.00  0.00     0.200 C 
ATOM     14  O   UNL d   1      32.927  17.910 -24.922  0.00  0.00    -0.286 OA
BRANCH  13  15
ATOM     15  C   UNL d   1      32.524  18.455 -23.650  0.00  0.00     0.045 C 
BRANCH  15  16
ATOM     16  C   UNL d   1      33.142  19.013 -23.568  0.00  0.00     0.042 C 
BRANCH  16  17
ATOM     17  C   UNL d   1      33.158  19.558 -22.932  0.00  0.00     0.163 A 
ATOM     18  N   UNL d   1      33.141  19.447 -22.126  0.00  0.00    -0.225 NA
ATOM     19  C   UNL d   1      33.171  20.194 -21.786  0.00  0.00     0.101 A 
ATOM     20  C   UNL d   1      33.170  20.415 -20.993  0.00  0.00     0.021 A 
ATOM     21  C   UNL d   1      33.206  20.744 -22.354  0.00  0.00     0.101 A 
ATOM     22  C   UNL d   1      33.206  21.234 -20.802  0.00  0.00     0.002 A 
ATOM     23  C   UNL d   1      33.241  21.778 -21.413  0.00  0.00     0.002 A 
ATOM     24  C   UNL d   1      33.239  21.505 -22.189  0.00  0.00     0.021 A 
ATOM     25  N   UNL d   1      33.199  20.357 -23.117  0.00  0.00    -0.225 NA
ENDBRANCH  16  17
ENDBRANCH  15  16
ENDBRANCH  13  15
ENDBRANCH   1  13
BRANCH   2  26
ATOM     26  C   UNL d   1      31.642  16.613 -23.990  0.00  0.00     0.000 A 
ATOM     27  C   UNL d   1      31.602  16.545 -23.169  0.00  0.00     0.000 A 
ATOM     28  C   UNL d   1      32.042  15.978 -22.772  0.00  0.00     0.000 A 
ATOM     29  C   UNL d   1      32.549  15.459 -23.281  0.00  0.00     0.000 A 
ATOM     30  C   UNL d   1      32.569  15.546 -24.066  0.00  0.00     0.000 A 
ATOM     31  C   UNL d   1      32.094  16.151 -24.438  0.00  0.00     0.000 A 
ENDBRANCH   2  26
TORSDOF 5
ENDMDL
