MODEL 1
REMARK VINA RESULT:      -6.3      0.000      0.000
REMARK  7 active torsions:
REMARK  status: ('A' for Active; 'I' for Inactive)
REMARK    1  A    between atoms: C_2  and  S_1 
REMARK    2  A    between atoms: N_6  and  S_1 
REMARK    3  A    between atoms: C_14  and  C_4 
REMARK    4  A    between atoms: O_15  and  C_5 
REMARK    5  A    between atoms: C_12  and  N_6 
REMARK    6  A    between atoms: C_13  and  C_12 
REMARK    7  A    between atoms: C_20  and  O_15 
ROOT
ATOM      1  C   UNL d   1     -47.220  13.445  22.854  0.00  0.00     0.128 A 
ATOM      2  C   UNL d   1     -47.614  14.149  22.681  0.00  0.00     0.015 A 
ATOM      3  C   UNL d   1     -48.423  14.213  22.814  0.00  0.00     0.001 A 
ATOM      4  C   UNL d   1     -47.641  12.805  23.163  0.00  0.00     0.112 A 
ATOM      5  C   UNL d   1     -48.843  13.573  23.122  0.00  0.00     0.002 A 
ATOM      6  C   UNL d   1     -48.450  12.869  23.296  0.00  0.00     0.025 A 
ATOM      7  C   UNL d   1     -49.656  13.638  23.257  0.00  0.00     0.000 C 
ENDROOT
BRANCH   1   8
ATOM      8  S   UNL d   1     -46.408  13.380  22.720  0.00  0.00     0.287 S 
ATOM      9  O   UNL d   1     -46.552  13.221  21.922  0.00  0.00    -0.198 OA
ATOM     10  O   UNL d   1     -46.263  13.539  23.519  0.00  0.00    -0.198 OA
BRANCH   8  11
ATOM     11  N   UNL d   1     -45.594  13.316  22.586  0.00  0.00    -0.155 NA
BRANCH  11  12
ATOM     12  C   UNL d   1     -45.317  13.010  21.872  0.00  0.00     0.131 C 
BRANCH  12  13
ATOM     13  C   UNL d   1     -44.512  12.844  21.778  0.00  0.00     0.101 A 
ATOM     14  N   UNL d   1     -44.192  12.178  22.134  0.00  0.00    -0.242 NA
ATOM     15  C   UNL d   1     -43.392  12.006  22.044  0.00  0.00     0.099 A 
ATOM     16  C   UNL d   1     -42.912  12.513  21.590  0.00  0.00     0.021 A 
ATOM     17  C   UNL d   1     -43.240  13.182  21.235  0.00  0.00     0.003 A 
ATOM     18  C   UNL d   1     -44.036  13.346  21.328  0.00  0.00     0.021 A 
ENDBRANCH  12  13
ENDBRANCH  11  12
ENDBRANCH   8  11
ENDBRANCH   1   8
BRANCH   4  19
ATOM     19  O   UNL d   1     -47.247  12.097  23.338  0.00  0.00    -0.304 OA
BRANCH  19  20
ATOM     20  C   UNL d   1     -47.660  11.471  23.684  0.00  0.00     0.123 C 
ATOM     21  C   UNL d   1     -47.356  10.698  23.641  0.00  0.00     0.029 C 
ENDBRANCH  19  20
ENDBRANCH   4  19
BRANCH   3  22
ATOM     22  C   UNL d   1     -48.816  14.917  22.640  0.00  0.00     0.000 C 
ATOM     23  C   UNL d   1     -48.895  15.160  21.855  0.00  0.00     0.000 C 
ATOM     24  C   UNL d   1     -49.131  15.377  23.250  0.00  0.00     0.000 C 
ENDBRANCH   3  22
TORSDOF 7
ENDMDL
MODEL 2
REMARK VINA RESULT:      -6.3      1.145      1.591
REMARK  7 active torsions:
REMARK  status: ('A' for Active; 'I' for Inactive)
REMARK    1  A    between atoms: C_2  and  S_1 
REMARK    2  A    between atoms: N_6  and  S_1 
REMARK    3  A    between atoms: C_14  and  C_4 
REMARK    4  A    between atoms: O_15  and  C_5 
REMARK    5  A    between atoms: C_12  and  N_6 
REMARK    6  A    between atoms: C_13  and  C_12 
REMARK    7  A    between atoms: C_20  and  O_15 
ROOT
ATOM      1  C   UNL d   1     -48.575  13.503  23.021  0.00  0.00     0.128 A 
ATOM      2  C   UNL d   1     -48.695  14.312  22.908  0.00  0.00     0.015 A 
ATOM      3  C   UNL d   1     -49.437  14.641  23.038  0.00  0.00     0.001 A 
ATOM      4  C   UNL d   1     -49.202  13.026  23.266  0.00  0.00     0.112 A 
ATOM      5  C   UNL d   1     -50.065  14.163  23.283  0.00  0.00     0.002 A 
ATOM      6  C   UNL d   1     -49.944  13.355  23.396  0.00  0.00     0.025 A 
ATOM      7  C   UNL d   1     -50.810  14.493  23.414  0.00  0.00     0.000 C 
ENDROOT
BRANCH   1   8
ATOM      8  S   UNL d   1     -47.829  13.173  22.890  0.00  0.00     0.287 S 
ATOM      9  O   UNL d   1     -47.661  13.233  23.698  0.00  0.00    -0.198 OA
ATOM     10  O   UNL d   1     -47.998  13.113  22.083  0.00  0.00    -0.198 OA
BRANCH   8  11
ATOM     11  N   UNL d   1     -47.083  12.842  22.759  0.00  0.00    -0.155 NA
BRANCH  11  12
ATOM     12  C   UNL d   1     -46.423  13.331  22.678  0.00  0.00     0.131 C 
BRANCH  12  13
ATOM     13  C   UNL d   1     -45.683  13.003  22.510  0.00  0.00     0.101 A 
ATOM     14  N   UNL d   1     -45.428  12.343  22.928  0.00  0.00    -0.242 NA
ATOM     15  C   UNL d   1     -44.693  12.011  22.767  0.00  0.00     0.099 A 
ATOM     16  C   UNL d   1     -44.210  12.350  22.177  0.00  0.00     0.021 A 
ATOM     17  C   UNL d   1     -44.472  13.012  21.761  0.00  0.00     0.003 A 
ATOM     18  C   UNL d   1     -45.205  13.337  21.927  0.00  0.00     0.021 A 
ENDBRANCH  12  13
ENDBRANCH  11  12
ENDBRANCH   8  11
ENDBRANCH   1   8
BRANCH   4  19
ATOM     19  O   UNL d   1     -49.083  12.214  23.381  0.00  0.00    -0.304 OA
BRANCH  19  20
ATOM     20  C   UNL d   1     -49.688  11.749  23.697  0.00  0.00     0.123 C 
ATOM     21  C   UNL d   1     -49.623  10.920  23.692  0.00  0.00     0.029 C 
ENDBRANCH  19  20
ENDBRANCH   4  19
BRANCH   3  22
ATOM     22  C   UNL d   1     -49.558  15.449  22.925  0.00  0.00     0.000 C 
ATOM     23  C   UNL d   1     -49.935  15.894  23.509  0.00  0.00     0.000 C 
ATOM     24  C   UNL d   1     -49.302  15.812  22.228  0.00  0.00     0.000 C 
ENDBRANCH   3  22
TORSDOF 7
ENDMDL
MODEL 3
REMARK VINA RESULT:      -5.4      1.198      2.465
REMARK  7 active torsions:
REMARK  status: ('A' for Active; 'I' for Inactive)
REMARK    1  A    between atoms: C_2  and  S_1 
REMARK    2  A    between atoms: N_6  and  S_1 
REMARK    3  A    between atoms: C_14  and  C_4 
REMARK    4  A    between atoms: O_15  and  C_5 
REMARK    5  A    between atoms: C_12  and  N_6 
REMARK    6  A    between atoms: C_13  and  C_12 
REMARK    7  A    between atoms: C_20  and  O_15 
ROOT
ATOM      1  C   UNL d   1     -48.428  13.127  22.869  0.00  0.00     0.128 A 
ATOM      2  C   UNL d   1     -48.816  12.435  23.094  0.00  0.00     0.015 A 
ATOM      3  C   UNL d   1     -49.594  12.466  23.359  0.00  0.00     0.001 A 
ATOM      4  C   UNL d   1     -48.822  13.851  22.910  0.00  0.00     0.112 A 
ATOM      5  C   UNL d   1     -49.989  13.189  23.400  0.00  0.00     0.002 A 
ATOM      6  C   UNL d   1     -49.600  13.882  23.175  0.00  0.00     0.025 A 
ATOM      7  C   UNL d   1     -50.770  13.220  23.666  0.00  0.00     0.000 C 
ENDROOT
BRANCH   1   8
ATOM      8  S   UNL d   1     -47.646  13.096  22.603  0.00  0.00     0.287 S 
ATOM      9  O   UNL d   1     -47.379  13.148  23.384  0.00  0.00    -0.198 OA
ATOM     10  O   UNL d   1     -47.914  13.045  21.822  0.00  0.00    -0.198 OA
BRANCH   8  11
ATOM     11  N   UNL d   1     -46.864  13.065  22.337  0.00  0.00    -0.155 NA
BRANCH  11  12
ATOM     12  C   UNL d   1     -46.265  12.813  22.844  0.00  0.00     0.131 C 
BRANCH  12  13
ATOM     13  C   UNL d   1     -45.495  12.711  22.559  0.00  0.00     0.101 A 
ATOM     14  N   UNL d   1     -45.050  12.070  22.813  0.00  0.00    -0.242 NA
ATOM     15  C   UNL d   1     -44.284  11.963  22.533  0.00  0.00     0.099 A 
ATOM     16  C   UNL d   1     -43.965  12.509  21.990  0.00  0.00     0.021 A 
ATOM     17  C   UNL d   1     -44.418  13.151  21.738  0.00  0.00     0.003 A 
ATOM     18  C   UNL d   1     -45.180  13.252  22.022  0.00  0.00     0.021 A 
ENDBRANCH  12  13
ENDBRANCH  11  12
ENDBRANCH   8  11
ENDBRANCH   1   8
BRANCH   4  19
ATOM     19  O   UNL d   1     -48.434  14.547  22.685  0.00  0.00    -0.304 OA
BRANCH  19  20
ATOM     20  C   UNL d   1     -48.773  15.281  22.852  0.00  0.00     0.123 C 
ATOM     21  C   UNL d   1     -48.766  15.884  22.278  0.00  0.00     0.029 C 
ENDBRANCH  19  20
ENDBRANCH   4  19
BRANCH   3  22
ATOM     22  C   UNL d   1     -49.982  11.773  23.584  0.00  0.00     0.000 C 
ATOM     23  C   UNL d   1     -50.800  11.779  23.694  0.00  0.00     0.000 C 
ATOM     24  C   UNL d   1     -49.554  11.076  23.698  0.00  0.00     0.000 C 
ENDBRANCH   3  22
TORSDOF 7
ENDMDL
MODEL 4
REMARK VINA RESULT:      -4.8      0.865      2.298
REMARK  7 active torsions:
REMARK  status: ('A' for Active; 'I' for Inactive)
REMARK    1  A    between atoms: C_2  and  S_1 
REMARK    2  A    between atoms: N_6  and  S_1 
REMARK    3  A    between atoms: C_14  and  C_4 
REMARK    4  A    between atoms: O_15  and  C_5 
REMARK    5  A    between atoms: C_12  and  N_6 
REMARK    6  A    between atoms: C_13  and  C_12 
REMARK    7  A    between atoms: C_20  and  O_15 
ROOT
ATOM      1  C   UNL d   1     -47.588  13.186  22.831  0.00  0.00     0.128 A 
ATOM      2  C   UNL d   1     -47.871  12.451  23.079  0.00  0.00     0.015 A 
ATOM      3  C   UNL d   1     -48.660  12.362  23.290  0.00  0.00     0.001 A 
ATOM      4  C   UNL d   1     -48.101  13.831  22.795  0.00  0.00     0.112 A 
ATOM      5  C   UNL d   1     -49.173  13.008  23.254  0.00  0.00     0.002 A 
ATOM      6  C   UNL d   1     -48.891  13.743  23.006  0.00  0.00     0.025 A 
ATOM      7  C   UNL d   1     -49.966  12.919  23.467  0.00  0.00     0.000 C 
ENDROOT
BRANCH   1   8
ATOM      8  S   UNL d   1     -46.795  13.275  22.618  0.00  0.00     0.287 S 
ATOM      9  O   UNL d   1     -46.624  13.558  23.376  0.00  0.00    -0.198 OA
ATOM     10  O   UNL d   1     -46.966  12.991  21.861  0.00  0.00    -0.198 OA
BRANCH   8  11
ATOM     11  N   UNL d   1     -46.001  13.364  22.406  0.00  0.00    -0.155 NA
BRANCH  11  12
ATOM     12  C   UNL d   1     -45.464  12.754  22.548  0.00  0.00     0.131 C 
BRANCH  12  13
ATOM     13  C   UNL d   1     -44.716  12.770  22.197  0.00  0.00     0.101 A 
ATOM     14  N   UNL d   1     -44.450  13.461  21.841  0.00  0.00    -0.242 NA
ATOM     15  C   UNL d   1     -43.707  13.484  21.489  0.00  0.00     0.099 A 
ATOM     16  C   UNL d   1     -43.227  12.802  21.497  0.00  0.00     0.021 A 
ATOM     17  C   UNL d   1     -43.500  12.111  21.856  0.00  0.00     0.003 A 
ATOM     18  C   UNL d   1     -44.241  12.095  22.204  0.00  0.00     0.021 A 
ENDBRANCH  12  13
ENDBRANCH  11  12
ENDBRANCH   8  11
ENDBRANCH   1   8
BRANCH   4  19
ATOM     19  O   UNL d   1     -47.820  14.570  22.546  0.00  0.00    -0.304 OA
BRANCH  19  20
ATOM     20  C   UNL d   1     -48.337  15.210  22.490  0.00  0.00     0.123 C 
ATOM     21  C   UNL d   1     -48.136  15.870  22.024  0.00  0.00     0.029 C 
ENDBRANCH  19  20
ENDBRANCH   4  19
BRANCH   3  22
ATOM     22  C   UNL d   1     -48.942  11.628  23.538  0.00  0.00     0.000 C 
ATOM     23  C   UNL d   1     -48.415  11.003  23.652  0.00  0.00     0.000 C 
ATOM     24  C   UNL d   1     -49.750  11.518  23.673  0.00  0.00     0.000 C 
ENDBRANCH   3  22
TORSDOF 7
ENDMDL
MODEL 5
REMARK VINA RESULT:      -4.6      1.620      4.454
REMARK  7 active torsions:
REMARK  status: ('A' for Active; 'I' for Inactive)
REMARK    1  A    between atoms: C_2  and  S_1 
REMARK    2  A    between atoms: N_6  and  S_1 
REMARK    3  A    between atoms: C_14  and  C_4 
REMARK    4  A    between atoms: O_15  and  C_5 
REMARK    5  A    between atoms: C_12  and  N_6 
REMARK    6  A    between atoms: C_13  and  C_12 
REMARK    7  A    between atoms: C_20  and  O_15 
ROOT
ATOM      1  C   UNL d   1     -47.253  13.100  22.601  0.00  0.00     0.128 A 
ATOM      2  C   UNL d   1     -46.515  13.357  22.335  0.00  0.00     0.015 A 
ATOM      3  C   UNL d   1     -45.851  12.886  22.444  0.00  0.00     0.001 A 
ATOM      4  C   UNL d   1     -47.321  12.368  22.977  0.00  0.00     0.112 A 
ATOM      5  C   UNL d   1     -45.919  12.154  22.820  0.00  0.00     0.002 A 
ATOM      6  C   UNL d   1     -46.657  11.897  23.085  0.00  0.00     0.025 A 
ATOM      7  C   UNL d   1     -45.251  11.681  22.929  0.00  0.00     0.000 C 
ENDROOT
BRANCH   1   8
ATOM      8  S   UNL d   1     -47.921  13.574  22.492  0.00  0.00     0.287 S 
ATOM      9  O   UNL d   1     -47.621  14.122  23.034  0.00  0.00    -0.198 OA
ATOM     10  O   UNL d   1     -48.221  13.026  21.950  0.00  0.00    -0.198 OA
BRANCH   8  11
ATOM     11  N   UNL d   1     -48.590  14.048  22.383  0.00  0.00    -0.155 NA
BRANCH  11  12
ATOM     12  C   UNL d   1     -48.777  14.631  22.935  0.00  0.00     0.131 C 
BRANCH  12  13
ATOM     13  C   UNL d   1     -49.542  14.945  22.962  0.00  0.00     0.101 A 
ATOM     14  N   UNL d   1     -50.065  14.792  22.347  0.00  0.00    -0.242 NA
ATOM     15  C   UNL d   1     -50.827  15.101  22.367  0.00  0.00     0.099 A 
ATOM     16  C   UNL d   1     -51.063  15.569  23.016  0.00  0.00     0.021 A 
ATOM     17  C   UNL d   1     -50.533  15.719  23.630  0.00  0.00     0.003 A 
ATOM     18  C   UNL d   1     -49.776  15.408  23.603  0.00  0.00     0.021 A 
ENDBRANCH  12  13
ENDBRANCH  11  12
ENDBRANCH   8  11
ENDBRANCH   1   8
BRANCH   4  19
ATOM     19  O   UNL d   1     -48.061  12.108  23.244  0.00  0.00    -0.304 OA
BRANCH  19  20
ATOM     20  C   UNL d   1     -48.202  11.301  23.346  0.00  0.00     0.123 C 
ATOM     21  C   UNL d   1     -48.913  11.043  23.694  0.00  0.00     0.029 C 
ENDBRANCH  19  20
ENDBRANCH   4  19
BRANCH   3  22
ATOM     22  C   UNL d   1     -45.113  13.143  22.178  0.00  0.00     0.000 C 
ATOM     23  C   UNL d   1     -44.645  12.642  21.719  0.00  0.00     0.000 C 
ATOM     24  C   UNL d   1     -44.844  13.900  22.371  0.00  0.00     0.000 C 
ENDBRANCH   3  22
TORSDOF 7
ENDMDL
MODEL 6
REMARK VINA RESULT:      -4.5      6.600      8.614
REMARK  7 active torsions:
REMARK  status: ('A' for Active; 'I' for Inactive)
REMARK    1  A    between atoms: C_2  and  S_1 
REMARK    2  A    between atoms: N_6  and  S_1 
REMARK    3  A    between atoms: C_14  and  C_4 
REMARK    4  A    between atoms: O_15  and  C_5 
REMARK    5  A    between atoms: C_12  and  N_6 
REMARK    6  A    between atoms: C_13  and  C_12 
REMARK    7  A    between atoms: C_20  and  O_15 
ROOT
ATOM      1  C   UNL d   1     -39.422  14.689  20.377  0.00  0.00     0.128 A 
ATOM      2  C   UNL d   1     -38.810  14.254  20.719  0.00  0.00     0.015 A 
ATOM      3  C   UNL d   1     -38.910  13.914  21.461  0.00  0.00     0.001 A 
ATOM      4  C   UNL d   1     -40.135  14.781  20.782  0.00  0.00     0.112 A 
ATOM      5  C   UNL d   1     -39.623  14.007  21.866  0.00  0.00     0.002 A 
ATOM      6  C   UNL d   1     -40.235  14.441  21.524  0.00  0.00     0.025 A 
ATOM      7  C   UNL d   1     -39.723  13.665  22.611  0.00  0.00     0.000 C 
ENDROOT
BRANCH   1   8
ATOM      8  S   UNL d   1     -39.322  15.030  19.632  0.00  0.00     0.287 S 
ATOM      9  O   UNL d   1     -38.877  15.640  19.971  0.00  0.00    -0.198 OA
ATOM     10  O   UNL d   1     -39.766  14.421  19.293  0.00  0.00    -0.198 OA
BRANCH   8  11
ATOM     11  N   UNL d   1     -39.221  15.372  18.885  0.00  0.00    -0.155 NA
BRANCH  11  12
ATOM     12  C   UNL d   1     -39.081  14.895  18.228  0.00  0.00     0.131 C 
BRANCH  12  13
ATOM     13  C   UNL d   1     -38.910  15.238  17.495  0.00  0.00     0.101 A 
ATOM     14  N   UNL d   1     -38.131  15.407  17.299  0.00  0.00    -0.242 NA
ATOM     15  C   UNL d   1     -37.953  15.748  16.572  0.00  0.00     0.099 A 
ATOM     16  C   UNL d   1     -38.570  15.922  16.038  0.00  0.00     0.021 A 
ATOM     17  C   UNL d   1     -39.351  15.750  16.241  0.00  0.00     0.003 A 
ATOM     18  C   UNL d   1     -39.520  15.410  16.967  0.00  0.00     0.021 A 
ENDBRANCH  12  13
ENDBRANCH  11  12
ENDBRANCH   8  11
ENDBRANCH   1   8
BRANCH   4  19
ATOM     19  O   UNL d   1     -40.751  15.217  20.440  0.00  0.00    -0.304 OA
BRANCH  19  20
ATOM     20  C   UNL d   1     -41.298  15.605  20.922  0.00  0.00     0.123 C 
ATOM     21  C   UNL d   1     -41.994  15.922  20.592  0.00  0.00     0.029 C 
ENDBRANCH  19  20
ENDBRANCH   4  19
BRANCH   3  22
ATOM     22  C   UNL d   1     -38.297  13.480  21.803  0.00  0.00     0.000 C 
ATOM     23  C   UNL d   1     -38.043  12.779  21.448  0.00  0.00     0.000 C 
ATOM     24  C   UNL d   1     -37.940  13.744  22.499  0.00  0.00     0.000 C 
ENDBRANCH   3  22
TORSDOF 7
ENDMDL
MODEL 7
REMARK VINA RESULT:      -4.5      7.371      8.909
REMARK  7 active torsions:
REMARK  status: ('A' for Active; 'I' for Inactive)
REMARK    1  A    between atoms: C_2  and  S_1 
REMARK    2  A    between atoms: N_6  and  S_1 
REMARK    3  A    between atoms: C_14  and  C_4 
REMARK    4  A    between atoms: O_15  and  C_5 
REMARK    5  A    between atoms: C_12  and  N_6 
REMARK    6  A    between atoms: C_13  and  C_12 
REMARK    7  A    between atoms: C_20  and  O_15 
ROOT
ATOM      1  C   UNL d   1     -39.792  14.620  18.738  0.00  0.00     0.128 A 
ATOM      2  C   UNL d   1     -39.620  14.389  19.511  0.00  0.00     0.015 A 
ATOM      3  C   UNL d   1     -40.002  14.748  20.144  0.00  0.00     0.001 A 
ATOM      4  C   UNL d   1     -40.348  15.214  18.602  0.00  0.00     0.112 A 
ATOM      5  C   UNL d   1     -40.559  15.342  20.008  0.00  0.00     0.002 A 
ATOM      6  C   UNL d   1     -40.731  15.573  19.234  0.00  0.00     0.025 A 
ATOM      7  C   UNL d   1     -40.943  15.704  20.643  0.00  0.00     0.000 C 
ENDROOT
BRANCH   1   8
ATOM      8  S   UNL d   1     -39.407  14.258  18.102  0.00  0.00     0.287 S 
ATOM      9  O   UNL d   1     -40.060  13.764  17.989  0.00  0.00    -0.198 OA
ATOM     10  O   UNL d   1     -38.755  14.753  18.215  0.00  0.00    -0.198 OA
BRANCH   8  11
ATOM     11  N   UNL d   1     -39.023  13.896  17.466  0.00  0.00    -0.155 NA
BRANCH  11  12
ATOM     12  C   UNL d   1     -38.473  14.320  17.020  0.00  0.00     0.131 C 
BRANCH  12  13
ATOM     13  C   UNL d   1     -38.296  14.084  16.248  0.00  0.00     0.101 A 
ATOM     14  N   UNL d   1     -38.299  14.640  15.644  0.00  0.00    -0.242 NA
ATOM     15  C   UNL d   1     -38.124  14.412  14.872  0.00  0.00     0.099 A 
ATOM     16  C   UNL d   1     -37.943  13.614  14.711  0.00  0.00     0.021 A 
ATOM     17  C   UNL d   1     -37.942  13.061  15.323  0.00  0.00     0.003 A 
ATOM     18  C   UNL d   1     -38.117  13.295  16.088  0.00  0.00     0.021 A 
ENDBRANCH  12  13
ENDBRANCH  11  12
ENDBRANCH   8  11
ENDBRANCH   1   8
BRANCH   4  19
ATOM     19  O   UNL d   1     -40.522  15.447  17.826  0.00  0.00    -0.304 OA
BRANCH  19  20
ATOM     20  C   UNL d   1     -41.181  15.921  17.676  0.00  0.00     0.123 C 
ATOM     21  C   UNL d   1     -41.564  15.882  16.938  0.00  0.00     0.029 C 
ENDBRANCH  19  20
ENDBRANCH   4  19
BRANCH   3  22
ATOM     22  C   UNL d   1     -39.830  14.517  20.917  0.00  0.00     0.000 C 
ATOM     23  C   UNL d   1     -39.500  15.060  21.444  0.00  0.00     0.000 C 
ATOM     24  C   UNL d   1     -39.988  13.745  21.164  0.00  0.00     0.000 C 
ENDBRANCH   3  22
TORSDOF 7
ENDMDL
MODEL 8
REMARK VINA RESULT:      -3.8      1.637      4.599
REMARK  7 active torsions:
REMARK  status: ('A' for Active; 'I' for Inactive)
REMARK    1  A    between atoms: C_2  and  S_1 
REMARK    2  A    between atoms: N_6  and  S_1 
REMARK    3  A    between atoms: C_14  and  C_4 
REMARK    4  A    between atoms: O_15  and  C_5 
REMARK    5  A    between atoms: C_12  and  N_6 
REMARK    6  A    between atoms: C_13  and  C_12 
REMARK    7  A    between atoms: C_20  and  O_15 
ROOT
ATOM      1  C   UNL d   1     -46.709  13.031  22.671  0.00  0.00     0.128 A 
ATOM      2  C   UNL d   1     -46.035  12.570  22.550  0.00  0.00     0.015 A 
ATOM      3  C   UNL d   1     -45.331  12.923  22.314  0.00  0.00     0.001 A 
ATOM      4  C   UNL d   1     -46.673  13.847  22.553  0.00  0.00     0.112 A 
ATOM      5  C   UNL d   1     -45.296  13.739  22.197  0.00  0.00     0.002 A 
ATOM      6  C   UNL d   1     -45.970  14.200  22.317  0.00  0.00     0.025 A 
ATOM      7  C   UNL d   1     -44.588  14.094  21.959  0.00  0.00     0.000 C 
ENDROOT
BRANCH   1   8
ATOM      8  S   UNL d   1     -47.416  12.677  22.908  0.00  0.00     0.287 S 
ATOM      9  O   UNL d   1     -47.546  12.418  22.134  0.00  0.00    -0.198 OA
ATOM     10  O   UNL d   1     -47.286  12.935  23.683  0.00  0.00    -0.198 OA
BRANCH   8  11
ATOM     11  N   UNL d   1     -48.124  12.322  23.146  0.00  0.00    -0.155 NA
BRANCH  11  12
ATOM     12  C   UNL d   1     -48.708  12.151  22.589  0.00  0.00     0.131 C 
BRANCH  12  13
ATOM     13  C   UNL d   1     -49.495  12.067  22.826  0.00  0.00     0.101 A 
ATOM     14  N   UNL d   1     -49.684  11.536  23.422  0.00  0.00    -0.242 NA
ATOM     15  C   UNL d   1     -50.466  11.447  23.664  0.00  0.00     0.099 A 
ATOM     16  C   UNL d   1     -51.062  11.901  23.299  0.00  0.00     0.021 A 
ATOM     17  C   UNL d   1     -50.866  12.433  22.700  0.00  0.00     0.003 A 
ATOM     18  C   UNL d   1     -50.086  12.516  22.465  0.00  0.00     0.021 A 
ENDBRANCH  12  13
ENDBRANCH  11  12
ENDBRANCH   8  11
ENDBRANCH   1   8
BRANCH   4  19
ATOM     19  O   UNL d   1     -47.349  14.312  22.674  0.00  0.00    -0.304 OA
BRANCH  19  20
ATOM     20  C   UNL d   1     -47.326  15.121  22.515  0.00  0.00     0.123 C 
ATOM     21  C   UNL d   1     -48.032  15.562  22.493  0.00  0.00     0.029 C 
ENDBRANCH  19  20
ENDBRANCH   4  19
BRANCH   3  22
ATOM     22  C   UNL d   1     -44.657  12.462  22.193  0.00  0.00     0.000 C 
ATOM     23  C   UNL d   1     -44.194  12.580  21.520  0.00  0.00     0.000 C 
ATOM     24  C   UNL d   1     -44.446  11.884  22.745  0.00  0.00     0.000 C 
ENDBRANCH   3  22
TORSDOF 7
ENDMDL
MODEL 9
REMARK VINA RESULT:      -3.6      6.575      8.484
REMARK  7 active torsions:
REMARK  status: ('A' for Active; 'I' for Inactive)
REMARK    1  A    between atoms: C_2  and  S_1 
REMARK    2  A    between atoms: N_6  and  S_1 
REMARK    3  A    between atoms: C_14  and  C_4 
REMARK    4  A    between atoms: O_15  and  C_5 
REMARK    5  A    between atoms: C_12  and  N_6 
REMARK    6  A    between atoms: C_13  and  C_12 
REMARK    7  A    between atoms: C_20  and  O_15 
ROOT
ATOM      1  C   UNL d   1     -39.602  14.591  19.573  0.00  0.00     0.128 A 
ATOM      2  C   UNL d   1     -40.310  14.954  19.792  0.00  0.00     0.015 A 
ATOM      3  C   UNL d   1     -40.650  14.788  20.522  0.00  0.00     0.001 A 
ATOM      4  C   UNL d   1     -39.235  14.062  20.090  0.00  0.00     0.112 A 
ATOM      5  C   UNL d   1     -40.283  14.259  21.039  0.00  0.00     0.002 A 
ATOM      6  C   UNL d   1     -39.575  13.896  20.820  0.00  0.00     0.025 A 
ATOM      7  C   UNL d   1     -40.624  14.093  21.773  0.00  0.00     0.000 C 
ENDROOT
BRANCH   1   8
ATOM      8  S   UNL d   1     -39.261  14.757  18.840  0.00  0.00     0.287 S 
ATOM      9  O   UNL d   1     -39.666  14.118  18.506  0.00  0.00    -0.198 OA
ATOM     10  O   UNL d   1     -38.855  15.397  19.173  0.00  0.00    -0.198 OA
BRANCH   8  11
ATOM     11  N   UNL d   1     -38.919  14.924  18.105  0.00  0.00    -0.155 NA
BRANCH  11  12
ATOM     12  C   UNL d   1     -39.266  14.636  17.414  0.00  0.00     0.131 C 
BRANCH  12  13
ATOM     13  C   UNL d   1     -38.882  14.732  16.688  0.00  0.00     0.101 A 
ATOM     14  N   UNL d   1     -38.639  15.480  16.454  0.00  0.00    -0.242 NA
ATOM     15  C   UNL d   1     -38.256  15.584  15.732  0.00  0.00     0.099 A 
ATOM     16  C   UNL d   1     -38.119  14.923  15.243  0.00  0.00     0.021 A 
ATOM     17  C   UNL d   1     -38.366  14.174  15.483  0.00  0.00     0.003 A 
ATOM     18  C   UNL d   1     -38.746  14.079  16.203  0.00  0.00     0.021 A 
ENDBRANCH  12  13
ENDBRANCH  11  12
ENDBRANCH   8  11
ENDBRANCH   1   8
BRANCH   4  19
ATOM     19  O   UNL d   1     -38.524  13.697  19.872  0.00  0.00    -0.304 OA
BRANCH  19  20
ATOM     20  C   UNL d   1     -38.114  13.234  20.419  0.00  0.00     0.123 C 
ATOM     21  C   UNL d   1     -37.940  12.439  20.245  0.00  0.00     0.029 C 
ENDBRANCH  19  20
ENDBRANCH   4  19
BRANCH   3  22
ATOM     22  C   UNL d   1     -41.358  15.151  20.741  0.00  0.00     0.000 C 
ATOM     23  C   UNL d   1     -42.070  14.741  20.663  0.00  0.00     0.000 C 
ATOM     24  C   UNL d   1     -41.354  15.922  21.038  0.00  0.00     0.000 C 
ENDBRANCH   3  22
TORSDOF 7
ENDMDL
