MODEL 1
REMARK VINA RESULT:     106.1      0.000      0.000
REMARK  5 active torsions:
REMARK  status: ('A' for Active; 'I' for Inactive)
REMARK    1  A    between atoms: C_10  and  C_1 
REMARK    2  A    between atoms: C_16  and  C_2 
REMARK    3  A    between atoms: C_7  and  C_14 
REMARK    4  A    between atoms: C_13  and  C_10 
REMARK    5  A    between atoms: C_14  and  C_13 
ROOT
ATOM      1  C   UNL d   1     -56.982 -99.214 -43.679  0.00  0.00     0.097 A 
ATOM      2  C   UNL d   1     -57.103 -99.171 -44.516  0.00  0.00     0.009 A 
ATOM      3  C   UNL d   1     -57.614 -99.118 -43.165  0.00  0.00     0.282 A 
ATOM      4  C   UNL d   1     -57.854 -99.034 -44.782  0.00  0.00     0.019 A 
ATOM      5  N   UNL d   1     -58.392 -98.976 -43.466  0.00  0.00    -0.208 NA
ATOM      6  C   UNL d   1     -58.485 -98.939 -44.268  0.00  0.00     0.085 A 
ATOM      7  C   UNL d   1     -57.968 -98.993 -45.612  0.00  0.00     0.013 A 
ATOM      8  C   UNL d   1     -59.257 -98.798 -44.562  0.00  0.00     0.020 A 
ATOM      9  O   UNL d   1     -57.499 -99.159 -42.335  0.00  0.00    -0.265 OA
ATOM     10  C   UNL d   1     -58.747 -98.851 -45.913  0.00  0.00     0.058 A 
ATOM     11  C   UNL d   1     -59.378 -98.755 -45.398  0.00  0.00     0.013 A 
ATOM     12 CL   UNL d   1     -58.862 -98.809 -46.743  0.00  0.00    -0.082 Cl
ENDROOT
BRANCH   1  13
ATOM     13  C   UNL d   1     -56.210 -99.355 -43.385  0.00  0.00     0.200 C 
ATOM     14  O   UNL d   1     -55.809 -98.765 -42.912  0.00  0.00    -0.286 OA
BRANCH  13  15
ATOM     15  C   UNL d   1     -55.821-100.059 -43.543  0.00  0.00     0.045 C 
BRANCH  15  16
ATOM     16  C   UNL d   1     -55.074-100.259 -43.222  0.00  0.00     0.042 C 
BRANCH  16  17
ATOM     17  C   UNL d   1     -55.004-100.621 -42.469  0.00  0.00     0.163 A 
ATOM     18  N   UNL d   1     -54.837-100.311 -41.735  0.00  0.00    -0.225 NA
ATOM     19  C   UNL d   1     -54.844-100.940 -41.208  0.00  0.00     0.101 A 
ATOM     20  C   UNL d   1     -54.712-100.952 -40.396  0.00  0.00     0.021 A 
ATOM     21  C   UNL d   1     -55.007-101.611 -41.596  0.00  0.00     0.101 A 
ATOM     22  C   UNL d   1     -54.754-101.688 -39.990  0.00  0.00     0.002 A 
ATOM     23  C   UNL d   1     -54.925-102.363 -40.421  0.00  0.00     0.002 A 
ATOM     24  C   UNL d   1     -55.049-102.298 -41.231  0.00  0.00     0.021 A 
ATOM     25  N   UNL d   1     -55.117-101.433 -42.426  0.00  0.00    -0.225 NA
ENDBRANCH  16  17
ENDBRANCH  15  16
ENDBRANCH  13  15
ENDBRANCH   1  13
BRANCH   2  26
ATOM     26  C   UNL d   1     -56.444 -99.271 -45.053  0.00  0.00     0.000 A 
ATOM     27  C   UNL d   1     -55.765 -98.822 -44.914  0.00  0.00     0.000 A 
ATOM     28  C   UNL d   1     -55.111 -98.888 -45.405  0.00  0.00     0.000 A 
ATOM     29  C   UNL d   1     -55.189 -99.461 -46.076  0.00  0.00     0.000 A 
ATOM     30  C   UNL d   1     -55.851 -99.879 -46.186  0.00  0.00     0.000 A 
ATOM     31  C   UNL d   1     -56.509 -99.779 -45.649  0.00  0.00     0.000 A 
ENDBRANCH   2  26
TORSDOF 5
ENDMDL
