MODEL 1
REMARK VINA RESULT:      -9.2      0.000      0.000
REMARK  6 active torsions:
REMARK  status: ('A' for Active; 'I' for Inactive)
REMARK    1  A    between atoms: C_7  and  N_1 
REMARK    2  A    between atoms: C_9  and  C_7 
REMARK    3  A    between atoms: C_10  and  C_9 
REMARK       I    between atoms: N_13  and  C_10 
REMARK    4  A    between atoms: C_15  and  N_13 
REMARK    5  A    between atoms: C_18  and  C_15 
REMARK    6  A    between atoms: C_17  and  C_18 
ROOT
ATOM      1  C   UNL d   1      51.812  33.770  52.814  0.00  0.00     0.090 C 
ENDROOT
BRANCH   1   2
ATOM      2  N   UNL d   1      52.430  33.492  53.297  0.00  0.00    -0.249 N 
ATOM      3  C   UNL d   1      52.630  32.700  53.288  0.00  0.00     0.208 A 
ATOM      4  N   UNL d   1      53.242  32.415  53.763  0.00  0.00    -0.218 NA
ATOM      5  S   UNL d   1      52.222  32.173  52.799  0.00  0.00    -0.038 SA
ATOM      6  C   UNL d   1      53.649  32.946  54.252  0.00  0.00     0.088 A 
ATOM      7  C   UNL d   1      53.447  33.744  54.261  0.00  0.00     0.074 A 
ATOM      8  C   UNL d   1      54.262  32.670  54.731  0.00  0.00     0.019 A 
ATOM      9  C   UNL d   1      52.834  34.019  53.782  0.00  0.00     0.268 A 
ATOM     10  C   UNL d   1      53.855  34.268  54.750  0.00  0.00     0.006 A 
ATOM     11  O   UNL d   1      52.630  34.817  53.791  0.00  0.00    -0.267 OA
ATOM     12  C   UNL d   1      54.468  33.993  55.229  0.00  0.00     0.000 A 
ATOM     13  C   UNL d   1      54.673  33.199  55.222  0.00  0.00     0.002 A 
ENDBRANCH   1   2
BRANCH   1  14
ATOM     14  C   UNL d   1      51.059  33.856  53.129  0.00  0.00     0.082 C 
BRANCH  14  15
ATOM     15  C   UNL d   1      50.475  34.264  52.705  0.00  0.00     0.281 C 
ATOM     16  O   UNL d   1      50.540  34.325  51.888  0.00  0.00    -0.265 OA
ATOM     17  N   UNL d   1      49.843  34.600  53.106  0.00  0.00    -0.206 NA
BRANCH  17  18
ATOM     18  C   UNL d   1      49.253  35.012  52.678  0.00  0.00     0.102 C 
BRANCH  18  19
ATOM     19  C   UNL d   1      48.806  35.594  53.038  0.00  0.00     0.021 C 
BRANCH  19  20
ATOM     20  C   UNL d   1      48.082  35.797  52.746  0.00  0.00     0.002 A 
ATOM     21  C   UNL d   1      47.503  36.138  53.236  0.00  0.00     0.000 A 
ATOM     22  C   UNL d   1      46.761  36.346  52.936  0.00  0.00     0.000 A 
ATOM     23  C   UNL d   1      46.569  36.223  52.145  0.00  0.00     0.000 A 
ATOM     24  C   UNL d   1      47.150  35.882  51.656  0.00  0.00     0.000 A 
ATOM     25  C   UNL d   1      47.898  35.669  51.946  0.00  0.00     0.000 A 
ENDBRANCH  19  20
ENDBRANCH  18  19
ENDBRANCH  17  18
ENDBRANCH  14  15
ENDBRANCH   1  14
TORSDOF 6
ENDMDL
MODEL 2
REMARK VINA RESULT:      -9.0      1.144      1.586
REMARK  6 active torsions:
REMARK  status: ('A' for Active; 'I' for Inactive)
REMARK    1  A    between atoms: C_7  and  N_1 
REMARK    2  A    between atoms: C_9  and  C_7 
REMARK    3  A    between atoms: C_10  and  C_9 
REMARK       I    between atoms: N_13  and  C_10 
REMARK    4  A    between atoms: C_15  and  N_13 
REMARK    5  A    between atoms: C_18  and  C_15 
REMARK    6  A    between atoms: C_17  and  C_18 
ROOT
ATOM      1  C   UNL d   1      51.524  34.136  52.673  0.00  0.00     0.090 C 
ENDROOT
BRANCH   1   2
ATOM      2  N   UNL d   1      52.166  33.734  53.017  0.00  0.00    -0.249 N 
ATOM      3  C   UNL d   1      52.705  34.142  53.476  0.00  0.00     0.208 A 
ATOM      4  N   UNL d   1      53.345  33.753  53.822  0.00  0.00    -0.218 NA
ATOM      5  S   UNL d   1      52.614  34.954  53.601  0.00  0.00    -0.038 SA
ATOM      6  C   UNL d   1      53.433  32.938  53.694  0.00  0.00     0.088 A 
ATOM      7  C   UNL d   1      52.890  32.527  53.232  0.00  0.00     0.074 A 
ATOM      8  C   UNL d   1      54.070  32.540  54.036  0.00  0.00     0.019 A 
ATOM      9  C   UNL d   1      52.254  32.926  52.891  0.00  0.00     0.268 A 
ATOM     10  C   UNL d   1      52.983  31.716  53.108  0.00  0.00     0.006 A 
ATOM     11  O   UNL d   1      51.710  32.516  52.427  0.00  0.00    -0.267 OA
ATOM     12  C   UNL d   1      53.619  31.317  53.449  0.00  0.00     0.000 A 
ATOM     13  C   UNL d   1      54.162  31.723  53.910  0.00  0.00     0.002 A 
ENDBRANCH   1   2
BRANCH   1  14
ATOM     14  C   UNL d   1      50.785  34.098  53.028  0.00  0.00     0.082 C 
BRANCH  14  15
ATOM     15  C   UNL d   1      50.136  34.480  52.681  0.00  0.00     0.281 C 
ATOM     16  O   UNL d   1      50.041  34.450  51.866  0.00  0.00    -0.265 OA
ATOM     17  N   UNL d   1      49.602  34.882  53.156  0.00  0.00    -0.206 NA
BRANCH  17  18
ATOM     18  C   UNL d   1      48.947  35.268  52.806  0.00  0.00     0.102 C 
BRANCH  18  19
ATOM     19  C   UNL d   1      48.556  35.868  53.200  0.00  0.00     0.021 C 
BRANCH  19  20
ATOM     20  C   UNL d   1      47.786  36.039  53.031  0.00  0.00     0.002 A 
ATOM     21  C   UNL d   1      47.547  36.211  52.254  0.00  0.00     0.000 A 
ATOM     22  C   UNL d   1      46.758  36.386  52.080  0.00  0.00     0.000 A 
ATOM     23  C   UNL d   1      46.182  36.397  52.668  0.00  0.00     0.000 A 
ATOM     24  C   UNL d   1      46.424  36.225  53.447  0.00  0.00     0.000 A 
ATOM     25  C   UNL d   1      47.213  36.048  53.632  0.00  0.00     0.000 A 
ENDBRANCH  19  20
ENDBRANCH  18  19
ENDBRANCH  17  18
ENDBRANCH  14  15
ENDBRANCH   1  14
TORSDOF 6
ENDMDL
MODEL 3
REMARK VINA RESULT:      -8.4      1.393      5.952
REMARK  6 active torsions:
REMARK  status: ('A' for Active; 'I' for Inactive)
REMARK    1  A    between atoms: C_7  and  N_1 
REMARK    2  A    between atoms: C_9  and  C_7 
REMARK    3  A    between atoms: C_10  and  C_9 
REMARK       I    between atoms: N_13  and  C_10 
REMARK    4  A    between atoms: C_15  and  N_13 
REMARK    5  A    between atoms: C_18  and  C_15 
REMARK    6  A    between atoms: C_17  and  C_18 
ROOT
ATOM      1  C   UNL d   1      49.722  34.897  51.949  0.00  0.00     0.090 C 
ENDROOT
BRANCH   1   2
ATOM      2  N   UNL d   1      48.917  35.109  51.938  0.00  0.00    -0.249 N 
ATOM      3  C   UNL d   1      48.444  34.879  51.313  0.00  0.00     0.208 A 
ATOM      4  N   UNL d   1      47.645  35.084  51.292  0.00  0.00    -0.218 NA
ATOM      5  S   UNL d   1      48.762  34.437  50.691  0.00  0.00    -0.038 SA
ATOM      6  C   UNL d   1      47.329  35.527  51.917  0.00  0.00     0.088 A 
ATOM      7  C   UNL d   1      47.806  35.758  52.547  0.00  0.00     0.074 A 
ATOM      8  C   UNL d   1      46.531  35.736  51.905  0.00  0.00     0.019 A 
ATOM      9  C   UNL d   1      48.604  35.549  52.558  0.00  0.00     0.268 A 
ATOM     10  C   UNL d   1      47.487  36.200  53.167  0.00  0.00     0.006 A 
ATOM     11  O   UNL d   1      49.083  35.780  53.188  0.00  0.00    -0.267 OA
ATOM     12  C   UNL d   1      46.690  36.410  53.155  0.00  0.00     0.000 A 
ATOM     13  C   UNL d   1      46.211  36.181  52.530  0.00  0.00     0.002 A 
ENDBRANCH   1   2
BRANCH   1  14
ATOM     14  C   UNL d   1      49.983  34.324  52.476  0.00  0.00     0.082 C 
BRANCH  14  15
ATOM     15  C   UNL d   1      50.786  34.124  52.508  0.00  0.00     0.281 C 
ATOM     16  O   UNL d   1      51.274  34.312  51.874  0.00  0.00    -0.265 OA
ATOM     17  N   UNL d   1      51.082  33.742  53.171  0.00  0.00    -0.206 NA
BRANCH  17  18
ATOM     18  C   UNL d   1      51.894  33.540  53.204  0.00  0.00     0.102 C 
BRANCH  18  19
ATOM     19  C   UNL d   1      52.190  33.101  53.827  0.00  0.00     0.021 C 
BRANCH  19  20
ATOM     20  C   UNL d   1      52.980  33.094  53.987  0.00  0.00     0.002 A 
ATOM     21  C   UNL d   1      53.301  33.585  54.578  0.00  0.00     0.000 A 
ATOM     22  C   UNL d   1      54.111  33.578  54.742  0.00  0.00     0.000 A 
ATOM     23  C   UNL d   1      54.628  33.088  54.330  0.00  0.00     0.000 A 
ATOM     24  C   UNL d   1      54.305  32.598  53.739  0.00  0.00     0.000 A 
ATOM     25  C   UNL d   1      53.494  32.596  53.565  0.00  0.00     0.000 A 
ENDBRANCH  19  20
ENDBRANCH  18  19
ENDBRANCH  17  18
ENDBRANCH  14  15
ENDBRANCH   1  14
TORSDOF 6
ENDMDL
MODEL 4
REMARK VINA RESULT:      -7.6      1.602      6.253
REMARK  6 active torsions:
REMARK  status: ('A' for Active; 'I' for Inactive)
REMARK    1  A    between atoms: C_7  and  N_1 
REMARK    2  A    between atoms: C_9  and  C_7 
REMARK    3  A    between atoms: C_10  and  C_9 
REMARK       I    between atoms: N_13  and  C_10 
REMARK    4  A    between atoms: C_15  and  N_13 
REMARK    5  A    between atoms: C_18  and  C_15 
REMARK    6  A    between atoms: C_17  and  C_18 
ROOT
ATOM      1  C   UNL d   1      49.120  35.357  52.419  0.00  0.00     0.090 C 
ENDROOT
BRANCH   1   2
ATOM      2  N   UNL d   1      48.318  35.575  52.452  0.00  0.00    -0.249 N 
ATOM      3  C   UNL d   1      48.021  35.936  53.123  0.00  0.00     0.208 A 
ATOM      4  N   UNL d   1      47.227  36.156  53.166  0.00  0.00    -0.218 NA
ATOM      5  S   UNL d   1      48.514  36.084  53.769  0.00  0.00    -0.038 SA
ATOM      6  C   UNL d   1      46.735  36.006  52.516  0.00  0.00     0.088 A 
ATOM      7  C   UNL d   1      47.034  35.643  51.841  0.00  0.00     0.074 A 
ATOM      8  C   UNL d   1      45.939  36.223  52.550  0.00  0.00     0.019 A 
ATOM      9  C   UNL d   1      47.829  35.426  51.808  0.00  0.00     0.268 A 
ATOM     10  C   UNL d   1      46.540  35.496  51.197  0.00  0.00     0.006 A 
ATOM     11  O   UNL d   1      48.131  35.063  51.133  0.00  0.00    -0.267 OA
ATOM     12  C   UNL d   1      45.744  35.712  51.230  0.00  0.00     0.000 A 
ATOM     13  C   UNL d   1      45.442  36.074  51.900  0.00  0.00     0.002 A 
ENDBRANCH   1   2
BRANCH   1  14
ATOM     14  C   UNL d   1      49.338  34.588  52.606  0.00  0.00     0.082 C 
BRANCH  14  15
ATOM     15  C   UNL d   1      50.129  34.350  52.531  0.00  0.00     0.281 C 
ATOM     16  O   UNL d   1      50.561  34.591  51.874  0.00  0.00    -0.265 OA
ATOM     17  N   UNL d   1      50.467  33.880  53.112  0.00  0.00    -0.206 NA
BRANCH  17  18
ATOM     18  C   UNL d   1      51.266  33.640  53.036  0.00  0.00     0.102 C 
BRANCH  18  19
ATOM     19  C   UNL d   1      51.597  33.118  53.571  0.00  0.00     0.021 C 
BRANCH  19  20
ATOM     20  C   UNL d   1      52.392  32.982  53.576  0.00  0.00     0.002 A 
ATOM     21  C   UNL d   1      52.902  33.445  54.041  0.00  0.00     0.000 A 
ATOM     22  C   UNL d   1      53.718  33.306  54.046  0.00  0.00     0.000 A 
ATOM     23  C   UNL d   1      54.052  32.706  53.592  0.00  0.00     0.000 A 
ATOM     24  C   UNL d   1      53.540  32.244  53.126  0.00  0.00     0.000 A 
ATOM     25  C   UNL d   1      52.720  32.374  53.114  0.00  0.00     0.000 A 
ENDBRANCH  19  20
ENDBRANCH  18  19
ENDBRANCH  17  18
ENDBRANCH  14  15
ENDBRANCH   1  14
TORSDOF 6
ENDMDL
MODEL 5
REMARK VINA RESULT:      -6.9      2.258      6.472
REMARK  6 active torsions:
REMARK  status: ('A' for Active; 'I' for Inactive)
REMARK    1  A    between atoms: C_7  and  N_1 
REMARK    2  A    between atoms: C_9  and  C_7 
REMARK    3  A    between atoms: C_10  and  C_9 
REMARK       I    between atoms: N_13  and  C_10 
REMARK    4  A    between atoms: C_15  and  N_13 
REMARK    5  A    between atoms: C_18  and  C_15 
REMARK    6  A    between atoms: C_17  and  C_18 
ROOT
ATOM      1  C   UNL d   1      48.024  36.056  53.145  0.00  0.00     0.090 C 
ENDROOT
BRANCH   1   2
ATOM      2  N   UNL d   1      47.192  36.061  53.154  0.00  0.00    -0.249 N 
ATOM      3  C   UNL d   1      46.777  36.113  52.452  0.00  0.00     0.208 A 
ATOM      4  N   UNL d   1      45.951  36.119  52.450  0.00  0.00    -0.218 NA
ATOM      5  S   UNL d   1      47.180  36.161  51.733  0.00  0.00    -0.038 SA
ATOM      6  C   UNL d   1      45.550  36.071  53.174  0.00  0.00     0.088 A 
ATOM      7  C   UNL d   1      45.968  36.018  53.880  0.00  0.00     0.074 A 
ATOM      8  C   UNL d   1      44.725  36.076  53.181  0.00  0.00     0.019 A 
ATOM      9  C   UNL d   1      46.793  36.013  53.872  0.00  0.00     0.268 A 
ATOM     10  C   UNL d   1      45.563  35.970  54.598  0.00  0.00     0.006 A 
ATOM     11  O   UNL d   1      47.213  35.960  54.579  0.00  0.00    -0.267 OA
ATOM     12  C   UNL d   1      44.738  35.976  54.607  0.00  0.00     0.000 A 
ATOM     13  C   UNL d   1      44.318  36.028  53.905  0.00  0.00     0.002 A 
ENDBRANCH   1   2
BRANCH   1  14
ATOM     14  C   UNL d   1      48.423  35.349  53.028  0.00  0.00     0.082 C 
BRANCH  14  15
ATOM     15  C   UNL d   1      49.237  35.300  53.180  0.00  0.00     0.281 C 
ATOM     16  O   UNL d   1      49.593  35.872  53.651  0.00  0.00    -0.265 OA
ATOM     17  N   UNL d   1      49.673  34.685  52.858  0.00  0.00    -0.206 NA
BRANCH  17  18
ATOM     18  C   UNL d   1      50.494  34.636  53.011  0.00  0.00     0.102 C 
BRANCH  18  19
ATOM     19  C   UNL d   1      50.970  34.129  52.580  0.00  0.00     0.021 C 
BRANCH  19  20
ATOM     20  C   UNL d   1      51.696  33.912  52.856  0.00  0.00     0.002 A 
ATOM     21  C   UNL d   1      51.865  33.118  53.038  0.00  0.00     0.000 A 
ATOM     22  C   UNL d   1      52.609  32.895  53.320  0.00  0.00     0.000 A 
ATOM     23  C   UNL d   1      53.208  33.449  53.431  0.00  0.00     0.000 A 
ATOM     24  C   UNL d   1      53.038  34.243  53.248  0.00  0.00     0.000 A 
ATOM     25  C   UNL d   1      52.294  34.478  52.964  0.00  0.00     0.000 A 
ENDBRANCH  19  20
ENDBRANCH  18  19
ENDBRANCH  17  18
ENDBRANCH  14  15
ENDBRANCH   1  14
TORSDOF 6
ENDMDL
