MODEL 1
REMARK VINA RESULT:      53.0      0.000      0.000
REMARK  3 active torsions:
REMARK  status: ('A' for Active; 'I' for Inactive)
REMARK    1  A    between atoms: N_2  and  C_1 
REMARK       I    between atoms: C_4  and  N_2 
REMARK    2  A    between atoms: C_8  and  C_4 
REMARK    3  A    between atoms: C_10  and  C_5 
ROOT
ATOM      1  C   UNL d   1     -50.266  27.111  33.661  0.00  0.00     0.197 A 
ATOM      2  N   UNL d   1     -50.222  26.301  33.701  0.00  0.00    -0.221 NA
ATOM      3  C   UNL d   1     -51.003  26.027  33.472  0.00  0.00     0.090 A 
ATOM      4  S   UNL d   1     -51.020  27.364  33.423  0.00  0.00    -0.046 SA
ATOM      5  C   UNL d   1     -51.473  26.703  33.306  0.00  0.00     0.058 A 
ENDROOT
BRANCH   1   6
ATOM      6  N   UNL d   1     -49.622  27.633  33.840  0.00  0.00    -0.183 NA
ATOM      7  C   UNL d   1     -49.434  27.773  34.651  0.00  0.00     0.281 C 
ATOM      8  O   UNL d   1     -49.871  27.407  35.254  0.00  0.00    -0.265 OA
BRANCH   7   9
ATOM      9  C   UNL d   1     -48.815  28.275  34.862  0.00  0.00     0.058 A 
ATOM     10  C   UNL d   1     -48.990  29.050  35.048  0.00  0.00     0.005 A 
ATOM     11  C   UNL d   1     -48.367  29.567  35.264  0.00  0.00     0.000 A 
ATOM     12  C   UNL d   1     -47.587  29.312  35.292  0.00  0.00     0.000 A 
ATOM     13  C   UNL d   1     -47.418  28.511  35.098  0.00  0.00     0.000 A 
ATOM     14  C   UNL d   1     -47.009  29.763  35.484  0.00  0.00     0.000 C 
ATOM     15  C   UNL d   1     -48.038  27.996  34.883  0.00  0.00     0.005 A 
ENDBRANCH   7   9
ENDBRANCH   1   6
BRANCH   3  16
ATOM     16  C   UNL d   1     -51.263  25.252  33.418  0.00  0.00     0.018 A 
ATOM     17  C   UNL d   1     -52.062  25.103  33.385  0.00  0.00     0.002 A 
ATOM     18  C   UNL d   1     -52.343  24.318  33.330  0.00  0.00     0.000 A 
ATOM     19  C   UNL d   1     -51.816  23.689  33.308  0.00  0.00     0.000 A 
ATOM     20  C   UNL d   1     -50.996  23.833  33.341  0.00  0.00     0.000 A 
ATOM     21  C   UNL d   1     -50.731  24.623  33.396  0.00  0.00     0.002 A 
ENDBRANCH   3  16
TORSDOF 3
ENDMDL
MODEL 2
REMARK VINA RESULT:      53.5      1.597      2.511
REMARK  3 active torsions:
REMARK  status: ('A' for Active; 'I' for Inactive)
REMARK    1  A    between atoms: N_2  and  C_1 
REMARK       I    between atoms: C_4  and  N_2 
REMARK    2  A    between atoms: C_8  and  C_4 
REMARK    3  A    between atoms: C_10  and  C_5 
ROOT
ATOM      1  C   UNL d   1     -50.919  24.915  33.632  0.00  0.00     0.197 A 
ATOM      2  N   UNL d   1     -51.711  24.929  33.814  0.00  0.00    -0.221 NA
ATOM      3  C   UNL d   1     -51.956  24.106  33.784  0.00  0.00     0.090 A 
ATOM      4  S   UNL d   1     -50.652  24.142  33.490  0.00  0.00    -0.046 SA
ATOM      5  C   UNL d   1     -51.285  23.645  33.582  0.00  0.00     0.058 A 
ENDROOT
BRANCH   1   6
ATOM      6  N   UNL d   1     -50.427  25.605  33.593  0.00  0.00    -0.183 NA
ATOM      7  C   UNL d   1     -50.786  26.360  33.707  0.00  0.00     0.281 C 
ATOM      8  O   UNL d   1     -51.600  26.421  33.854  0.00  0.00    -0.265 OA
BRANCH   7   9
ATOM      9  C   UNL d   1     -50.339  27.052  33.675  0.00  0.00     0.058 A 
ATOM     10  C   UNL d   1     -50.699  27.734  33.410  0.00  0.00     0.005 A 
ATOM     11  C   UNL d   1     -50.252  28.443  33.374  0.00  0.00     0.000 A 
ATOM     12  C   UNL d   1     -49.463  28.464  33.599  0.00  0.00     0.000 A 
ATOM     13  C   UNL d   1     -49.101  27.755  33.871  0.00  0.00     0.000 A 
ATOM     14  C   UNL d   1     -49.041  29.094  33.575  0.00  0.00     0.000 C 
ATOM     15  C   UNL d   1     -49.547  27.050  33.906  0.00  0.00     0.005 A 
ENDBRANCH   7   9
ENDBRANCH   1   6
BRANCH   3  16
ATOM     16  C   UNL d   1     -52.705  23.805  33.923  0.00  0.00     0.018 A 
ATOM     17  C   UNL d   1     -52.916  23.600  34.681  0.00  0.00     0.002 A 
ATOM     18  C   UNL d   1     -53.677  23.291  34.839  0.00  0.00     0.000 A 
ATOM     19  C   UNL d   1     -54.219  23.192  34.232  0.00  0.00     0.000 A 
ATOM     20  C   UNL d   1     -54.012  23.400  33.452  0.00  0.00     0.000 A 
ATOM     21  C   UNL d   1     -53.247  23.707  33.310  0.00  0.00     0.002 A 
ENDBRANCH   3  16
TORSDOF 3
ENDMDL
