MODEL 1
REMARK VINA RESULT:      82.6      0.000      0.000
REMARK  6 active torsions:
REMARK  status: ('A' for Active; 'I' for Inactive)
REMARK    1  A    between atoms: N_2  and  C_1 
REMARK       I    between atoms: C_4  and  N_2 
REMARK    2  A    between atoms: C_21  and  N_2 
REMARK    3  A    between atoms: C_6  and  C_4 
REMARK    4  A    between atoms: C_23  and  C_21 
REMARK    5  A    between atoms: C_25  and  C_23 
REMARK    6  A    between atoms: N_24  and  C_25 
ROOT
ATOM      1  N   UNL d   1     -49.991  27.191  34.834  0.00  0.00    -0.252 N 
ATOM      2  C   UNL d   1     -49.458  27.543  34.307  0.00  0.00     0.272 C 
ATOM      3  O   UNL d   1     -49.398  27.277  33.537  0.00  0.00    -0.266 OA
ENDROOT
BRANCH   1   4
ATOM      4  C   UNL d   1     -50.468  26.559  34.568  0.00  0.00     0.182 A 
ATOM      5  N   UNL d   1     -51.267  26.615  34.358  0.00  0.00    -0.222 NA
ATOM      6  C   UNL d   1     -51.526  25.862  34.127  0.00  0.00     0.092 A 
ATOM      7  C   UNL d   1     -52.249  25.594  33.870  0.00  0.00     0.046 A 
ATOM      8  C   UNL d   1     -50.887  25.346  34.196  0.00  0.00     0.052 A 
ATOM      9  C   UNL d   1     -52.354  24.799  33.673  0.00  0.00     0.121 A 
ATOM     10  O   UNL d   1     -52.996  24.375  33.406  0.00  0.00    -0.299 OA
ATOM     11  C   UNL d   1     -51.718  24.286  33.741  0.00  0.00     0.120 A 
ATOM     12  C   UNL d   1     -52.760  23.595  33.306  0.00  0.00     0.304 A 
ATOM     13  O   UNL d   1     -51.974  23.535  33.512  0.00  0.00    -0.300 OA
ATOM     14  C   UNL d   1     -50.981  24.554  34.002  0.00  0.00     0.034 A 
ATOM     15  S   UNL d   1     -50.230  25.771  34.467  0.00  0.00    -0.048 SA
ENDBRANCH   1   4
BRANCH   1  16
ATOM     16  C   UNL d   1     -50.052  27.460  35.612  0.00  0.00     0.086 C 
BRANCH  16  17
ATOM     17  C   UNL d   1     -50.587  27.097  36.133  0.00  0.00     0.038 C 
BRANCH  17  18
ATOM     18  C   UNL d   1     -50.337  26.871  36.887  0.00  0.00     0.082 C 
BRANCH  18  19
ATOM     19  N   UNL d   1     -50.834  26.976  37.536  0.00  0.00    -0.300 N 
ATOM     20  C   UNL d   1     -51.415  26.416  37.701  0.00  0.00     0.100 C 
ATOM     21  C   UNL d   1     -50.749  27.639  38.018  0.00  0.00     0.100 C 
ENDBRANCH  18  19
ENDBRANCH  17  18
ENDBRANCH  16  17
ENDBRANCH   1  16
BRANCH   2  22
ATOM     22  C   UNL d   1     -48.986  28.169  34.574  0.00  0.00     0.087 A 
ATOM     23  S   UNL d   1     -48.289  28.111  35.030  0.00  0.00    -0.071 SA
ATOM     24  C   UNL d   1     -48.012  28.882  35.162  0.00  0.00     0.087 A 
ATOM     25 CL   UNL d   1     -47.322  29.098  35.596  0.00  0.00    -0.075 Cl
ATOM     26  C   UNL d   1     -48.529  29.402  34.794  0.00  0.00     0.019 A 
ATOM     27  C   UNL d   1     -49.125  28.970  34.434  0.00  0.00     0.013 A 
ENDBRANCH   2  22
TORSDOF 6
ENDMDL
MODEL 2
REMARK VINA RESULT:      83.5      2.518      3.714
REMARK  6 active torsions:
REMARK  status: ('A' for Active; 'I' for Inactive)
REMARK    1  A    between atoms: N_2  and  C_1 
REMARK       I    between atoms: C_4  and  N_2 
REMARK    2  A    between atoms: C_21  and  N_2 
REMARK    3  A    between atoms: C_6  and  C_4 
REMARK    4  A    between atoms: C_23  and  C_21 
REMARK    5  A    between atoms: C_25  and  C_23 
REMARK    6  A    between atoms: N_24  and  C_25 
ROOT
ATOM      1  N   UNL d   1     -48.671  30.251  34.155  0.00  0.00    -0.252 N 
ATOM      2  C   UNL d   1     -48.958  30.967  33.855  0.00  0.00     0.272 C 
ATOM      3  O   UNL d   1     -49.667  30.993  33.449  0.00  0.00    -0.266 OA
ENDROOT
BRANCH   1   4
ATOM      4  C   UNL d   1     -49.114  29.554  34.037  0.00  0.00     0.182 A 
ATOM      5  N   UNL d   1     -49.883  29.517  33.736  0.00  0.00    -0.222 NA
ATOM      6  C   UNL d   1     -50.114  28.721  33.711  0.00  0.00     0.092 A 
ATOM      7  C   UNL d   1     -50.803  28.364  33.468  0.00  0.00     0.046 A 
ATOM      8  C   UNL d   1     -49.485  28.270  33.996  0.00  0.00     0.052 A 
ATOM      9  C   UNL d   1     -50.883  27.543  33.504  0.00  0.00     0.121 A 
ATOM     10  O   UNL d   1     -51.490  27.038  33.306  0.00  0.00    -0.299 OA
ATOM     11  C   UNL d   1     -50.258  27.096  33.788  0.00  0.00     0.120 A 
ATOM     12  C   UNL d   1     -51.243  26.271  33.466  0.00  0.00     0.304 A 
ATOM     13  O   UNL d   1     -50.484  26.302  33.763  0.00  0.00    -0.300 OA
ATOM     14  C   UNL d   1     -49.556  27.454  34.035  0.00  0.00     0.034 A 
ATOM     15  S   UNL d   1     -48.864  28.779  34.199  0.00  0.00    -0.048 SA
ENDBRANCH   1   4
BRANCH   1  16
ATOM     16  C   UNL d   1     -47.954  30.226  34.565  0.00  0.00     0.086 C 
BRANCH  16  17
ATOM     17  C   UNL d   1     -47.914  29.839  35.299  0.00  0.00     0.038 C 
BRANCH  17  18
ATOM     18  C   UNL d   1     -47.178  29.688  35.643  0.00  0.00     0.082 C 
BRANCH  18  19
ATOM     19  N   UNL d   1     -47.076  29.772  36.456  0.00  0.00    -0.300 N 
ATOM     20  C   UNL d   1     -47.660  29.503  36.972  0.00  0.00     0.100 C 
ATOM     21  C   UNL d   1     -46.392  30.124  36.753  0.00  0.00     0.100 C 
ENDBRANCH  18  19
ENDBRANCH  17  18
ENDBRANCH  16  17
ENDBRANCH   1  16
BRANCH   2  22
ATOM     22  C   UNL d   1     -48.516  31.657  33.974  0.00  0.00     0.087 A 
ATOM     23  S   UNL d   1     -47.956  31.989  33.451  0.00  0.00    -0.071 SA
ATOM     24  C   UNL d   1     -47.658  32.676  33.807  0.00  0.00     0.087 A 
ATOM     25 CL   UNL d   1     -47.078  33.196  33.484  0.00  0.00    -0.075 Cl
ATOM     26  C   UNL d   1     -48.028  32.765  34.534  0.00  0.00     0.019 A 
ATOM     27  C   UNL d   1     -48.553  32.144  34.639  0.00  0.00     0.013 A 
ENDBRANCH   2  22
TORSDOF 6
ENDMDL
MODEL 3
REMARK VINA RESULT:      83.6      1.965      4.657
REMARK  6 active torsions:
REMARK  status: ('A' for Active; 'I' for Inactive)
REMARK    1  A    between atoms: N_2  and  C_1 
REMARK       I    between atoms: C_4  and  N_2 
REMARK    2  A    between atoms: C_21  and  N_2 
REMARK    3  A    between atoms: C_6  and  C_4 
REMARK    4  A    between atoms: C_23  and  C_21 
REMARK    5  A    between atoms: C_25  and  C_23 
REMARK    6  A    between atoms: N_24  and  C_25 
ROOT
ATOM      1  N   UNL d   1     -50.026  27.150  34.664  0.00  0.00    -0.252 N 
ATOM      2  C   UNL d   1     -50.280  27.096  33.878  0.00  0.00     0.272 C 
ATOM      3  O   UNL d   1     -49.991  27.610  33.312  0.00  0.00    -0.266 OA
ENDROOT
BRANCH   1   4
ATOM      4  C   UNL d   1     -49.471  27.737  34.873  0.00  0.00     0.182 A 
ATOM      5  N   UNL d   1     -49.150  27.850  35.627  0.00  0.00    -0.222 NA
ATOM      6  C   UNL d   1     -48.624  28.490  35.591  0.00  0.00     0.092 A 
ATOM      7  C   UNL d   1     -48.159  28.840  36.159  0.00  0.00     0.046 A 
ATOM      8  C   UNL d   1     -48.622  28.768  34.816  0.00  0.00     0.052 A 
ATOM      9  C   UNL d   1     -47.677  29.483  35.966  0.00  0.00     0.121 A 
ATOM     10  O   UNL d   1     -47.163  29.940  36.402  0.00  0.00    -0.299 OA
ATOM     11  C   UNL d   1     -47.677  29.760  35.194  0.00  0.00     0.120 A 
ATOM     12  C   UNL d   1     -46.840  30.505  35.901  0.00  0.00     0.304 A 
ATOM     13  O   UNL d   1     -47.153  30.398  35.156  0.00  0.00    -0.300 OA
ATOM     14  C   UNL d   1     -48.148  29.406  34.614  0.00  0.00     0.034 A 
ATOM     15  S   UNL d   1     -49.144  28.308  34.367  0.00  0.00    -0.048 SA
ENDBRANCH   1   4
BRANCH   1  16
ATOM     16  C   UNL d   1     -50.318  26.631  35.236  0.00  0.00     0.086 C 
BRANCH  16  17
ATOM     17  C   UNL d   1     -50.573  26.926  35.969  0.00  0.00     0.038 C 
BRANCH  17  18
ATOM     18  C   UNL d   1     -50.713  26.404  36.594  0.00  0.00     0.082 C 
BRANCH  18  19
ATOM     19  N   UNL d   1     -51.092  26.670  37.276  0.00  0.00    -0.300 N 
ATOM     20  C   UNL d   1     -51.912  26.616  37.337  0.00  0.00     0.100 C 
ATOM     21  C   UNL d   1     -50.651  26.989  37.897  0.00  0.00     0.100 C 
ENDBRANCH  18  19
ENDBRANCH  17  18
ENDBRANCH  16  17
ENDBRANCH   1  16
BRANCH   2  22
ATOM     22  C   UNL d   1     -50.831  26.513  33.674  0.00  0.00     0.087 A 
ATOM     23  S   UNL d   1     -50.699  25.689  33.642  0.00  0.00    -0.071 SA
ATOM     24  C   UNL d   1     -51.411  25.330  33.412  0.00  0.00     0.087 A 
ATOM     25 CL   UNL d   1     -51.543  24.505  33.305  0.00  0.00    -0.075 Cl
ATOM     26  C   UNL d   1     -51.969  25.923  33.306  0.00  0.00     0.019 A 
ATOM     27  C   UNL d   1     -51.618  26.646  33.465  0.00  0.00     0.013 A 
ENDBRANCH   2  22
TORSDOF 6
ENDMDL
MODEL 4
REMARK VINA RESULT:      85.2      2.575      4.971
REMARK  6 active torsions:
REMARK  status: ('A' for Active; 'I' for Inactive)
REMARK    1  A    between atoms: N_2  and  C_1 
REMARK       I    between atoms: C_4  and  N_2 
REMARK    2  A    between atoms: C_21  and  N_2 
REMARK    3  A    between atoms: C_6  and  C_4 
REMARK    4  A    between atoms: C_23  and  C_21 
REMARK    5  A    between atoms: C_25  and  C_23 
REMARK    6  A    between atoms: N_24  and  C_25 
ROOT
ATOM      1  N   UNL d   1     -49.454  26.770  34.198  0.00  0.00    -0.252 N 
ATOM      2  C   UNL d   1     -48.969  26.128  34.002  0.00  0.00     0.272 C 
ATOM      3  O   UNL d   1     -48.156  26.193  34.046  0.00  0.00    -0.266 OA
ENDROOT
BRANCH   1   4
ATOM      4  C   UNL d   1     -49.101  27.487  34.441  0.00  0.00     0.182 A 
ATOM      5  N   UNL d   1     -49.159  28.210  34.045  0.00  0.00    -0.222 NA
ATOM      6  C   UNL d   1     -48.728  28.775  34.473  0.00  0.00     0.092 A 
ATOM      7  C   UNL d   1     -48.596  29.567  34.343  0.00  0.00     0.046 A 
ATOM      8  C   UNL d   1     -48.407  28.397  35.130  0.00  0.00     0.052 A 
ATOM      9  C   UNL d   1     -48.135  30.005  34.871  0.00  0.00     0.121 A 
ATOM     10  O   UNL d   1     -47.909  30.787  34.890  0.00  0.00    -0.299 OA
ATOM     11  C   UNL d   1     -47.816  29.628  35.525  0.00  0.00     0.120 A 
ATOM     12  C   UNL d   1     -47.446  30.899  35.559  0.00  0.00     0.304 A 
ATOM     13  O   UNL d   1     -47.386  30.188  35.953  0.00  0.00    -0.300 OA
ATOM     14  C   UNL d   1     -47.948  28.824  35.660  0.00  0.00     0.034 A 
ATOM     15  S   UNL d   1     -48.633  27.601  35.117  0.00  0.00    -0.048 SA
ENDBRANCH   1   4
BRANCH   1  16
ATOM     16  C   UNL d   1     -50.276  26.704  34.154  0.00  0.00     0.086 C 
BRANCH  16  17
ATOM     17  C   UNL d   1     -50.707  27.237  33.685  0.00  0.00     0.038 C 
BRANCH  17  18
ATOM     18  C   UNL d   1     -51.517  27.121  33.572  0.00  0.00     0.082 C 
BRANCH  18  19
ATOM     19  N   UNL d   1     -52.005  27.760  33.395  0.00  0.00    -0.300 N 
ATOM     20  C   UNL d   1     -51.680  28.512  33.307  0.00  0.00     0.100 C 
ATOM     21  C   UNL d   1     -52.818  27.648  33.307  0.00  0.00     0.100 C 
ENDBRANCH  18  19
ENDBRANCH  17  18
ENDBRANCH  16  17
ENDBRANCH   1  16
BRANCH   2  22
ATOM     22  C   UNL d   1     -49.323  25.419  33.762  0.00  0.00     0.087 A 
ATOM     23  S   UNL d   1     -50.139  25.242  33.756  0.00  0.00    -0.071 SA
ATOM     24  C   UNL d   1     -50.226  24.468  33.472  0.00  0.00     0.087 A 
ATOM     25 CL   UNL d   1     -50.951  24.052  33.369  0.00  0.00    -0.075 Cl
ATOM     26  C   UNL d   1     -49.477  24.175  33.306  0.00  0.00     0.019 A 
ATOM     27  C   UNL d   1     -48.923  24.753  33.482  0.00  0.00     0.013 A 
ENDBRANCH   2  22
TORSDOF 6
ENDMDL
