MODEL 1
REMARK VINA RESULT:      47.9      0.000      0.000
REMARK  4 active torsions:
REMARK  status: ('A' for Active; 'I' for Inactive)
REMARK    1  A    between atoms: C_11  and  N_2 
REMARK    2  A    between atoms: C_10  and  C_6 
REMARK    3  A    between atoms: C_16  and  C_9 
REMARK    4  A    between atoms: C_21  and  C_16 
ROOT
ATOM      1  C   UNL d   1     -52.740  25.135  33.440  0.00  0.00     0.143 A 
ATOM      2  N   UNL d   1     -51.941  26.223  33.494  0.00  0.00    -0.242 N 
ATOM      3  C   UNL d   1     -51.952  25.392  33.444  0.00  0.00     0.172 A 
ATOM      4  C   UNL d   1     -52.732  26.478  33.522  0.00  0.00     0.355 A 
ATOM      5  N   UNL d   1     -53.219  25.807  33.489  0.00  0.00    -0.187 NA
ATOM      6  C   UNL d   1     -52.915  24.340  33.395  0.00  0.00     0.163 A 
ATOM      7  N   UNL d   1     -51.334  24.837  33.400  0.00  0.00    -0.208 NA
ATOM      8  N   UNL d   1     -52.313  23.780  33.351  0.00  0.00    -0.220 NA
ATOM      9  C   UNL d   1     -51.523  24.029  33.354  0.00  0.00     0.164 A 
ATOM     10  O   UNL d   1     -52.980  27.267  33.574  0.00  0.00    -0.244 OA
ENDROOT
BRANCH   2  11
ATOM     11  C   UNL d   1     -51.275  26.699  33.513  0.00  0.00     0.070 A 
ATOM     12  C   UNL d   1     -51.329  27.504  33.315  0.00  0.00     0.018 A 
ATOM     13  C   UNL d   1     -50.668  27.988  33.330  0.00  0.00     0.002 A 
ATOM     14  C   UNL d   1     -49.948  27.655  33.548  0.00  0.00     0.000 A 
ATOM     15  C   UNL d   1     -49.884  26.862  33.745  0.00  0.00     0.002 A 
ATOM     16  C   UNL d   1     -49.271  28.139  33.567  0.00  0.00     0.000 C 
ATOM     17  C   UNL d   1     -50.551  26.385  33.727  0.00  0.00     0.018 A 
ENDBRANCH   2  11
BRANCH   6  18
ATOM     18  C   UNL d   1     -53.703  24.084  33.391  0.00  0.00     0.316 C 
ATOM     19  O   UNL d   1     -54.323  24.627  33.319  0.00  0.00    -0.262 OA
ATOM     20  N   UNL d   1     -53.867  23.269  33.462  0.00  0.00    -0.101 N 
ENDBRANCH   6  18
BRANCH   9  21
ATOM     21  C   UNL d   1     -50.917  23.470  33.310  0.00  0.00     0.039 C 
BRANCH  21  22
ATOM     22  C   UNL d   1     -50.356  23.412  33.918  0.00  0.00     0.003 C 
ATOM     23  C   UNL d   1     -49.562  23.559  33.750  0.00  0.00     0.000 C 
ATOM     24  C   UNL d   1     -50.598  23.210  34.674  0.00  0.00     0.000 C 
ENDBRANCH  21  22
ENDBRANCH   9  21
TORSDOF 4
ENDMDL
