MODEL 1
REMARK VINA RESULT:      -3.2      0.000      0.000
REMARK  1 active torsions:
REMARK  status: ('A' for Active; 'I' for Inactive)
REMARK    1  A    between atoms: C_9  and  C_3 
ROOT
ATOM      1  C   UNL d   1      59.717  -8.996  34.481  0.00  0.00     0.171 A 
ATOM      2  N   UNL d   1      60.425  -9.061  34.062  0.00  0.00    -0.212 N 
ATOM      3  C   UNL d   1      59.718  -8.691  35.250  0.00  0.00     0.121 A 
ATOM      4  N   UNL d   1      61.133  -8.821  34.411  0.00  0.00    -0.162 NA
ATOM      5  N   UNL d   1      59.009  -9.234  34.136  0.00  0.00    -0.226 NA
ATOM      6  C   UNL d   1      60.424  -9.364  33.297  0.00  0.00     0.086 A 
ATOM      7  C   UNL d   1      61.133  -8.516  35.179  0.00  0.00     0.130 A 
ATOM      8  C   UNL d   1      59.716  -9.604  32.948  0.00  0.00     0.038 A 
ATOM      9  C   UNL d   1      59.009  -9.539  33.367  0.00  0.00     0.085 A 
ATOM     10  C   UNL d   1      61.132  -9.429  32.878  0.00  0.00     0.021 C 
ATOM     11  C   UNL d   1      58.301  -9.779  33.019  0.00  0.00     0.021 C 
ENDROOT
BRANCH   3  12
ATOM     12  C   UNL d   1      59.135  -8.550  35.818  0.00  0.00     0.215 C 
ATOM     13  O   UNL d   1      58.799  -7.798  35.879  0.00  0.00    -0.644 OA
ATOM     14  O   UNL d   1      58.889  -9.156  36.322  0.00  0.00    -0.644 OA
ENDBRANCH   3  12
TORSDOF 1
ENDMDL
MODEL 2
REMARK VINA RESULT:      -3.2      9.319      9.745
REMARK  1 active torsions:
REMARK  status: ('A' for Active; 'I' for Inactive)
REMARK    1  A    between atoms: C_9  and  C_3 
ROOT
ATOM      1  C   UNL d   1      56.958  -0.329  32.159  0.00  0.00     0.171 A 
ATOM      2  N   UNL d   1      57.145   0.176  32.784  0.00  0.00    -0.212 N 
ATOM      3  C   UNL d   1      57.421  -0.329  31.474  0.00  0.00     0.121 A 
ATOM      4  N   UNL d   1      57.794   0.682  32.723  0.00  0.00    -0.162 NA
ATOM      5  N   UNL d   1      56.312  -0.834  32.216  0.00  0.00    -0.226 NA
ATOM      6  C   UNL d   1      56.685   0.176  33.466  0.00  0.00     0.086 A 
ATOM      7  C   UNL d   1      58.257   0.682  32.038  0.00  0.00     0.130 A 
ATOM      8  C   UNL d   1      56.036  -0.329  33.526  0.00  0.00     0.038 A 
ATOM      9  C   UNL d   1      55.849  -0.834  32.901  0.00  0.00     0.085 A 
ATOM     10  C   UNL d   1      56.872   0.682  34.090  0.00  0.00     0.021 C 
ATOM     11  C   UNL d   1      55.200  -1.340  32.961  0.00  0.00     0.021 C 
ENDROOT
BRANCH   3  12
ATOM     12  C   UNL d   1      57.401  -0.746  30.760  0.00  0.00     0.215 C 
ATOM     13  O   UNL d   1      57.395  -0.332  30.045  0.00  0.00    -0.644 OA
ATOM     14  O   UNL d   1      57.386  -1.572  30.762  0.00  0.00    -0.644 OA
ENDBRANCH   3  12
TORSDOF 1
ENDMDL
MODEL 3
REMARK VINA RESULT:      -2.6      9.235      9.447
REMARK  1 active torsions:
REMARK  status: ('A' for Active; 'I' for Inactive)
REMARK    1  A    between atoms: C_9  and  C_3 
ROOT
ATOM      1  C   UNL d   1      59.200  -1.125  29.228  0.00  0.00     0.171 A 
ATOM      2  N   UNL d   1      60.016  -1.235  29.169  0.00  0.00    -0.212 N 
ATOM      3  C   UNL d   1      58.897  -0.390  29.452  0.00  0.00     0.121 A 
ATOM      4  N   UNL d   1      60.528  -0.610  29.334  0.00  0.00    -0.162 NA
ATOM      5  N   UNL d   1      58.687  -1.747  29.064  0.00  0.00    -0.226 NA
ATOM      6  C   UNL d   1      60.318  -1.967  28.946  0.00  0.00     0.086 A 
ATOM      7  C   UNL d   1      60.224   0.126  29.558  0.00  0.00     0.130 A 
ATOM      8  C   UNL d   1      59.806  -2.593  28.781  0.00  0.00     0.038 A 
ATOM      9  C   UNL d   1      58.991  -2.483  28.840  0.00  0.00     0.085 A 
ATOM     10  C   UNL d   1      61.133  -2.077  28.887  0.00  0.00     0.021 C 
ATOM     11  C   UNL d   1      58.479  -3.108  28.675  0.00  0.00     0.021 C 
ENDROOT
BRANCH   3  12
ATOM     12  C   UNL d   1      58.136  -0.086  29.566  0.00  0.00     0.215 C 
ATOM     13  O   UNL d   1      57.759   0.310  28.947  0.00  0.00    -0.644 OA
ATOM     14  O   UNL d   1      57.756  -0.179  30.293  0.00  0.00    -0.644 OA
ENDBRANCH   3  12
TORSDOF 1
ENDMDL
MODEL 4
REMARK VINA RESULT:      -2.3      9.509      9.869
REMARK  1 active torsions:
REMARK  status: ('A' for Active; 'I' for Inactive)
REMARK    1  A    between atoms: C_9  and  C_3 
ROOT
ATOM      1  C   UNL d   1      59.491  -0.738  29.407  0.00  0.00     0.171 A 
ATOM      2  N   UNL d   1      59.903  -1.413  29.174  0.00  0.00    -0.212 N 
ATOM      3  C   UNL d   1      58.668  -0.760  29.485  0.00  0.00     0.121 A 
ATOM      4  N   UNL d   1      59.492  -2.112  29.018  0.00  0.00    -0.162 NA
ATOM      5  N   UNL d   1      59.897  -0.039  29.563  0.00  0.00    -0.226 NA
ATOM      6  C   UNL d   1      60.722  -1.390  29.096  0.00  0.00     0.086 A 
ATOM      7  C   UNL d   1      58.669  -2.134  29.096  0.00  0.00     0.130 A 
ATOM      8  C   UNL d   1      61.132  -0.692  29.252  0.00  0.00     0.038 A 
ATOM      9  C   UNL d   1      60.720  -0.016  29.485  0.00  0.00     0.085 A 
ATOM     10  C   UNL d   1      61.133  -2.066  28.863  0.00  0.00     0.021 C 
ATOM     11  C   UNL d   1      61.131   0.682  29.640  0.00  0.00     0.021 C 
ENDROOT
BRANCH   3  12
ATOM     12  C   UNL d   1      58.090  -0.210  29.700  0.00  0.00     0.215 C 
ATOM     13  O   UNL d   1      57.826  -0.179  30.482  0.00  0.00    -0.644 OA
ATOM     14  O   UNL d   1      57.779   0.307  29.136  0.00  0.00    -0.644 OA
ENDBRANCH   3  12
TORSDOF 1
ENDMDL
MODEL 5
REMARK VINA RESULT:      -2.1      1.482      2.358
REMARK  1 active torsions:
REMARK  status: ('A' for Active; 'I' for Inactive)
REMARK    1  A    between atoms: C_9  and  C_3 
ROOT
ATOM      1  C   UNL d   1      59.939  -9.476  33.287  0.00  0.00     0.171 A 
ATOM      2  N   UNL d   1      59.165  -9.561  33.013  0.00  0.00    -0.212 N 
ATOM      3  C   UNL d   1      60.079  -9.305  34.084  0.00  0.00     0.121 A 
ATOM      4  N   UNL d   1      58.532  -9.476  33.535  0.00  0.00    -0.162 NA
ATOM      5  N   UNL d   1      60.572  -9.561  32.769  0.00  0.00    -0.226 NA
ATOM      6  C   UNL d   1      59.025  -9.732  32.220  0.00  0.00     0.086 A 
ATOM      7  C   UNL d   1      58.673  -9.304  34.332  0.00  0.00     0.130 A 
ATOM      8  C   UNL d   1      59.658  -9.818  31.698  0.00  0.00     0.038 A 
ATOM      9  C   UNL d   1      60.432  -9.732  31.972  0.00  0.00     0.085 A 
ATOM     10  C   UNL d   1      58.252  -9.817  31.946  0.00  0.00     0.021 C 
ATOM     11  C   UNL d   1      61.065  -9.818  31.450  0.00  0.00     0.021 C 
ENDROOT
BRANCH   3  12
ATOM     12  C   UNL d   1      60.758  -9.184  34.540  0.00  0.00     0.215 C 
ATOM     13  O   UNL d   1      61.081  -9.815  34.965  0.00  0.00    -0.644 OA
ATOM     14  O   UNL d   1      61.111  -8.438  34.571  0.00  0.00    -0.644 OA
ENDBRANCH   3  12
TORSDOF 1
ENDMDL
MODEL 6
REMARK VINA RESULT:      -2.1     10.039     10.163
REMARK  1 active torsions:
REMARK  status: ('A' for Active; 'I' for Inactive)
REMARK    1  A    between atoms: C_9  and  C_3 
ROOT
ATOM      1  C   UNL d   1      58.361   0.178  30.588  0.00  0.00     0.171 A 
ATOM      2  N   UNL d   1      59.136   0.430  30.720  0.00  0.00    -0.212 N 
ATOM      3  C   UNL d   1      57.815   0.178  31.209  0.00  0.00     0.121 A 
ATOM      4  N   UNL d   1      59.364   0.681  31.471  0.00  0.00    -0.162 NA
ATOM      5  N   UNL d   1      58.130  -0.074  29.839  0.00  0.00    -0.226 NA
ATOM      6  C   UNL d   1      59.679   0.430  30.102  0.00  0.00     0.086 A 
ATOM      7  C   UNL d   1      58.818   0.681  32.092  0.00  0.00     0.130 A 
ATOM      8  C   UNL d   1      59.451   0.179  29.350  0.00  0.00     0.038 A 
ATOM      9  C   UNL d   1      58.676  -0.073  29.219  0.00  0.00     0.085 A 
ATOM     10  C   UNL d   1      60.454   0.682  30.233  0.00  0.00     0.021 C 
ATOM     11  C   UNL d   1      58.448  -0.325  28.467  0.00  0.00     0.021 C 
ENDROOT
BRANCH   3  12
ATOM     12  C   UNL d   1      57.018  -0.030  31.280  0.00  0.00     0.215 C 
ATOM     13  O   UNL d   1      56.813  -0.817  31.427  0.00  0.00    -0.644 OA
ATOM     14  O   UNL d   1      56.430   0.545  31.204  0.00  0.00    -0.644 OA
ENDBRANCH   3  12
TORSDOF 1
ENDMDL
MODEL 7
REMARK VINA RESULT:      -2.1      9.587      9.836
REMARK  1 active torsions:
REMARK  status: ('A' for Active; 'I' for Inactive)
REMARK    1  A    between atoms: C_9  and  C_3 
ROOT
ATOM      1  C   UNL d   1      59.512  -1.038  29.208  0.00  0.00     0.171 A 
ATOM      2  N   UNL d   1      60.238  -0.646  29.217  0.00  0.00    -0.212 N 
ATOM      3  C   UNL d   1      59.487  -1.864  29.189  0.00  0.00     0.121 A 
ATOM      4  N   UNL d   1      60.939  -1.080  29.207  0.00  0.00    -0.162 NA
ATOM      5  N   UNL d   1      58.810  -0.608  29.218  0.00  0.00    -0.226 NA
ATOM      6  C   UNL d   1      60.262   0.176  29.237  0.00  0.00     0.086 A 
ATOM      7  C   UNL d   1      60.915  -1.906  29.187  0.00  0.00     0.130 A 
ATOM      8  C   UNL d   1      59.561   0.610  29.247  0.00  0.00     0.038 A 
ATOM      9  C   UNL d   1      58.835   0.219  29.238  0.00  0.00     0.085 A 
ATOM     10  C   UNL d   1      60.988   0.568  29.246  0.00  0.00     0.021 C 
ATOM     11  C   UNL d   1      58.133   0.652  29.248  0.00  0.00     0.021 C 
ENDROOT
BRANCH   3  12
ATOM     12  C   UNL d   1      58.881  -2.426  29.175  0.00  0.00     0.215 C 
ATOM     13  O   UNL d   1      58.649  -2.760  28.456  0.00  0.00    -0.644 OA
ATOM     14  O   UNL d   1      58.510  -2.653  29.877  0.00  0.00    -0.644 OA
ENDBRANCH   3  12
TORSDOF 1
ENDMDL
MODEL 8
REMARK VINA RESULT:      -1.9      8.479      8.958
REMARK  1 active torsions:
REMARK  status: ('A' for Active; 'I' for Inactive)
REMARK    1  A    between atoms: C_9  and  C_3 
ROOT
ATOM      1  C   UNL d   1      59.971  -2.469  29.081  0.00  0.00     0.171 A 
ATOM      2  N   UNL d   1      59.207  -2.174  28.987  0.00  0.00    -0.212 N 
ATOM      3  C   UNL d   1      60.106  -3.285  29.058  0.00  0.00     0.121 A 
ATOM      4  N   UNL d   1      58.577  -2.694  28.870  0.00  0.00    -0.162 NA
ATOM      5  N   UNL d   1      60.602  -1.954  29.198  0.00  0.00    -0.226 NA
ATOM      6  C   UNL d   1      59.073  -1.363  29.010  0.00  0.00     0.086 A 
ATOM      7  C   UNL d   1      58.712  -3.509  28.847  0.00  0.00     0.130 A 
ATOM      8  C   UNL d   1      59.703  -0.843  29.127  0.00  0.00     0.038 A 
ATOM      9  C   UNL d   1      60.467  -1.138  29.221  0.00  0.00     0.085 A 
ATOM     10  C   UNL d   1      58.308  -1.067  28.916  0.00  0.00     0.021 C 
ATOM     11  C   UNL d   1      61.097  -0.619  29.337  0.00  0.00     0.021 C 
ENDROOT
BRANCH   3  12
ATOM     12  C   UNL d   1      60.776  -3.764  29.129  0.00  0.00     0.215 C 
ATOM     13  O   UNL d   1      61.085  -3.925  29.878  0.00  0.00    -0.644 OA
ATOM     14  O   UNL d   1      61.133  -4.081  28.455  0.00  0.00    -0.644 OA
ENDBRANCH   3  12
TORSDOF 1
ENDMDL
MODEL 9
REMARK VINA RESULT:      -1.9      9.152      9.347
REMARK  1 active torsions:
REMARK  status: ('A' for Active; 'I' for Inactive)
REMARK    1  A    between atoms: C_9  and  C_3 
ROOT
ATOM      1  C   UNL d   1      57.011  -0.539  32.015  0.00  0.00     0.171 A 
ATOM      2  N   UNL d   1      57.555   0.071  31.906  0.00  0.00    -0.212 N 
ATOM      3  C   UNL d   1      56.517  -0.539  32.679  0.00  0.00     0.121 A 
ATOM      4  N   UNL d   1      57.606   0.681  32.459  0.00  0.00    -0.162 NA
ATOM      5  N   UNL d   1      56.958  -1.149  31.466  0.00  0.00    -0.226 NA
ATOM      6  C   UNL d   1      58.047   0.072  31.246  0.00  0.00     0.086 A 
ATOM      7  C   UNL d   1      57.112   0.681  33.122  0.00  0.00     0.130 A 
ATOM      8  C   UNL d   1      57.996  -0.538  30.693  0.00  0.00     0.038 A 
ATOM      9  C   UNL d   1      57.452  -1.149  30.803  0.00  0.00     0.085 A 
ATOM     10  C   UNL d   1      58.591   0.682  31.137  0.00  0.00     0.021 C 
ATOM     11  C   UNL d   1      57.402  -1.759  30.250  0.00  0.00     0.021 C 
ENDROOT
BRANCH   3  12
ATOM     12  C   UNL d   1      55.925  -1.043  32.961  0.00  0.00     0.215 C 
ATOM     13  O   UNL d   1      55.135  -0.805  32.924  0.00  0.00    -0.644 OA
ATOM     14  O   UNL d   1      56.123  -1.780  33.277  0.00  0.00    -0.644 OA
ENDBRANCH   3  12
TORSDOF 1
ENDMDL
