MODEL 1
REMARK VINA RESULT:      -6.2      0.000      0.000
REMARK  2 active torsions:
REMARK  status: ('A' for Active; 'I' for Inactive)
REMARK    1  A    between atoms: C_3  and  C_1 
REMARK       I    between atoms: C_2  and  N_4 
REMARK    2  A    between atoms: N_4  and  C_7 
ROOT
ATOM      1  C   UNL d   1     -41.860-122.369 -54.742  0.00  0.00     0.073 A 
ATOM      2  C   UNL d   1     -41.677-121.959 -54.048  0.00  0.00     0.024 A 
ATOM      3  C   UNL d   1     -41.309-122.351 -53.423  0.00  0.00     0.100 A 
ATOM      4  C   UNL d   1     -41.674-123.169 -54.809  0.00  0.00     0.004 A 
ATOM      5  C   UNL d   1     -41.306-123.561 -54.184  0.00  0.00     0.002 A 
ATOM      6  C   UNL d   1     -41.123-123.154 -53.492  0.00  0.00     0.020 A 
ENDROOT
BRANCH   1   7
ATOM      7  C   UNL d   1     -42.232-121.973 -55.373  0.00  0.00     0.419 C 
ATOM      8  F   UNL d   1     -42.567-121.616 -55.941  0.00  0.00    -0.166 F 
ATOM      9  F   UNL d   1     -41.883-121.463 -55.974  0.00  0.00    -0.166 F 
ATOM     10  F   UNL d   1     -43.063-121.966 -55.594  0.00  0.00    -0.166 F 
ENDBRANCH   1   7
BRANCH   3  11
ATOM     11  N   UNL d   1     -41.124-121.947 -52.727  0.00  0.00    -0.056 NA
ATOM     12  C   UNL d   1     -41.401-122.220 -52.007  0.00  0.00     0.787 C 
ATOM     13  N   UNL d   1     -41.219-121.820 -51.311  0.00  0.00     0.064 N 
ATOM     14  N   UNL d   1     -41.866-122.902 -51.982  0.00  0.00     0.064 N 
ENDBRANCH   3  11
TORSDOF 2
ENDMDL
MODEL 2
REMARK VINA RESULT:      -5.3      2.533      3.181
REMARK  2 active torsions:
REMARK  status: ('A' for Active; 'I' for Inactive)
REMARK    1  A    between atoms: C_3  and  C_1 
REMARK       I    between atoms: C_2  and  N_4 
REMARK    2  A    between atoms: N_4  and  C_7 
ROOT
ATOM      1  C   UNL d   1     -41.472-122.495 -52.209  0.00  0.00     0.073 A 
ATOM      2  C   UNL d   1     -41.457-122.113 -52.942  0.00  0.00     0.024 A 
ATOM      3  C   UNL d   1     -41.282-122.541 -53.625  0.00  0.00     0.100 A 
ATOM      4  C   UNL d   1     -41.313-123.302 -52.160  0.00  0.00     0.004 A 
ATOM      5  C   UNL d   1     -41.138-123.730 -52.843  0.00  0.00     0.002 A 
ATOM      6  C   UNL d   1     -41.123-123.351 -53.575  0.00  0.00     0.020 A 
ENDROOT
BRANCH   1   7
ATOM      7  C   UNL d   1     -41.648-122.063 -51.519  0.00  0.00     0.419 C 
ATOM      8  F   UNL d   1     -41.807-121.673 -50.898  0.00  0.00    -0.166 F 
ATOM      9  F   UNL d   1     -41.122-121.586 -51.029  0.00  0.00    -0.166 F 
ATOM     10  F   UNL d   1     -42.400-121.976 -51.111  0.00  0.00    -0.166 F 
ENDBRANCH   1   7
BRANCH   3  11
ATOM     11  N   UNL d   1     -41.266-122.165 -54.360  0.00  0.00    -0.056 NA
ATOM     12  C   UNL d   1     -41.895-122.247 -54.878  0.00  0.00     0.787 C 
ATOM     13  N   UNL d   1     -41.883-121.875 -55.611  0.00  0.00     0.064 N 
ATOM     14  N   UNL d   1     -42.545-122.707 -54.659  0.00  0.00     0.064 N 
ENDBRANCH   3  11
TORSDOF 2
ENDMDL
MODEL 3
REMARK VINA RESULT:      -4.0      3.480      4.472
REMARK  2 active torsions:
REMARK  status: ('A' for Active; 'I' for Inactive)
REMARK    1  A    between atoms: C_3  and  C_1 
REMARK       I    between atoms: C_2  and  N_4 
REMARK    2  A    between atoms: N_4  and  C_7 
ROOT
ATOM      1  C   UNL d   1     -42.271-122.911 -49.916  0.00  0.00     0.073 A 
ATOM      2  C   UNL d   1     -42.158-122.479 -50.612  0.00  0.00     0.024 A 
ATOM      3  C   UNL d   1     -41.585-122.718 -51.156  0.00  0.00     0.100 A 
ATOM      4  C   UNL d   1     -41.812-123.579 -49.765  0.00  0.00     0.004 A 
ATOM      5  C   UNL d   1     -41.239-123.817 -50.309  0.00  0.00     0.002 A 
ATOM      6  C   UNL d   1     -41.124-123.388 -51.003  0.00  0.00     0.020 A 
ENDROOT
BRANCH   1   7
ATOM      7  C   UNL d   1     -42.849-122.671 -49.367  0.00  0.00     0.419 C 
ATOM      8  F   UNL d   1     -43.370-122.454 -48.873  0.00  0.00    -0.166 F 
ATOM      9  F   UNL d   1     -43.708-122.665 -49.452  0.00  0.00    -0.166 F 
ATOM     10  F   UNL d   1     -42.747-122.364 -48.571  0.00  0.00    -0.166 F 
ENDBRANCH   1   7
BRANCH   3  11
ATOM     11  N   UNL d   1     -41.467-122.291 -51.852  0.00  0.00    -0.056 NA
ATOM     12  C   UNL d   1     -41.393-122.684 -52.567  0.00  0.00     0.787 C 
ATOM     13  N   UNL d   1     -41.276-122.262 -53.264  0.00  0.00     0.064 N 
ATOM     14  N   UNL d   1     -41.436-123.507 -52.585  0.00  0.00     0.064 N 
ENDBRANCH   3  11
TORSDOF 2
ENDMDL
MODEL 4
REMARK VINA RESULT:      -4.0      3.091      3.996
REMARK  2 active torsions:
REMARK  status: ('A' for Active; 'I' for Inactive)
REMARK    1  A    between atoms: C_3  and  C_1 
REMARK       I    between atoms: C_2  and  N_4 
REMARK    2  A    between atoms: N_4  and  C_7 
ROOT
ATOM      1  C   UNL d   1     -41.464-122.791 -51.033  0.00  0.00     0.073 A 
ATOM      2  C   UNL d   1     -41.379-123.209 -51.741  0.00  0.00     0.024 A 
ATOM      3  C   UNL d   1     -41.209-122.804 -52.439  0.00  0.00     0.100 A 
ATOM      4  C   UNL d   1     -41.379-121.972 -51.023  0.00  0.00     0.004 A 
ATOM      5  C   UNL d   1     -41.208-121.567 -51.721  0.00  0.00     0.002 A 
ATOM      6  C   UNL d   1     -41.123-121.981 -52.429  0.00  0.00     0.020 A 
ENDROOT
BRANCH   1   7
ATOM      7  C   UNL d   1     -41.636-123.201 -50.328  0.00  0.00     0.419 C 
ATOM      8  F   UNL d   1     -41.791-123.569 -49.693  0.00  0.00    -0.166 F 
ATOM      9  F   UNL d   1     -42.344-123.161 -49.837  0.00  0.00    -0.166 F 
ATOM     10  F   UNL d   1     -41.155-123.772 -49.901  0.00  0.00    -0.166 F 
ENDBRANCH   1   7
BRANCH   3  11
ATOM     11  N   UNL d   1     -41.123-123.214 -53.150  0.00  0.00    -0.056 NA
ATOM     12  C   UNL d   1     -41.518-122.961 -53.822  0.00  0.00     0.787 C 
ATOM     13  N   UNL d   1     -41.435-123.368 -54.532  0.00  0.00     0.064 N 
ATOM     14  N   UNL d   1     -42.001-122.293 -53.782  0.00  0.00     0.064 N 
ENDBRANCH   3  11
TORSDOF 2
ENDMDL
MODEL 5
REMARK VINA RESULT:      -3.9      3.225      3.948
REMARK  2 active torsions:
REMARK  status: ('A' for Active; 'I' for Inactive)
REMARK    1  A    between atoms: C_3  and  C_1 
REMARK       I    between atoms: C_2  and  N_4 
REMARK    2  A    between atoms: N_4  and  C_7 
ROOT
ATOM      1  C   UNL d   1     -41.571-122.479 -50.912  0.00  0.00     0.073 A 
ATOM      2  C   UNL d   1     -42.065-122.478 -50.249  0.00  0.00     0.024 A 
ATOM      3  C   UNL d   1     -42.110-123.147 -49.768  0.00  0.00     0.100 A 
ATOM      4  C   UNL d   1     -41.123-123.147 -51.092  0.00  0.00     0.004 A 
ATOM      5  C   UNL d   1     -41.168-123.816 -50.611  0.00  0.00     0.002 A 
ATOM      6  C   UNL d   1     -41.660-123.817 -49.950  0.00  0.00     0.020 A 
ENDROOT
BRANCH   1   7
ATOM      7  C   UNL d   1     -41.525-121.804 -51.397  0.00  0.00     0.419 C 
ATOM      8  F   UNL d   1     -41.485-121.196 -51.834  0.00  0.00    -0.166 F 
ATOM      9  F   UNL d   1     -41.123-121.055 -51.248  0.00  0.00    -0.166 F 
ATOM     10  F   UNL d   1     -41.867-121.671 -52.175  0.00  0.00    -0.166 F 
ENDBRANCH   1   7
BRANCH   3  11
ATOM     11  N   UNL d   1     -42.601-123.152 -49.105  0.00  0.00    -0.056 NA
ATOM     12  C   UNL d   1     -42.277-123.125 -48.353  0.00  0.00     0.787 C 
ATOM     13  N   UNL d   1     -42.764-123.130 -47.690  0.00  0.00     0.064 N 
ATOM     14  N   UNL d   1     -41.458-123.093 -48.264  0.00  0.00     0.064 N 
ENDBRANCH   3  11
TORSDOF 2
ENDMDL
MODEL 6
REMARK VINA RESULT:      -3.8      4.883      5.911
REMARK  2 active torsions:
REMARK  status: ('A' for Active; 'I' for Inactive)
REMARK    1  A    between atoms: C_3  and  C_1 
REMARK       I    between atoms: C_2  and  N_4 
REMARK    2  A    between atoms: N_4  and  C_7 
ROOT
ATOM      1  C   UNL d   1     -42.237-123.291 -48.326  0.00  0.00     0.073 A 
ATOM      2  C   UNL d   1     -41.734-123.093 -48.952  0.00  0.00     0.024 A 
ATOM      3  C   UNL d   1     -41.959-123.258 -49.728  0.00  0.00     0.100 A 
ATOM      4  C   UNL d   1     -42.962-123.652 -48.477  0.00  0.00     0.004 A 
ATOM      5  C   UNL d   1     -43.187-123.817 -49.254  0.00  0.00     0.002 A 
ATOM      6  C   UNL d   1     -42.687-123.621 -49.879  0.00  0.00     0.020 A 
ENDROOT
BRANCH   1   7
ATOM      7  C   UNL d   1     -42.010-123.124 -47.542  0.00  0.00     0.419 C 
ATOM      8  F   UNL d   1     -41.806-122.974 -46.837  0.00  0.00    -0.166 F 
ATOM      9  F   UNL d   1     -42.324-122.529 -47.002  0.00  0.00    -0.166 F 
ATOM     10  F   UNL d   1     -41.404-123.499 -47.062  0.00  0.00    -0.166 F 
ENDBRANCH   1   7
BRANCH   3  11
ATOM     11  N   UNL d   1     -41.462-123.063 -50.357  0.00  0.00    -0.056 NA
ATOM     12  C   UNL d   1     -41.617-122.400 -50.814  0.00  0.00     0.787 C 
ATOM     13  N   UNL d   1     -41.123-122.202 -51.441  0.00  0.00     0.064 N 
ATOM     14  N   UNL d   1     -42.272-121.930 -50.640  0.00  0.00     0.064 N 
ENDBRANCH   3  11
TORSDOF 2
ENDMDL
MODEL 7
REMARK VINA RESULT:      -3.8      1.725      2.535
REMARK  2 active torsions:
REMARK  status: ('A' for Active; 'I' for Inactive)
REMARK    1  A    between atoms: C_3  and  C_1 
REMARK       I    between atoms: C_2  and  N_4 
REMARK    2  A    between atoms: N_4  and  C_7 
ROOT
ATOM      1  C   UNL d   1     -41.448-122.569 -52.632  0.00  0.00     0.073 A 
ATOM      2  C   UNL d   1     -41.667-123.125 -52.060  0.00  0.00     0.024 A 
ATOM      3  C   UNL d   1     -41.615-122.934 -51.260  0.00  0.00     0.100 A 
ATOM      4  C   UNL d   1     -41.178-121.826 -52.402  0.00  0.00     0.004 A 
ATOM      5  C   UNL d   1     -41.126-121.634 -51.602  0.00  0.00     0.002 A 
ATOM      6  C   UNL d   1     -41.344-122.187 -51.030  0.00  0.00     0.020 A 
ENDROOT
BRANCH   1   7
ATOM      7  C   UNL d   1     -41.500-122.762 -53.440  0.00  0.00     0.419 C 
ATOM      8  F   UNL d   1     -41.547-122.936 -54.169  0.00  0.00    -0.166 F 
ATOM      9  F   UNL d   1     -41.124-123.410 -53.868  0.00  0.00    -0.166 F 
ATOM     10  F   UNL d   1     -41.941-122.369 -54.064  0.00  0.00    -0.166 F 
ENDBRANCH   1   7
BRANCH   3  11
ATOM     11  N   UNL d   1     -41.832-123.485 -50.684  0.00  0.00    -0.056 NA
ATOM     12  C   UNL d   1     -42.347-123.270 -50.084  0.00  0.00     0.787 C 
ATOM     13  N   UNL d   1     -42.566-123.816 -49.509  0.00  0.00     0.064 N 
ATOM     14  N   UNL d   1     -42.645-122.502 -50.059  0.00  0.00     0.064 N 
ENDBRANCH   3  11
TORSDOF 2
ENDMDL
