MODEL 1
REMARK VINA RESULT:      46.6      0.000      0.000
REMARK  8 active torsions:
REMARK  status: ('A' for Active; 'I' for Inactive)
REMARK       I    between atoms: C_2  and  N_1 
REMARK    1  A    between atoms: C_3  and  N_1 
REMARK    2  A    between atoms: C_4  and  C_2 
REMARK    3  A    between atoms: N_12  and  C_3 
REMARK    4  A    between atoms: O_19  and  C_5 
REMARK    5  A    between atoms: O_20  and  C_6 
REMARK    6  A    between atoms: O_21  and  C_7 
REMARK    7  A    between atoms: C_10  and  C_18 
REMARK    8  A    between atoms: C_18  and  N_12 
ROOT
ATOM      1  C   UNL d   1      58.742  49.596  51.122  0.00  0.00     0.062 A 
ATOM      2  C   UNL d   1      60.395  49.578  50.987  0.00  0.00     0.138 A 
ATOM      3  C   UNL d   1      60.039  49.546  51.739  0.00  0.00     0.118 A 
ATOM      4  C   UNL d   1      59.909  49.619  50.318  0.00  0.00     0.118 A 
ATOM      5  C   UNL d   1      59.094  49.627  50.383  0.00  0.00     0.031 A 
ATOM      6  C   UNL d   1      59.209  49.555  51.801  0.00  0.00     0.031 A 
ENDROOT
BRANCH   1   7
ATOM      7  C   UNL d   1      57.905  49.605  51.184  0.00  0.00     0.281 C 
ATOM      8  N   UNL d   1      57.448  49.613  50.488  0.00  0.00    -0.179 NA
ATOM      9  O   UNL d   1      57.536  49.606  51.911  0.00  0.00    -0.265 OA
BRANCH   8  10
ATOM     10  C   UNL d   1      56.620  49.622  50.550  0.00  0.00     0.224 C 
ATOM     11  S   UNL d   1      56.204  49.699  51.257  0.00  0.00    -0.037 SA
BRANCH  10  12
ATOM     12  N   UNL d   1      56.216  49.549  49.847  0.00  0.00    -0.214 NA
BRANCH  12  13
ATOM     13  C   UNL d   1      56.443  48.976  49.300  0.00  0.00     0.126 C 
BRANCH  13  14
ATOM     14  C   UNL d   1      56.375  48.177  49.472  0.00  0.00     0.119 A 
ATOM     15  O   UNL d   1      56.098  47.560  48.968  0.00  0.00    -0.304 OA
ATOM     16  C   UNL d   1      56.134  46.856  49.391  0.00  0.00     0.123 A 
ATOM     17  C   UNL d   1      56.421  47.011  50.136  0.00  0.00     0.029 A 
ATOM     18  C   UNL d   1      56.575  47.837  50.196  0.00  0.00     0.028 A 
ENDBRANCH  13  14
ENDBRANCH  12  13
ENDBRANCH  10  12
ENDBRANCH   8  10
ENDBRANCH   1   7
BRANCH   4  19
ATOM     19  O   UNL d   1      60.274  49.651  49.563  0.00  0.00    -0.326 OA
ATOM     20  C   UNL d   1      59.800  49.528  48.880  0.00  0.00     0.181 C 
ENDBRANCH   4  19
BRANCH   3  21
ATOM     21  O   UNL d   1      60.520  49.504  52.430  0.00  0.00    -0.326 OA
ATOM     22  C   UNL d   1      60.309  49.035  53.066  0.00  0.00     0.181 C 
ENDBRANCH   3  21
BRANCH   2  23
ATOM     23  O   UNL d   1      61.230  49.570  50.910  0.00  0.00    -0.324 OA
ATOM     24  C   UNL d   1      61.724  49.560  51.576  0.00  0.00     0.182 C 
ENDBRANCH   2  23
TORSDOF 8
ENDMDL
MODEL 2
REMARK VINA RESULT:      46.7      3.118      4.029
REMARK  8 active torsions:
REMARK  status: ('A' for Active; 'I' for Inactive)
REMARK       I    between atoms: C_2  and  N_1 
REMARK    1  A    between atoms: C_3  and  N_1 
REMARK    2  A    between atoms: C_4  and  C_2 
REMARK    3  A    between atoms: N_12  and  C_3 
REMARK    4  A    between atoms: O_19  and  C_5 
REMARK    5  A    between atoms: O_20  and  C_6 
REMARK    6  A    between atoms: O_21  and  C_7 
REMARK    7  A    between atoms: C_10  and  C_18 
REMARK    8  A    between atoms: C_18  and  N_12 
ROOT
ATOM      1  C   UNL d   1      61.287  47.386  50.428  0.00  0.00     0.062 A 
ATOM      2  C   UNL d   1      61.413  45.800  49.958  0.00  0.00     0.138 A 
ATOM      3  C   UNL d   1      61.850  46.388  49.562  0.00  0.00     0.118 A 
ATOM      4  C   UNL d   1      60.920  46.025  50.584  0.00  0.00     0.118 A 
ATOM      5  C   UNL d   1      60.857  46.807  50.816  0.00  0.00     0.031 A 
ATOM      6  C   UNL d   1      61.783  47.182  49.801  0.00  0.00     0.031 A 
ENDROOT
BRANCH   1   7
ATOM      7  C   UNL d   1      61.218  48.186  50.670  0.00  0.00     0.281 C 
ATOM      8  N   UNL d   1      60.466  48.490  50.857  0.00  0.00    -0.179 NA
ATOM      9  O   UNL d   1      61.874  48.667  50.725  0.00  0.00    -0.265 OA
BRANCH   8  10
ATOM     10  C   UNL d   1      60.399  49.282  51.097  0.00  0.00     0.224 C 
ATOM     11  S   UNL d   1      60.887  49.646  51.654  0.00  0.00    -0.037 SA
BRANCH  10  12
ATOM     12  N   UNL d   1      59.802  49.706  50.742  0.00  0.00    -0.214 NA
BRANCH  12  13
ATOM     13  C   UNL d   1      59.042  49.694  51.061  0.00  0.00     0.126 C 
BRANCH  13  14
ATOM     14  C   UNL d   1      58.382  49.648  50.576  0.00  0.00     0.119 A 
ATOM     15  O   UNL d   1      58.351  49.708  49.735  0.00  0.00    -0.304 OA
ATOM     16  C   UNL d   1      57.565  49.627  49.507  0.00  0.00     0.123 A 
ATOM     17  C   UNL d   1      57.108  49.520  50.171  0.00  0.00     0.029 A 
ATOM     18  C   UNL d   1      57.611  49.532  50.846  0.00  0.00     0.028 A 
ENDBRANCH  13  14
ENDBRANCH  12  13
ENDBRANCH  10  12
ENDBRANCH   8  10
ENDBRANCH   1   7
BRANCH   4  19
ATOM     19  O   UNL d   1      60.482  45.429  50.980  0.00  0.00    -0.326 OA
ATOM     20  C   UNL d   1      60.150  45.603  51.732  0.00  0.00     0.181 C 
ENDBRANCH   4  19
BRANCH   3  21
ATOM     21  O   UNL d   1      62.357  46.174  48.922  0.00  0.00    -0.326 OA
ATOM     22  C   UNL d   1      63.028  45.723  49.045  0.00  0.00     0.181 C 
ENDBRANCH   3  21
BRANCH   2  23
ATOM     23  O   UNL d   1      61.471  44.996  49.727  0.00  0.00    -0.324 OA
ATOM     24  C   UNL d   1      60.999  44.688  49.118  0.00  0.00     0.182 C 
ENDBRANCH   2  23
TORSDOF 8
ENDMDL
