MODEL 1
REMARK VINA RESULT:      70.4      0.000      0.000
REMARK  4 active torsions:
REMARK  status: ('A' for Active; 'I' for Inactive)
REMARK    1  A    between atoms: N_10  and  C_3 
REMARK    2  A    between atoms: C_13  and  C_5 
REMARK    3  A    between atoms: C_19  and  C_9 
REMARK    4  A    between atoms: C_12  and  N_11 
ROOT
ATOM      1  N   UNL d   1      45.715 -17.566  41.438  0.00  0.00    -0.196 N 
ATOM      2  C   UNL d   1      45.933 -17.971  42.110  0.00  0.00     0.167 A 
ATOM      3  C   UNL d   1      45.765 -17.935  40.729  0.00  0.00     0.152 A 
ATOM      4  N   UNL d   1      45.409 -16.448  42.211  0.00  0.00    -0.163 NA
ATOM      5  C   UNL d   1      45.887 -17.617  42.816  0.00  0.00     0.055 A 
ATOM      6  N   UNL d   1      46.192 -18.729  42.047  0.00  0.00    -0.227 NA
ATOM      7  C   UNL d   1      46.034 -18.716  40.674  0.00  0.00     0.057 A 
ATOM      8  C   UNL d   1      45.626 -16.852  42.883  0.00  0.00     0.104 A 
ATOM      9  C   UNL d   1      46.238 -19.088  41.339  0.00  0.00     0.086 A 
ATOM     10  C   UNL d   1      45.581 -16.501  43.587  0.00  0.00     0.023 C 
ENDROOT
BRANCH   3  11
ATOM     11  N   UNL d   1      45.544 -17.523  40.037  0.00  0.00    -0.286 N 
ATOM     12  C   UNL d   1      46.123 -17.167  39.563  0.00  0.00     0.101 A 
ATOM     13  C   UNL d   1      45.901 -16.752  38.868  0.00  0.00     0.101 A 
ATOM     14  N   UNL d   1      45.100 -16.699  38.654  0.00  0.00    -0.286 N 
ATOM     15  C   UNL d   1      44.517 -17.056  39.129  0.00  0.00     0.101 A 
ATOM     16  C   UNL d   1      44.734 -17.469  39.822  0.00  0.00     0.101 A 
BRANCH  14  17
ATOM     17  C   UNL d   1      44.879 -16.286  37.963  0.00  0.00     0.148 A 
ATOM     18  N   UNL d   1      44.088 -16.327  37.690  0.00  0.00    -0.227 NA
ATOM     19  C   UNL d   1      43.871 -15.916  37.001  0.00  0.00     0.101 A 
ATOM     20  C   UNL d   1      44.435 -15.463  36.580  0.00  0.00     0.021 A 
ATOM     21  C   UNL d   1      45.218 -15.425  36.853  0.00  0.00     0.005 A 
ATOM     22  C   UNL d   1      45.441 -15.839  37.548  0.00  0.00     0.037 A 
ENDBRANCH  14  17
ENDBRANCH   3  11
BRANCH   9  23
ATOM     23  C   UNL d   1      46.511 -19.884  41.280  0.00  0.00     0.018 C 
ATOM     24  C   UNL d   1      46.647 -20.230  40.525  0.00  0.00     0.002 C 
ATOM     25  C   UNL d   1      46.647 -20.330  41.987  0.00  0.00     0.002 C 
ENDBRANCH   9  23
BRANCH   5  26
ATOM     26  C   UNL d   1      46.106 -18.025  43.494  0.00  0.00     0.004 A 
ATOM     27  C   UNL d   1      46.043 -18.820  43.519  0.00  0.00     0.000 A 
ATOM     28  C   UNL d   1      46.254 -19.223  44.173  0.00  0.00     0.000 A 
ATOM     29  C   UNL d   1      46.534 -18.822  44.817  0.00  0.00     0.000 A 
ATOM     30  C   UNL d   1      46.599 -18.026  44.798  0.00  0.00     0.000 A 
ATOM     31  C   UNL d   1      46.383 -17.624  44.130  0.00  0.00     0.000 A 
ENDBRANCH   5  26
TORSDOF 4
ENDMDL
