MODEL 1
REMARK VINA RESULT:      -2.4      0.000      0.000
REMARK  4 active torsions:
REMARK  status: ('A' for Active; 'I' for Inactive)
REMARK    1  A    between atoms: C_5  and  N_1 
REMARK    2  A    between atoms: C_9  and  C_3 
REMARK    3  A    between atoms: C_7  and  C_4 
REMARK    4  A    between atoms: N_10  and  C_5 
ROOT
ATOM      1  N   UNL d   1     -41.375-121.814 -51.893  0.00  0.00    -0.203 N 
ATOM      2  N   UNL d   1     -41.326-121.826 -52.719  0.00  0.00    -0.163 NA
ATOM      3  C   UNL d   1     -41.520-122.558 -52.997  0.00  0.00     0.103 A 
ATOM      4  C   UNL d   1     -41.610-122.573 -51.636  0.00  0.00     0.087 A 
ATOM      5  C   UNL d   1     -41.701-123.038 -52.314  0.00  0.00     0.040 A 
ENDROOT
BRANCH   4   6
ATOM      6  C   UNL d   1     -41.736-122.841 -50.864  0.00  0.00     0.018 A 
ATOM      7  C   UNL d   1     -42.409-122.628 -50.447  0.00  0.00     0.002 A 
ATOM      8  C   UNL d   1     -42.534-122.896 -49.679  0.00  0.00     0.007 A 
ATOM      9  C   UNL d   1     -41.977-123.385 -49.324  0.00  0.00     0.035 A 
ATOM     10  C   UNL d   1     -41.314-123.602 -49.722  0.00  0.00     0.007 A 
ATOM     11 BR   UNL d   1     -42.123-123.648 -48.540  0.00  0.00    -0.049 Br
ATOM     12  C   UNL d   1     -41.187-123.333 -50.494  0.00  0.00     0.002 A 
ENDBRANCH   4   6
BRANCH   1  13
ATOM     13  C   UNL d   1     -41.217-121.156 -51.391  0.00  0.00     0.222 C 
ATOM     14  S   UNL d   1     -41.138-121.285 -50.558  0.00  0.00    -0.037 SA
BRANCH  13  15
ATOM     15  N   UNL d   1     -41.137-120.372 -51.700  0.00  0.00    -0.214 NA
ATOM     16  C   UNL d   1     -41.132-119.720 -51.184  0.00  0.00     0.122 C 
ENDBRANCH  13  15
ENDBRANCH   1  13
BRANCH   3  17
ATOM     17  C   UNL d   1     -41.532-122.779 -53.800  0.00  0.00     0.019 A 
ATOM     18  C   UNL d   1     -41.824-122.267 -54.375  0.00  0.00     0.002 A 
ATOM     19  C   UNL d   1     -41.829-122.508 -55.176  0.00  0.00     0.000 A 
ATOM     20  C   UNL d   1     -41.545-123.247 -55.383  0.00  0.00     0.000 A 
ATOM     21  C   UNL d   1     -41.256-123.747 -54.794  0.00  0.00     0.000 A 
ATOM     22  C   UNL d   1     -41.249-123.519 -54.016  0.00  0.00     0.002 A 
ENDBRANCH   3  17
TORSDOF 4
ENDMDL
MODEL 2
REMARK VINA RESULT:      -2.2      1.629      2.350
REMARK  4 active torsions:
REMARK  status: ('A' for Active; 'I' for Inactive)
REMARK    1  A    between atoms: C_5  and  N_1 
REMARK    2  A    between atoms: C_9  and  C_3 
REMARK    3  A    between atoms: C_7  and  C_4 
REMARK    4  A    between atoms: N_10  and  C_5 
ROOT
ATOM      1  N   UNL d   1     -42.792-122.933 -50.468  0.00  0.00    -0.203 N 
ATOM      2  N   UNL d   1     -42.727-122.938 -51.293  0.00  0.00    -0.163 NA
ATOM      3  C   UNL d   1     -41.956-123.042 -51.508  0.00  0.00     0.103 A 
ATOM      4  C   UNL d   1     -42.030-123.039 -50.146  0.00  0.00     0.087 A 
ATOM      5  C   UNL d   1     -41.507-123.107 -50.784  0.00  0.00     0.040 A 
ENDROOT
BRANCH   4   6
ATOM      6  C   UNL d   1     -41.804-123.074 -49.351  0.00  0.00     0.018 A 
ATOM      7  C   UNL d   1     -41.819-123.782 -48.938  0.00  0.00     0.002 A 
ATOM      8  C   UNL d   1     -41.594-123.815 -48.147  0.00  0.00     0.007 A 
ATOM      9  C   UNL d   1     -41.350-123.129 -47.765  0.00  0.00     0.035 A 
ATOM     10  C   UNL d   1     -41.330-122.430 -48.159  0.00  0.00     0.007 A 
ATOM     11 BR   UNL d   1     -41.124-123.185 -46.959  0.00  0.00    -0.049 Br
ATOM     12  C   UNL d   1     -41.556-122.395 -48.954  0.00  0.00     0.002 A 
ENDBRANCH   4   6
BRANCH   1  13
ATOM     13  C   UNL d   1     -43.502-122.839 -50.022  0.00  0.00     0.222 C 
ATOM     14  S   UNL d   1     -43.796-123.495 -49.576  0.00  0.00    -0.037 SA
BRANCH  13  15
ATOM     15  N   UNL d   1     -43.923-122.105 -50.012  0.00  0.00    -0.214 NA
ATOM     16  C   UNL d   1     -44.722-122.087 -49.782  0.00  0.00     0.122 C 
ENDBRANCH  13  15
ENDBRANCH   1  13
BRANCH   3  17
ATOM     17  C   UNL d   1     -41.677-123.077 -52.293  0.00  0.00     0.019 A 
ATOM     18  C   UNL d   1     -41.424-123.789 -52.620  0.00  0.00     0.002 A 
ATOM     19  C   UNL d   1     -41.146-123.802 -53.409  0.00  0.00     0.000 A 
ATOM     20  C   UNL d   1     -41.127-123.113 -53.849  0.00  0.00     0.000 A 
ATOM     21  C   UNL d   1     -41.385-122.409 -53.504  0.00  0.00     0.000 A 
ATOM     22  C   UNL d   1     -41.654-122.389 -52.741  0.00  0.00     0.002 A 
ENDBRANCH   3  17
TORSDOF 4
ENDMDL
MODEL 3
REMARK VINA RESULT:      -0.3      2.049      4.634
REMARK  4 active torsions:
REMARK  status: ('A' for Active; 'I' for Inactive)
REMARK    1  A    between atoms: C_5  and  N_1 
REMARK    2  A    between atoms: C_9  and  C_3 
REMARK    3  A    between atoms: C_7  and  C_4 
REMARK    4  A    between atoms: N_10  and  C_5 
ROOT
ATOM      1  N   UNL d   1     -42.827-122.513 -50.091  0.00  0.00    -0.203 N 
ATOM      2  N   UNL d   1     -42.828-122.603 -49.268  0.00  0.00    -0.163 NA
ATOM      3  C   UNL d   1     -42.169-123.006 -49.034  0.00  0.00     0.103 A 
ATOM      4  C   UNL d   1     -42.138-122.874 -50.392  0.00  0.00     0.087 A 
ATOM      5  C   UNL d   1     -41.725-123.181 -49.743  0.00  0.00     0.040 A 
ENDROOT
BRANCH   4   6
ATOM      6  C   UNL d   1     -41.884-122.932 -51.177  0.00  0.00     0.018 A 
ATOM      7  C   UNL d   1     -42.024-123.609 -51.617  0.00  0.00     0.002 A 
ATOM      8  C   UNL d   1     -41.771-123.666 -52.399  0.00  0.00     0.007 A 
ATOM      9  C   UNL d   1     -41.372-123.035 -52.743  0.00  0.00     0.035 A 
ATOM     10  C   UNL d   1     -41.228-122.367 -52.322  0.00  0.00     0.007 A 
ATOM     11 BR   UNL d   1     -41.123-123.114 -53.541  0.00  0.00    -0.049 Br
ATOM     12  C   UNL d   1     -41.482-122.308 -51.537  0.00  0.00     0.002 A 
ENDBRANCH   4   6
BRANCH   1  13
ATOM     13  C   UNL d   1     -43.417-122.126 -50.553  0.00  0.00     0.222 C 
ATOM     14  S   UNL d   1     -43.226-121.391 -50.929  0.00  0.00    -0.037 SA
BRANCH  13  15
ATOM     15  N   UNL d   1     -44.191-122.454 -50.649  0.00  0.00    -0.214 NA
ATOM     16  C   UNL d   1     -44.820-122.177 -50.180  0.00  0.00     0.122 C 
ENDBRANCH  13  15
ENDBRANCH   1  13
BRANCH   3  17
ATOM     17  C   UNL d   1     -41.979-123.201 -48.247  0.00  0.00     0.019 A 
ATOM     18  C   UNL d   1     -41.297-123.626 -48.070  0.00  0.00     0.002 A 
ATOM     19  C   UNL d   1     -41.124-123.812 -47.273  0.00  0.00     0.000 A 
ATOM     20  C   UNL d   1     -41.631-123.572 -46.677  0.00  0.00     0.000 A 
ATOM     21  C   UNL d   1     -42.310-123.147 -46.873  0.00  0.00     0.000 A 
ATOM     22  C   UNL d   1     -42.482-122.964 -47.643  0.00  0.00     0.002 A 
ENDBRANCH   3  17
TORSDOF 4
ENDMDL
