MODEL 1
REMARK VINA RESULT:      -3.6      0.000      0.000
REMARK  2 active torsions:
REMARK  status: ('A' for Active; 'I' for Inactive)
REMARK    1  A    between atoms: C_2  and  C_5 
REMARK       I    between atoms: C_5  and  N_9 
REMARK    2  A    between atoms: N_9  and  C_15 
ROOT
ATOM      1  C   UNL d   1      32.870  19.274 -22.602  0.00  0.00     0.304 C 
ATOM      2  N   UNL d   1      32.625  19.084 -23.362  0.00  0.00    -0.206 NA
ATOM      3  O   UNL d   1      33.097  18.687 -22.087  0.00  0.00    -0.263 OA
ENDROOT
BRANCH   1   4
ATOM      4  C   UNL d   1      32.890  20.055 -22.353  0.00  0.00     0.182 A 
ATOM      5  O   UNL d   1      32.573  20.244 -21.624  0.00  0.00    -0.298 OA
ATOM      6  C   UNL d   1      32.592  21.034 -21.369  0.00  0.00     0.123 A 
ATOM      7  C   UNL d   1      32.274  21.235 -20.634  0.00  0.00     0.027 A 
ATOM      8  C   UNL d   1      32.923  21.604 -21.844  0.00  0.00     0.123 A 
ATOM      9  C   UNL d   1      32.297  22.018 -20.389  0.00  0.00     0.002 A 
ATOM     10  C   UNL d   1      32.623  22.590 -20.853  0.00  0.00     0.002 A 
ATOM     11  C   UNL d   1      32.941  22.390 -21.588  0.00  0.00     0.027 A 
ATOM     12  O   UNL d   1      33.241  21.404 -22.578  0.00  0.00    -0.301 OA
ATOM     13  C   UNL d   1      33.218  20.626 -22.821  0.00  0.00     0.152 A 
ENDBRANCH   1   4
BRANCH   2  14
ATOM     14  C   UNL d   1      32.585  18.312 -23.667  0.00  0.00     0.085 A 
ATOM     15  C   UNL d   1      33.241  17.821 -23.814  0.00  0.00     0.021 A 
ATOM     16  C   UNL d   1      33.140  17.077 -24.112  0.00  0.00     0.021 A 
ATOM     17  C   UNL d   1      32.409  16.794 -24.272  0.00  0.00     0.088 A 
ATOM     18  C   UNL d   1      31.749  17.271 -24.131  0.00  0.00     0.050 A 
ATOM     19  N   UNL d   1      32.103  16.088 -24.569  0.00  0.00    -0.239 NA
ATOM     20  C   UNL d   1      31.825  18.035 -23.827  0.00  0.00     0.027 A 
ATOM     21  S   UNL d   1      31.058  16.840 -24.347  0.00  0.00    -0.066 SA
ATOM     22  C   UNL d   1      31.329  16.110 -24.613  0.00  0.00     0.111 A 
ATOM     23  C   UNL d   1      30.823  15.502 -24.886  0.00  0.00     0.028 C 
ENDBRANCH   2  14
TORSDOF 2
ENDMDL
MODEL 2
REMARK VINA RESULT:      -3.4      1.858      5.217
REMARK  2 active torsions:
REMARK  status: ('A' for Active; 'I' for Inactive)
REMARK    1  A    between atoms: C_2  and  C_5 
REMARK       I    between atoms: C_5  and  N_9 
REMARK    2  A    between atoms: N_9  and  C_15 
ROOT
ATOM      1  C   UNL d   1      32.834  19.010 -23.096  0.00  0.00     0.304 C 
ATOM      2  N   UNL d   1      32.770  19.331 -22.343  0.00  0.00    -0.206 NA
ATOM      3  O   UNL d   1      33.046  19.481 -23.724  0.00  0.00    -0.263 OA
ENDROOT
BRANCH   1   4
ATOM      4  C   UNL d   1      32.688  18.214 -23.224  0.00  0.00     0.182 A 
ATOM      5  O   UNL d   1      31.979  17.993 -23.565  0.00  0.00    -0.298 OA
ATOM      6  C   UNL d   1      31.827  17.187 -23.696  0.00  0.00     0.123 A 
ATOM      7  C   UNL d   1      31.114  16.955 -24.039  0.00  0.00     0.027 A 
ATOM      8  C   UNL d   1      32.383  16.633 -23.485  0.00  0.00     0.123 A 
ATOM      9  C   UNL d   1      30.972  16.157 -24.166  0.00  0.00     0.002 A 
ATOM     10  C   UNL d   1      31.517  15.599 -23.960  0.00  0.00     0.002 A 
ATOM     11  C   UNL d   1      32.230  15.831 -23.617  0.00  0.00     0.027 A 
ATOM     12  O   UNL d   1      33.096  16.865 -23.142  0.00  0.00    -0.301 OA
ATOM     13  C   UNL d   1      33.236  17.658 -23.017  0.00  0.00     0.152 A 
ENDBRANCH   1   4
BRANCH   2  14
ATOM     14  C   UNL d   1      32.906  20.129 -22.157  0.00  0.00     0.085 A 
ATOM     15  C   UNL d   1      33.103  20.722 -22.706  0.00  0.00     0.021 A 
ATOM     16  C   UNL d   1      33.225  21.484 -22.464  0.00  0.00     0.021 A 
ATOM     17  C   UNL d   1      33.159  21.686 -21.693  0.00  0.00     0.088 A 
ATOM     18  C   UNL d   1      32.965  21.106 -21.137  0.00  0.00     0.050 A 
ATOM     19  N   UNL d   1      33.241  22.381 -21.258  0.00  0.00    -0.239 NA
ATOM     20  C   UNL d   1      32.835  20.321 -21.357  0.00  0.00     0.027 A 
ATOM     21  S   UNL d   1      32.933  21.468 -20.376  0.00  0.00    -0.066 SA
ATOM     22  C   UNL d   1      33.112  22.261 -20.503  0.00  0.00     0.111 A 
ATOM     23  C   UNL d   1      33.143  22.830 -19.890  0.00  0.00     0.028 C 
ENDBRANCH   2  14
TORSDOF 2
ENDMDL
MODEL 3
REMARK VINA RESULT:      -3.1      1.023      1.474
REMARK  2 active torsions:
REMARK  status: ('A' for Active; 'I' for Inactive)
REMARK    1  A    between atoms: C_2  and  C_5 
REMARK       I    between atoms: C_5  and  N_9 
REMARK    2  A    between atoms: N_9  and  C_15 
ROOT
ATOM      1  C   UNL d   1      33.027  20.391 -22.464  0.00  0.00     0.304 C 
ATOM      2  N   UNL d   1      32.872  19.587 -22.407  0.00  0.00    -0.206 NA
ATOM      3  O   UNL d   1      33.238  20.717 -23.179  0.00  0.00    -0.263 OA
ENDROOT
BRANCH   1   4
ATOM      4  C   UNL d   1      32.973  20.875 -21.805  0.00  0.00     0.182 A 
ATOM      5  O   UNL d   1      32.643  21.618 -21.887  0.00  0.00    -0.298 OA
ATOM      6  C   UNL d   1      32.586  22.111 -21.221  0.00  0.00     0.123 A 
ATOM      7  C   UNL d   1      32.254  22.862 -21.294  0.00  0.00     0.027 A 
ATOM      8  C   UNL d   1      32.858  21.849 -20.501  0.00  0.00     0.123 A 
ATOM      9  C   UNL d   1      32.202  23.343 -20.631  0.00  0.00     0.002 A 
ATOM     10  C   UNL d   1      32.469  23.092 -19.913  0.00  0.00     0.002 A 
ATOM     11  C   UNL d   1      32.801  22.341 -19.839  0.00  0.00     0.027 A 
ATOM     12  O   UNL d   1      33.190  21.097 -20.428  0.00  0.00    -0.301 OA
ATOM     13  C   UNL d   1      33.241  20.621 -21.087  0.00  0.00     0.152 A 
ENDBRANCH   1   4
BRANCH   2  14
ATOM     14  C   UNL d   1      32.912  19.052 -23.041  0.00  0.00     0.085 A 
ATOM     15  C   UNL d   1      33.218  19.225 -23.795  0.00  0.00     0.021 A 
ATOM     16  C   UNL d   1      33.231  18.661 -24.374  0.00  0.00     0.021 A 
ATOM     17  C   UNL d   1      32.949  17.925 -24.237  0.00  0.00     0.088 A 
ATOM     18  C   UNL d   1      32.642  17.740 -23.493  0.00  0.00     0.050 A 
ATOM     19  N   UNL d   1      32.874  17.232 -24.678  0.00  0.00    -0.239 NA
ATOM     20  C   UNL d   1      32.618  18.297 -22.884  0.00  0.00     0.027 A 
ATOM     21  S   UNL d   1      32.388  16.936 -23.503  0.00  0.00    -0.066 SA
ATOM     22  C   UNL d   1      32.553  16.663 -24.261  0.00  0.00     0.111 A 
ATOM     23  C   UNL d   1      32.389  15.884 -24.515  0.00  0.00     0.028 C 
ENDBRANCH   2  14
TORSDOF 2
ENDMDL
