MODEL 1
REMARK VINA RESULT:      45.7      0.000      0.000
REMARK  4 active torsions:
REMARK  status: ('A' for Active; 'I' for Inactive)
REMARK    1  A    between atoms: C_3  and  C_1 
REMARK    2  A    between atoms: N_5  and  C_3 
REMARK    3  A    between atoms: C_10  and  C_3 
REMARK    4  A    between atoms: C_7  and  N_5 
ROOT
ATOM      1  C   UNL d   1      14.523  13.246  -1.792  0.00  0.00     0.086 C 
ENDROOT
BRANCH   1   2
ATOM      2  C   UNL d   1      14.611  14.074  -1.672  0.00  0.00     0.058 A 
ATOM      3  C   UNL d   1      15.179  14.322  -1.115  0.00  0.00     0.214 A 
ATOM      4  C   UNL d   1      15.258  15.135  -1.004  0.00  0.00     0.120 A 
ATOM      5  O   UNL d   1      15.638  13.779  -0.698  0.00  0.00    -0.285 OA
ATOM      6  N   UNL d   1      15.835  15.397  -0.439  0.00  0.00    -0.241 NA
ATOM      7  C   UNL d   1      14.798  15.678  -1.422  0.00  0.00     0.021 A 
ATOM      8  C   UNL d   1      15.914  16.211  -0.328  0.00  0.00     0.099 A 
ATOM      9  C   UNL d   1      15.454  16.754  -0.746  0.00  0.00     0.021 A 
ATOM     10  C   UNL d   1      14.916  16.483  -1.275  0.00  0.00     0.003 A 
ATOM     11  C   UNL d   1      14.260  15.408  -1.951  0.00  0.00     0.002 A 
ATOM     12  C   UNL d   1      14.151  14.617  -2.090  0.00  0.00     0.005 A 
ENDBRANCH   1   2
BRANCH   1  13
ATOM     13  N   UNL d   1      14.735  12.905  -2.519  0.00  0.00    -0.227 NA
BRANCH  13  14
ATOM     14  C   UNL d   1      14.185  12.734  -3.083  0.00  0.00     0.162 A 
ATOM     15  N   UNL d   1      13.870  11.972  -3.129  0.00  0.00    -0.225 NA
ATOM     16  C   UNL d   1      13.304  11.779  -3.702  0.00  0.00     0.101 A 
ATOM     17  C   UNL d   1      13.068  12.370  -4.221  0.00  0.00     0.021 A 
ATOM     18  C   UNL d   1      13.382  13.131  -4.175  0.00  0.00     0.005 A 
ATOM     19  C   UNL d   1      13.933  13.302  -3.610  0.00  0.00     0.039 A 
ENDBRANCH  13  14
ENDBRANCH   1  13
BRANCH   1  20
ATOM     20  C   UNL d   1      14.232  12.766  -1.207  0.00  0.00     0.018 A 
ATOM     21  C   UNL d   1      14.733  12.451  -0.655  0.00  0.00     0.002 A 
ATOM     22  C   UNL d   1      14.437  11.963  -0.060  0.00  0.00     0.000 A 
ATOM     23  C   UNL d   1      13.639  11.789  -0.016  0.00  0.00     0.000 A 
ATOM     24  C   UNL d   1      13.135  12.115  -0.583  0.00  0.00     0.000 A 
ATOM     25  C   UNL d   1      13.432  12.603  -1.178  0.00  0.00     0.002 A 
ENDBRANCH   1  20
TORSDOF 4
ENDMDL
MODEL 2
REMARK VINA RESULT:      46.1      1.105      3.676
REMARK  4 active torsions:
REMARK  status: ('A' for Active; 'I' for Inactive)
REMARK    1  A    between atoms: C_3  and  C_1 
REMARK    2  A    between atoms: N_5  and  C_3 
REMARK    3  A    between atoms: C_10  and  C_3 
REMARK    4  A    between atoms: C_7  and  N_5 
ROOT
ATOM      1  C   UNL d   1      14.518  13.389  -1.256  0.00  0.00     0.086 C 
ENDROOT
BRANCH   1   2
ATOM      2  C   UNL d   1      14.266  13.329  -2.057  0.00  0.00     0.058 A 
ATOM      3  C   UNL d   1      13.765  12.694  -2.254  0.00  0.00     0.214 A 
ATOM      4  C   UNL d   1      13.523  12.644  -3.042  0.00  0.00     0.120 A 
ATOM      5  O   UNL d   1      13.524  12.143  -1.689  0.00  0.00    -0.285 OA
ATOM      6  N   UNL d   1      13.012  12.000  -3.252  0.00  0.00    -0.241 NA
ATOM      7  C   UNL d   1      13.764  13.195  -3.607  0.00  0.00     0.021 A 
ATOM      8  C   UNL d   1      12.770  11.949  -4.039  0.00  0.00     0.099 A 
ATOM      9  C   UNL d   1      13.011  12.500  -4.604  0.00  0.00     0.021 A 
ATOM     10  C   UNL d   1      13.494  13.101  -4.382  0.00  0.00     0.003 A 
ATOM     11  C   UNL d   1      14.247  13.795  -3.384  0.00  0.00     0.002 A 
ATOM     12  C   UNL d   1      14.507  13.880  -2.622  0.00  0.00     0.005 A 
ENDBRANCH   1   2
BRANCH   1  13
ATOM     13  N   UNL d   1      14.227  13.997  -0.771  0.00  0.00    -0.227 NA
BRANCH  13  14
ATOM     14  C   UNL d   1      14.641  14.679  -0.653  0.00  0.00     0.162 A 
ATOM     15  N   UNL d   1      14.359  15.387  -0.968  0.00  0.00    -0.225 NA
ATOM     16  C   UNL d   1      14.770  16.097  -0.857  0.00  0.00     0.101 A 
ATOM     17  C   UNL d   1      15.467  16.071  -0.423  0.00  0.00     0.021 A 
ATOM     18  C   UNL d   1      15.749  15.363  -0.108  0.00  0.00     0.005 A 
ATOM     19  C   UNL d   1      15.334  14.680  -0.226  0.00  0.00     0.039 A 
ENDBRANCH  13  14
ENDBRANCH   1  13
BRANCH   1  20
ATOM     20  C   UNL d   1      15.046  12.859  -0.943  0.00  0.00     0.018 A 
ATOM     21  C   UNL d   1      14.819  12.375  -0.335  0.00  0.00     0.002 A 
ATOM     22  C   UNL d   1      15.356  11.836  -0.016  0.00  0.00     0.000 A 
ATOM     23  C   UNL d   1      16.119  11.781  -0.304  0.00  0.00     0.000 A 
ATOM     24  C   UNL d   1      16.341  12.279  -0.924  0.00  0.00     0.000 A 
ATOM     25  C   UNL d   1      15.804  12.818  -1.243  0.00  0.00     0.002 A 
ENDBRANCH   1  20
TORSDOF 4
ENDMDL
