MODEL 1
REMARK VINA RESULT:      -5.5      0.000      0.000
REMARK  8 active torsions:
REMARK  status: ('A' for Active; 'I' for Inactive)
REMARK    1  A    between atoms: O_4  and  C_1 
REMARK    2  A    between atoms: C_15  and  C_2 
REMARK    3  A    between atoms: C_5  and  O_4 
REMARK    4  A    between atoms: C_7  and  C_5 
REMARK    5  A    between atoms: O_21  and  C_8 
REMARK    6  A    between atoms: O_22  and  C_10 
REMARK    7  A    between atoms: O_23  and  C_11 
REMARK    8  A    between atoms: N_16  and  C_15 
ROOT
ATOM      1  C   UNL d   1      52.587  33.081  53.462  0.00  0.00     0.122 A 
ATOM      2  C   UNL d   1      53.310  33.466  53.564  0.00  0.00     0.043 A 
ATOM      3  C   UNL d   1      51.905  33.520  53.314  0.00  0.00     0.105 A 
ATOM      4  C   UNL d   1      51.945  34.342  53.267  0.00  0.00     0.030 A 
ATOM      5  C   UNL d   1      52.667  34.717  53.369  0.00  0.00     0.059 A 
ATOM      6  C   UNL d   1      53.350  34.288  53.517  0.00  0.00     0.015 A 
ATOM      7  N   UNL d   1      51.190  33.135  53.214  0.00  0.00    -0.242 NA
ATOM      8 CL   UNL d   1      52.683  35.550  53.317  0.00  0.00    -0.082 Cl
ATOM      9  C   UNL d   1      51.270  34.771  53.121  0.00  0.00     0.004 A 
ATOM     10  C   UNL d   1      50.507  33.575  53.066  0.00  0.00     0.099 A 
ATOM     11  C   UNL d   1      50.548  34.396  53.019  0.00  0.00     0.021 A 
ENDROOT
BRANCH   1  12
ATOM     12  O   UNL d   1      52.540  32.337  53.503  0.00  0.00    -0.271 OA
BRANCH  12  13
ATOM     13  C   UNL d   1      52.666  31.549  52.963  0.00  0.00     0.300 C 
ATOM     14  O   UNL d   1      52.655  31.723  51.974  0.00  0.00    -0.259 OA
BRANCH  13  15
ATOM     15  C   UNL d   1      52.770  30.807  53.305  0.00  0.00     0.068 A 
ATOM     16  C   UNL d   1      53.530  30.478  53.366  0.00  0.00     0.032 A 
ATOM     17  C   UNL d   1      53.641  29.728  53.712  0.00  0.00     0.118 A 
ATOM     18  C   UNL d   1      52.987  29.304  53.997  0.00  0.00     0.138 A 
ATOM     19  C   UNL d   1      52.222  29.634  53.935  0.00  0.00     0.118 A 
ATOM     20  C   UNL d   1      52.112  30.385  53.589  0.00  0.00     0.032 A 
BRANCH  17  21
ATOM     21  O   UNL d   1      54.557  29.605  53.656  0.00  0.00    -0.326 OA
ATOM     22  C   UNL d   1      54.666  29.760  53.006  0.00  0.00     0.181 C 
ENDBRANCH  17  21
BRANCH  18  23
ATOM     23  O   UNL d   1      53.034  28.764  54.250  0.00  0.00    -0.324 OA
ATOM     24  C   UNL d   1      53.331  28.558  54.908  0.00  0.00     0.182 C 
ENDBRANCH  18  23
BRANCH  19  25
ATOM     25  O   UNL d   1      51.507  29.283  54.193  0.00  0.00    -0.326 OA
ATOM     26  C   UNL d   1      50.971  29.607  53.626  0.00  0.00     0.181 C 
ENDBRANCH  19  25
ENDBRANCH  13  15
ENDBRANCH  12  13
ENDBRANCH   1  12
BRANCH   2  27
ATOM     27  C   UNL d   1      54.150  33.160  53.731  0.00  0.00     0.082 C 
BRANCH  27  28
ATOM     28  N   UNL d   1      54.531  33.383  54.423  0.00  0.00    -0.299 N 
ATOM     29  C   UNL d   1      55.205  33.842  54.385  0.00  0.00     0.107 A 
ATOM     30  C   UNL d   1      55.599  34.074  55.074  0.00  0.00     0.142 A 
ATOM     31  O   UNL d   1      55.304  33.838  55.797  0.00  0.00    -0.300 OA
ATOM     32  C   UNL d   1      54.620  33.371  55.839  0.00  0.00     0.142 A 
ATOM     33  C   UNL d   1      54.242  33.150  55.147  0.00  0.00     0.107 A 
ENDBRANCH  27  28
ENDBRANCH   2  27
TORSDOF 8
ENDMDL
MODEL 2
REMARK VINA RESULT:      -5.1      1.160      2.875
REMARK  8 active torsions:
REMARK  status: ('A' for Active; 'I' for Inactive)
REMARK    1  A    between atoms: O_4  and  C_1 
REMARK    2  A    between atoms: C_15  and  C_2 
REMARK    3  A    between atoms: C_5  and  O_4 
REMARK    4  A    between atoms: C_7  and  C_5 
REMARK    5  A    between atoms: O_21  and  C_8 
REMARK    6  A    between atoms: O_22  and  C_10 
REMARK    7  A    between atoms: O_23  and  C_11 
REMARK    8  A    between atoms: N_16  and  C_15 
ROOT
ATOM      1  C   UNL d   1      53.281  33.152  54.015  0.00  0.00     0.122 A 
ATOM      2  C   UNL d   1      52.835  33.581  53.470  0.00  0.00     0.043 A 
ATOM      3  C   UNL d   1      53.740  33.548  54.575  0.00  0.00     0.105 A 
ATOM      4  C   UNL d   1      53.752  34.371  54.590  0.00  0.00     0.030 A 
ATOM      5  C   UNL d   1      53.306  34.791  54.045  0.00  0.00     0.059 A 
ATOM      6  C   UNL d   1      52.847  34.405  53.485  0.00  0.00     0.015 A 
ATOM      7  N   UNL d   1      54.181  33.118  55.113  0.00  0.00    -0.242 NA
ATOM      8 CL   UNL d   1      53.334  35.625  54.079  0.00  0.00    -0.082 Cl
ATOM      9  C   UNL d   1      54.205  34.758  55.143  0.00  0.00     0.004 A 
ATOM     10  C   UNL d   1      54.639  33.514  55.673  0.00  0.00     0.099 A 
ATOM     11  C   UNL d   1      54.652  34.338  55.688  0.00  0.00     0.021 A 
ENDROOT
BRANCH   1  12
ATOM     12  O   UNL d   1      53.277  32.405  54.010  0.00  0.00    -0.271 OA
BRANCH  12  13
ATOM     13  C   UNL d   1      53.760  31.656  53.642  0.00  0.00     0.300 C 
ATOM     14  O   UNL d   1      54.522  31.915  53.041  0.00  0.00    -0.259 OA
BRANCH  13  15
ATOM     15  C   UNL d   1      53.549  30.880  53.820  0.00  0.00     0.068 A 
ATOM     16  C   UNL d   1      53.672  30.577  54.583  0.00  0.00     0.032 A 
ATOM     17  C   UNL d   1      53.460  29.793  54.767  0.00  0.00     0.118 A 
ATOM     18  C   UNL d   1      53.122  29.309  54.184  0.00  0.00     0.138 A 
ATOM     19  C   UNL d   1      52.997  29.613  53.416  0.00  0.00     0.118 A 
ATOM     20  C   UNL d   1      53.210  30.399  53.233  0.00  0.00     0.032 A 
BRANCH  17  21
ATOM     21  O   UNL d   1      53.698  29.715  55.658  0.00  0.00    -0.326 OA
ATOM     22  C   UNL d   1      53.112  29.865  55.960  0.00  0.00     0.181 C 
ENDBRANCH  17  21
BRANCH  18  23
ATOM     23  O   UNL d   1      52.959  28.742  54.284  0.00  0.00    -0.324 OA
ATOM     24  C   UNL d   1      53.371  28.142  54.468  0.00  0.00     0.182 C 
ENDBRANCH  18  23
BRANCH  19  25
ATOM     25  O   UNL d   1      52.664  29.202  52.766  0.00  0.00    -0.326 OA
ATOM     26  C   UNL d   1      52.652  29.822  52.191  0.00  0.00     0.181 C 
ENDBRANCH  19  25
ENDBRANCH  13  15
ENDBRANCH  12  13
ENDBRANCH   1  12
BRANCH   2  27
ATOM     27  C   UNL d   1      52.281  33.328  52.794  0.00  0.00     0.082 C 
BRANCH  27  28
ATOM     28  N   UNL d   1      51.507  33.601  52.782  0.00  0.00    -0.299 N 
ATOM     29  C   UNL d   1      51.275  34.137  52.211  0.00  0.00     0.107 A 
ATOM     30  C   UNL d   1      50.499  34.421  52.187  0.00  0.00     0.142 A 
ATOM     31  O   UNL d   1      49.964  34.158  52.744  0.00  0.00    -0.300 OA
ATOM     32  C   UNL d   1      50.196  33.615  53.326  0.00  0.00     0.142 A 
ATOM     33  C   UNL d   1      50.969  33.343  53.335  0.00  0.00     0.107 A 
ENDBRANCH  27  28
ENDBRANCH   2  27
TORSDOF 8
ENDMDL
MODEL 3
REMARK VINA RESULT:      -4.3      1.742      4.221
REMARK  8 active torsions:
REMARK  status: ('A' for Active; 'I' for Inactive)
REMARK    1  A    between atoms: O_4  and  C_1 
REMARK    2  A    between atoms: C_15  and  C_2 
REMARK    3  A    between atoms: C_5  and  O_4 
REMARK    4  A    between atoms: C_7  and  C_5 
REMARK    5  A    between atoms: O_21  and  C_8 
REMARK    6  A    between atoms: O_22  and  C_10 
REMARK    7  A    between atoms: O_23  and  C_11 
REMARK    8  A    between atoms: N_16  and  C_15 
ROOT
ATOM      1  C   UNL d   1      52.936  32.076  53.353  0.00  0.00     0.122 A 
ATOM      2  C   UNL d   1      53.735  32.234  53.481  0.00  0.00     0.043 A 
ATOM      3  C   UNL d   1      52.671  31.295  53.324  0.00  0.00     0.105 A 
ATOM      4  C   UNL d   1      53.203  30.675  53.423  0.00  0.00     0.030 A 
ATOM      5  C   UNL d   1      53.996  30.841  53.550  0.00  0.00     0.059 A 
ATOM      6  C   UNL d   1      54.268  31.614  53.580  0.00  0.00     0.015 A 
ATOM      7  N   UNL d   1      51.877  31.142  53.197  0.00  0.00    -0.242 NA
ATOM      8 CL   UNL d   1      54.518  30.195  53.647  0.00  0.00    -0.082 Cl
ATOM      9  C   UNL d   1      52.938  29.907  53.394  0.00  0.00     0.004 A 
ATOM     10  C   UNL d   1      51.612  30.361  53.169  0.00  0.00     0.099 A 
ATOM     11  C   UNL d   1      52.145  29.741  53.268  0.00  0.00     0.021 A 
ENDROOT
BRANCH   1  12
ATOM     12  O   UNL d   1      52.444  32.631  53.262  0.00  0.00    -0.271 OA
BRANCH  12  13
ATOM     13  C   UNL d   1      52.146  33.265  52.600  0.00  0.00     0.300 C 
ATOM     14  O   UNL d   1      52.650  33.220  51.732  0.00  0.00    -0.259 OA
BRANCH  13  15
ATOM     15  C   UNL d   1      51.530  33.789  52.755  0.00  0.00     0.068 A 
ATOM     16  C   UNL d   1      50.826  33.748  52.317  0.00  0.00     0.032 A 
ATOM     17  C   UNL d   1      50.200  34.277  52.471  0.00  0.00     0.118 A 
ATOM     18  C   UNL d   1      50.279  34.848  53.067  0.00  0.00     0.138 A 
ATOM     19  C   UNL d   1      50.987  34.889  53.508  0.00  0.00     0.118 A 
ATOM     20  C   UNL d   1      51.613  34.361  53.353  0.00  0.00     0.032 A 
BRANCH  17  21
ATOM     21  O   UNL d   1      49.555  34.020  51.858  0.00  0.00    -0.326 OA
ATOM     22  C   UNL d   1      49.735  34.390  51.321  0.00  0.00     0.181 C 
ENDBRANCH  17  21
BRANCH  18  23
ATOM     23  O   UNL d   1      49.848  35.241  53.201  0.00  0.00    -0.324 OA
ATOM     24  C   UNL d   1      49.186  35.141  53.540  0.00  0.00     0.182 C 
ENDBRANCH  18  23
BRANCH  19  25
ATOM     25  O   UNL d   1      51.157  35.430  54.125  0.00  0.00    -0.326 OA
ATOM     26  C   UNL d   1      51.983  35.551  53.991  0.00  0.00     0.181 C 
ENDBRANCH  19  25
ENDBRANCH  13  15
ENDBRANCH  12  13
ENDBRANCH   1  12
BRANCH   2  27
ATOM     27  C   UNL d   1      54.205  33.011  53.543  0.00  0.00     0.082 C 
BRANCH  27  28
ATOM     28  N   UNL d   1      54.533  33.228  54.263  0.00  0.00    -0.299 N 
ATOM     29  C   UNL d   1      55.280  33.557  54.286  0.00  0.00     0.107 A 
ATOM     30  C   UNL d   1      55.623  33.780  55.004  0.00  0.00     0.142 A 
ATOM     31  O   UNL d   1      55.204  33.667  55.695  0.00  0.00    -0.300 OA
ATOM     32  C   UNL d   1      54.445  33.333  55.676  0.00  0.00     0.142 A 
ATOM     33  C   UNL d   1      54.120  33.118  54.955  0.00  0.00     0.107 A 
ENDBRANCH  27  28
ENDBRANCH   2  27
TORSDOF 8
ENDMDL
MODEL 4
REMARK VINA RESULT:      -3.0      2.357      4.785
REMARK  8 active torsions:
REMARK  status: ('A' for Active; 'I' for Inactive)
REMARK    1  A    between atoms: O_4  and  C_1 
REMARK    2  A    between atoms: C_15  and  C_2 
REMARK    3  A    between atoms: C_5  and  O_4 
REMARK    4  A    between atoms: C_7  and  C_5 
REMARK    5  A    between atoms: O_21  and  C_8 
REMARK    6  A    between atoms: O_22  and  C_10 
REMARK    7  A    between atoms: O_23  and  C_11 
REMARK    8  A    between atoms: N_16  and  C_15 
ROOT
ATOM      1  C   UNL d   1      52.026  33.489  52.986  0.00  0.00     0.122 A 
ATOM      2  C   UNL d   1      52.654  33.988  53.179  0.00  0.00     0.043 A 
ATOM      3  C   UNL d   1      52.124  32.671  53.026  0.00  0.00     0.105 A 
ATOM      4  C   UNL d   1      52.847  32.353  53.259  0.00  0.00     0.030 A 
ATOM      5  C   UNL d   1      53.466  32.856  53.450  0.00  0.00     0.059 A 
ATOM      6  C   UNL d   1      53.377  33.670  53.412  0.00  0.00     0.015 A 
ATOM      7  N   UNL d   1      51.499  32.180  52.834  0.00  0.00    -0.242 NA
ATOM      8 CL   UNL d   1      54.190  32.510  53.683  0.00  0.00    -0.082 Cl
ATOM      9  C   UNL d   1      52.939  31.546  53.297  0.00  0.00     0.004 A 
ATOM     10  C   UNL d   1      51.596  31.362  52.874  0.00  0.00     0.099 A 
ATOM     11  C   UNL d   1      52.320  31.043  53.107  0.00  0.00     0.021 A 
ENDROOT
BRANCH   1  12
ATOM     12  O   UNL d   1      51.366  33.768  52.774  0.00  0.00    -0.271 OA
BRANCH  12  13
ATOM     13  C   UNL d   1      50.933  34.166  52.010  0.00  0.00     0.300 C 
ATOM     14  O   UNL d   1      51.488  34.158  51.173  0.00  0.00    -0.259 OA
BRANCH  13  15
ATOM     15  C   UNL d   1      50.174  34.481  52.064  0.00  0.00     0.068 A 
ATOM     16  C   UNL d   1      49.942  34.901  52.741  0.00  0.00     0.032 A 
ATOM     17  C   UNL d   1      49.175  35.221  52.799  0.00  0.00     0.118 A 
ATOM     18  C   UNL d   1      48.636  35.119  52.176  0.00  0.00     0.138 A 
ATOM     19  C   UNL d   1      48.869  34.695  51.495  0.00  0.00     0.118 A 
ATOM     20  C   UNL d   1      49.637  34.376  51.437  0.00  0.00     0.032 A 
BRANCH  17  21
ATOM     21  O   UNL d   1      49.180  35.628  53.631  0.00  0.00    -0.326 OA
ATOM     22  C   UNL d   1      48.537  35.538  53.821  0.00  0.00     0.181 C 
ENDBRANCH  17  21
BRANCH  18  23
ATOM     23  O   UNL d   1      48.079  35.336  52.188  0.00  0.00    -0.324 OA
ATOM     24  C   UNL d   1      47.809  35.997  51.957  0.00  0.00     0.182 C 
ENDBRANCH  18  23
BRANCH  19  25
ATOM     25  O   UNL d   1      48.397  34.543  50.820  0.00  0.00    -0.326 OA
ATOM     26  C   UNL d   1      48.610  33.738  50.672  0.00  0.00     0.181 C 
ENDBRANCH  19  25
ENDBRANCH  13  15
ENDBRANCH  12  13
ENDBRANCH   1  12
BRANCH   2  27
ATOM     27  C   UNL d   1      52.735  34.895  53.195  0.00  0.00     0.082 C 
BRANCH  27  28
ATOM     28  N   UNL d   1      52.907  35.273  53.903  0.00  0.00    -0.299 N 
ATOM     29  C   UNL d   1      52.429  35.151  54.553  0.00  0.00     0.107 A 
ATOM     30  C   UNL d   1      52.589  35.524  55.273  0.00  0.00     0.142 A 
ATOM     31  O   UNL d   1      53.235  36.020  55.326  0.00  0.00    -0.300 OA
ATOM     32  C   UNL d   1      53.723  36.146  54.668  0.00  0.00     0.142 A 
ATOM     33  C   UNL d   1      53.550  35.767  53.962  0.00  0.00     0.107 A 
ENDBRANCH  27  28
ENDBRANCH   2  27
TORSDOF 8
ENDMDL
