MODEL 1
REMARK VINA RESULT:      -5.4      0.000      0.000
REMARK  4 active torsions:
REMARK  status: ('A' for Active; 'I' for Inactive)
REMARK    1  A    between atoms: N_3  and  S_1 
REMARK    2  A    between atoms: N_4  and  S_1 
REMARK    3  A    between atoms: N_2  and  C_7 
REMARK    4  A    between atoms: C_10  and  N_4 
ROOT
ATOM      1  N   UNL d   1     -41.593-123.186 -52.296  0.00  0.00    -0.144 NA
ENDROOT
BRANCH   1   2
ATOM      2  S   UNL d   1     -41.421-122.506 -52.732  0.00  0.00     0.351 S 
ATOM      3  O   UNL d   1     -41.125-122.145 -52.051  0.00  0.00    -0.180 OA
ATOM      4  O   UNL d   1     -41.123-121.737 -52.768  0.00  0.00    -0.180 OA
BRANCH   2   5
ATOM      5  N   UNL d   1     -41.591-122.478 -53.539  0.00  0.00    -0.215 N 
ATOM      6  C   UNL d   1     -41.304-123.066 -54.040  0.00  0.00     0.093 A 
ATOM      7  C   UNL d   1     -41.474-123.039 -54.847  0.00  0.00     0.020 A 
ATOM      8  C   UNL d   1     -41.930-122.424 -55.148  0.00  0.00     0.003 A 
ATOM      9  C   UNL d   1     -42.218-121.835 -54.650  0.00  0.00     0.020 A 
ATOM     10  C   UNL d   1     -42.048-121.862 -53.843  0.00  0.00     0.093 A 
ENDBRANCH   2   5
ENDBRANCH   1   2
BRANCH   1  11
ATOM     11  C   UNL d   1     -41.648-123.146 -51.474  0.00  0.00     0.095 A 
ATOM     12  C   UNL d   1     -42.214-122.660 -51.122  0.00  0.00     0.022 A 
ATOM     13  C   UNL d   1     -42.269-122.621 -50.299  0.00  0.00     0.025 A 
ATOM     14  C   UNL d   1     -41.757-123.067 -49.830  0.00  0.00     0.127 A 
ATOM     15  C   UNL d   1     -41.187-123.555 -50.183  0.00  0.00     0.025 A 
ATOM     16  C   UNL d   1     -41.133-123.595 -51.005  0.00  0.00     0.022 A 
BRANCH  14  17
ATOM     17  N   UNL d   1     -41.811-123.028 -49.007  0.00  0.00    -0.114 N 
ATOM     18  O   UNL d   1     -42.556-123.028 -48.643  0.00  0.00    -0.532 OA
ATOM     19  O   UNL d   1     -41.125-122.988 -48.550  0.00  0.00    -0.532 OA
ENDBRANCH  14  17
ENDBRANCH   1  11
TORSDOF 4
ENDMDL
