MODEL 1
REMARK VINA RESULT:      -3.1      0.000      0.000
REMARK  3 active torsions:
REMARK  status: ('A' for Active; 'I' for Inactive)
REMARK    1  A    between atoms: C_12  and  C_4 
REMARK    2  A    between atoms: O_13  and  C_7 
REMARK    3  A    between atoms: O_14  and  C_10 
ROOT
ATOM      1  C   UNL d   1      33.227  21.428 -21.578  0.00  0.00     0.084 A 
ATOM      2  C   UNL d   1      33.226  20.707 -21.179  0.00  0.00     0.201 A 
ATOM      3  C   UNL d   1      33.218  20.005 -21.611  0.00  0.00     0.067 A 
ATOM      4  C   UNL d   1      33.211  20.023 -22.440  0.00  0.00     0.103 A 
ATOM      5  C   UNL d   1      33.220  21.447 -22.407  0.00  0.00     0.107 A 
ATOM      6  O   UNL d   1      33.212  20.745 -22.835  0.00  0.00    -0.307 OA
ATOM      7  C   UNL d   1      33.234  22.130 -21.146  0.00  0.00     0.101 A 
ATOM      8  C   UNL d   1      33.221  22.168 -22.798  0.00  0.00     0.049 A 
ATOM      9  C   UNL d   1      33.235  22.852 -21.546  0.00  0.00     0.049 A 
ATOM     10  C   UNL d   1      33.229  22.870 -22.365  0.00  0.00     0.098 A 
ATOM     11  O   UNL d   1      33.232  20.693 -20.360  0.00  0.00    -0.286 OA
ENDROOT
BRANCH   4  12
ATOM     12  C   UNL d   1      33.204  19.321 -22.863  0.00  0.00     0.023 A 
ATOM     13  C   UNL d   1      33.174  18.607 -22.464  0.00  0.00     0.002 A 
ATOM     14  C   UNL d   1      33.166  17.896 -22.882  0.00  0.00     0.000 A 
ATOM     15  C   UNL d   1      33.189  17.907 -23.716  0.00  0.00     0.000 A 
ATOM     16  C   UNL d   1      33.219  18.626 -24.105  0.00  0.00     0.000 A 
ATOM     17  C   UNL d   1      33.227  19.337 -23.687  0.00  0.00     0.002 A 
ENDBRANCH   4  12
BRANCH   7  18
ATOM     18  O   UNL d   1      33.241  22.112 -20.328  0.00  0.00    -0.328 OA
ATOM     19  C   UNL d   1      33.103  22.800 -19.904  0.00  0.00     0.181 C 
ENDBRANCH   7  18
BRANCH  10  20
ATOM     20  O   UNL d   1      33.230  23.593 -22.766  0.00  0.00    -0.328 OA
ATOM     21  C   UNL d   1      32.753  23.685 -23.433  0.00  0.00     0.181 C 
ENDBRANCH  10  20
TORSDOF 3
ENDMDL
MODEL 2
REMARK VINA RESULT:      -3.1      4.328      5.990
REMARK  3 active torsions:
REMARK  status: ('A' for Active; 'I' for Inactive)
REMARK    1  A    between atoms: C_12  and  C_4 
REMARK    2  A    between atoms: O_13  and  C_7 
REMARK    3  A    between atoms: O_14  and  C_10 
ROOT
ATOM      1  C   UNL d   1      31.284  17.235 -24.323  0.00  0.00     0.084 A 
ATOM      2  C   UNL d   1      30.633  17.620 -24.651  0.00  0.00     0.201 A 
ATOM      3  C   UNL d   1      29.878  17.310 -24.532  0.00  0.00     0.067 A 
ATOM      4  C   UNL d   1      29.774  16.618 -24.088  0.00  0.00     0.103 A 
ATOM      5  C   UNL d   1      31.181  16.543 -23.878  0.00  0.00     0.107 A 
ATOM      6  O   UNL d   1      30.426  16.237 -23.762  0.00  0.00    -0.307 OA
ATOM      7  C   UNL d   1      32.039  17.544 -24.442  0.00  0.00     0.101 A 
ATOM      8  C   UNL d   1      31.833  16.166 -23.555  0.00  0.00     0.049 A 
ATOM      9  C   UNL d   1      32.691  17.160 -24.114  0.00  0.00     0.049 A 
ATOM     10  C   UNL d   1      32.589  16.476 -23.674  0.00  0.00     0.098 A 
ATOM     11  O   UNL d   1      30.740  18.303 -25.090  0.00  0.00    -0.286 OA
ENDROOT
BRANCH   4  12
ATOM     12  C   UNL d   1      29.020  16.316 -23.974  0.00  0.00     0.023 A 
ATOM     13  C   UNL d   1      28.573  16.570 -23.337  0.00  0.00     0.002 A 
ATOM     14  C   UNL d   1      27.814  16.271 -23.216  0.00  0.00     0.000 A 
ATOM     15  C   UNL d   1      27.503  15.707 -23.746  0.00  0.00     0.000 A 
ATOM     16  C   UNL d   1      27.958  15.460 -24.380  0.00  0.00     0.000 A 
ATOM     17  C   UNL d   1      28.717  15.759 -24.501  0.00  0.00     0.002 A 
ENDBRANCH   4  12
BRANCH   7  18
ATOM     18  O   UNL d   1      32.141  18.228 -24.881  0.00  0.00    -0.328 OA
ATOM     19  C   UNL d   1      32.897  18.468 -25.090  0.00  0.00     0.181 C 
ENDBRANCH   7  18
BRANCH  10  20
ATOM     20  O   UNL d   1      33.241  16.090 -23.346  0.00  0.00    -0.328 OA
ATOM     21  C   UNL d   1      33.219  15.864 -22.552  0.00  0.00     0.181 C 
ENDBRANCH  10  20
TORSDOF 3
ENDMDL
MODEL 3
REMARK VINA RESULT:      -3.0      1.492      3.138
REMARK  3 active torsions:
REMARK  status: ('A' for Active; 'I' for Inactive)
REMARK    1  A    between atoms: C_12  and  C_4 
REMARK    2  A    between atoms: O_13  and  C_7 
REMARK    3  A    between atoms: O_14  and  C_10 
ROOT
ATOM      1  C   UNL d   1      32.977  19.472 -23.532  0.00  0.00     0.084 A 
ATOM      2  C   UNL d   1      32.889  19.120 -24.273  0.00  0.00     0.201 A 
ATOM      3  C   UNL d   1      32.714  18.316 -24.321  0.00  0.00     0.067 A 
ATOM      4  C   UNL d   1      32.626  17.865 -23.631  0.00  0.00     0.103 A 
ATOM      5  C   UNL d   1      32.889  19.021 -22.842  0.00  0.00     0.107 A 
ATOM      6  O   UNL d   1      32.714  18.219 -22.894  0.00  0.00    -0.307 OA
ATOM      7  C   UNL d   1      33.153  20.276 -23.484  0.00  0.00     0.101 A 
ATOM      8  C   UNL d   1      32.977  19.377 -22.109  0.00  0.00     0.049 A 
ATOM      9  C   UNL d   1      33.240  20.628 -22.743  0.00  0.00     0.049 A 
ATOM     10  C   UNL d   1      33.153  20.182 -22.061  0.00  0.00     0.098 A 
ATOM     11  O   UNL d   1      32.977  19.570 -24.952  0.00  0.00    -0.286 OA
ENDROOT
BRANCH   4  12
ATOM     12  C   UNL d   1      32.451  17.066 -23.687  0.00  0.00     0.023 A 
ATOM     13  C   UNL d   1      33.058  16.519 -23.731  0.00  0.00     0.002 A 
ATOM     14  C   UNL d   1      32.891  15.713 -23.788  0.00  0.00     0.000 A 
ATOM     15  C   UNL d   1      32.098  15.457 -23.799  0.00  0.00     0.000 A 
ATOM     16  C   UNL d   1      31.497  16.010 -23.753  0.00  0.00     0.000 A 
ATOM     17  C   UNL d   1      31.664  16.816 -23.697  0.00  0.00     0.002 A 
ENDBRANCH   4  12
BRANCH   7  18
ATOM     18  O   UNL d   1      33.240  20.721 -24.166  0.00  0.00    -0.328 OA
ATOM     19  C   UNL d   1      33.118  21.532 -24.140  0.00  0.00     0.181 C 
ENDBRANCH   7  18
BRANCH  10  20
ATOM     20  O   UNL d   1      33.241  20.534 -21.319  0.00  0.00    -0.328 OA
ATOM     21  C   UNL d   1      32.692  21.099 -21.073  0.00  0.00     0.181 C 
ENDBRANCH  10  20
TORSDOF 3
ENDMDL
MODEL 4
REMARK VINA RESULT:      -2.6      1.089      3.710
REMARK  3 active torsions:
REMARK  status: ('A' for Active; 'I' for Inactive)
REMARK    1  A    between atoms: C_12  and  C_4 
REMARK    2  A    between atoms: O_13  and  C_7 
REMARK    3  A    between atoms: O_14  and  C_10 
ROOT
ATOM      1  C   UNL d   1      33.130  20.271 -22.342  0.00  0.00     0.084 A 
ATOM      2  C   UNL d   1      33.094  20.162 -21.526  0.00  0.00     0.201 A 
ATOM      3  C   UNL d   1      33.020  20.819 -21.032  0.00  0.00     0.067 A 
ATOM      4  C   UNL d   1      32.984  21.582 -21.354  0.00  0.00     0.103 A 
ATOM      5  C   UNL d   1      33.094  21.034 -22.664  0.00  0.00     0.107 A 
ATOM      6  O   UNL d   1      33.020  21.687 -22.169  0.00  0.00    -0.307 OA
ATOM      7  C   UNL d   1      33.204  19.615 -22.835  0.00  0.00     0.101 A 
ATOM      8  C   UNL d   1      33.131  21.135 -23.477  0.00  0.00     0.049 A 
ATOM      9  C   UNL d   1      33.240  19.724 -23.652  0.00  0.00     0.049 A 
ATOM     10  C   UNL d   1      33.204  20.477 -23.970  0.00  0.00     0.098 A 
ATOM     11  O   UNL d   1      33.130  19.407 -21.212  0.00  0.00    -0.286 OA
ENDROOT
BRANCH   4  12
ATOM     12  C   UNL d   1      32.911  22.230 -20.858  0.00  0.00     0.023 A 
ATOM     13  C   UNL d   1      32.563  22.917 -21.135  0.00  0.00     0.002 A 
ATOM     14  C   UNL d   1      32.485  23.574 -20.641  0.00  0.00     0.000 A 
ATOM     15  C   UNL d   1      32.764  23.535 -19.856  0.00  0.00     0.000 A 
ATOM     16  C   UNL d   1      33.111  22.844 -19.588  0.00  0.00     0.000 A 
ATOM     17  C   UNL d   1      33.188  22.187 -20.082  0.00  0.00     0.002 A 
ENDBRANCH   4  12
BRANCH   7  18
ATOM     18  O   UNL d   1      33.240  18.861 -22.517  0.00  0.00    -0.328 OA
ATOM     19  C   UNL d   1      33.171  18.208 -23.009  0.00  0.00     0.181 C 
ENDBRANCH   7  18
BRANCH  10  20
ATOM     20  O   UNL d   1      33.241  20.587 -24.788  0.00  0.00    -0.328 OA
ATOM     21  C   UNL d   1      33.176  21.349 -25.097  0.00  0.00     0.181 C 
ENDBRANCH  10  20
TORSDOF 3
ENDMDL
MODEL 5
REMARK VINA RESULT:      -2.2      1.089      4.086
REMARK  3 active torsions:
REMARK  status: ('A' for Active; 'I' for Inactive)
REMARK    1  A    between atoms: C_12  and  C_4 
REMARK    2  A    between atoms: O_13  and  C_7 
REMARK    3  A    between atoms: O_14  and  C_10 
ROOT
ATOM      1  C   UNL d   1      33.231  20.337 -22.930  0.00  0.00     0.084 A 
ATOM      2  C   UNL d   1      33.232  21.161 -22.967  0.00  0.00     0.201 A 
ATOM      3  C   UNL d   1      33.228  21.598 -22.268  0.00  0.00     0.067 A 
ATOM      4  C   UNL d   1      33.222  21.212 -21.534  0.00  0.00     0.103 A 
ATOM      5  C   UNL d   1      33.225  19.952 -22.197  0.00  0.00     0.107 A 
ATOM      6  O   UNL d   1      33.221  20.390 -21.501  0.00  0.00    -0.307 OA
ATOM      7  C   UNL d   1      33.235  19.901 -23.630  0.00  0.00     0.101 A 
ATOM      8  C   UNL d   1      33.223  19.132 -22.168  0.00  0.00     0.049 A 
ATOM      9  C   UNL d   1      33.234  19.077 -23.593  0.00  0.00     0.049 A 
ATOM     10  C   UNL d   1      33.228  18.696 -22.868  0.00  0.00     0.098 A 
ATOM     11  O   UNL d   1      33.238  21.538 -23.694  0.00  0.00    -0.286 OA
ENDROOT
BRANCH   4  12
ATOM     12  C   UNL d   1      33.218  21.653 -20.842  0.00  0.00     0.023 A 
ATOM     13  C   UNL d   1      33.240  21.272 -20.118  0.00  0.00     0.002 A 
ATOM     14  C   UNL d   1      33.236  21.709 -19.418  0.00  0.00     0.000 A 
ATOM     15  C   UNL d   1      33.209  22.541 -19.451  0.00  0.00     0.000 A 
ATOM     16  C   UNL d   1      33.187  22.913 -20.179  0.00  0.00     0.000 A 
ATOM     17  C   UNL d   1      33.191  22.477 -20.880  0.00  0.00     0.002 A 
ENDBRANCH   4  12
BRANCH   7  18
ATOM     18  O   UNL d   1      33.241  20.282 -24.355  0.00  0.00    -0.328 OA
ATOM     19  C   UNL d   1      33.067  19.862 -25.037  0.00  0.00     0.181 C 
ENDBRANCH   7  18
BRANCH  10  20
ATOM     20  O   UNL d   1      33.226  17.871 -22.831  0.00  0.00    -0.328 OA
ATOM     21  C   UNL d   1      32.544  17.458 -23.044  0.00  0.00     0.181 C 
ENDBRANCH  10  20
TORSDOF 3
ENDMDL
MODEL 6
REMARK VINA RESULT:      -2.0      2.398      4.866
REMARK  3 active torsions:
REMARK  status: ('A' for Active; 'I' for Inactive)
REMARK    1  A    between atoms: C_12  and  C_4 
REMARK    2  A    between atoms: O_13  and  C_7 
REMARK    3  A    between atoms: O_14  and  C_10 
ROOT
ATOM      1  C   UNL d   1      32.075  17.617 -23.796  0.00  0.00     0.084 A 
ATOM      2  C   UNL d   1      32.777  17.634 -23.363  0.00  0.00     0.201 A 
ATOM      3  C   UNL d   1      33.006  18.333 -22.991  0.00  0.00     0.067 A 
ATOM      4  C   UNL d   1      32.535  19.013 -23.052  0.00  0.00     0.103 A 
ATOM      5  C   UNL d   1      31.605  18.297 -23.858  0.00  0.00     0.107 A 
ATOM      6  O   UNL d   1      31.836  18.993 -23.486  0.00  0.00    -0.307 OA
ATOM      7  C   UNL d   1      31.846  16.917 -24.168  0.00  0.00     0.101 A 
ATOM      8  C   UNL d   1      30.909  18.272 -24.291  0.00  0.00     0.049 A 
ATOM      9  C   UNL d   1      31.145  16.900 -24.602  0.00  0.00     0.049 A 
ATOM     10  C   UNL d   1      30.680  17.572 -24.663  0.00  0.00     0.098 A 
ATOM     11  O   UNL d   1      33.238  16.960 -23.305  0.00  0.00    -0.286 OA
ENDROOT
BRANCH   4  12
ATOM     12  C   UNL d   1      32.769  19.705 -22.680  0.00  0.00     0.023 A 
ATOM     13  C   UNL d   1      32.849  19.721 -21.866  0.00  0.00     0.002 A 
ATOM     14  C   UNL d   1      33.084  20.414 -21.483  0.00  0.00     0.000 A 
ATOM     15  C   UNL d   1      33.241  21.099 -21.931  0.00  0.00     0.000 A 
ATOM     16  C   UNL d   1      33.159  21.073 -22.745  0.00  0.00     0.000 A 
ATOM     17  C   UNL d   1      32.924  20.381 -23.127  0.00  0.00     0.002 A 
ENDBRANCH   4  12
BRANCH   7  18
ATOM     18  O   UNL d   1      32.311  16.246 -24.107  0.00  0.00    -0.328 OA
ATOM     19  C   UNL d   1      32.268  15.667 -24.687  0.00  0.00     0.181 C 
ENDBRANCH   7  18
BRANCH  10  20
ATOM     20  O   UNL d   1      29.978  17.555 -25.097  0.00  0.00    -0.328 OA
ATOM     21  C   UNL d   1      29.266  17.406 -24.708  0.00  0.00     0.181 C 
ENDBRANCH  10  20
TORSDOF 3
ENDMDL
MODEL 7
REMARK VINA RESULT:      -1.8      4.055      5.775
REMARK  3 active torsions:
REMARK  status: ('A' for Active; 'I' for Inactive)
REMARK    1  A    between atoms: C_12  and  C_4 
REMARK    2  A    between atoms: O_13  and  C_7 
REMARK    3  A    between atoms: O_14  and  C_10 
ROOT
ATOM      1  C   UNL d   1      31.480  16.516 -23.728  0.00  0.00     0.084 A 
ATOM      2  C   UNL d   1      31.148  15.916 -23.270  0.00  0.00     0.201 A 
ATOM      3  C   UNL d   1      30.359  15.707 -23.385  0.00  0.00     0.067 A 
ATOM      4  C   UNL d   1      29.903  16.096 -23.958  0.00  0.00     0.103 A 
ATOM      5  C   UNL d   1      31.024  16.905 -24.301  0.00  0.00     0.107 A 
ATOM      6  O   UNL d   1      30.237  16.694 -24.414  0.00  0.00    -0.307 OA
ATOM      7  C   UNL d   1      32.269  16.725 -23.613  0.00  0.00     0.101 A 
ATOM      8  C   UNL d   1      31.360  17.500 -24.754  0.00  0.00     0.049 A 
ATOM      9  C   UNL d   1      32.600  17.325 -24.071  0.00  0.00     0.049 A 
ATOM     10  C   UNL d   1      32.150  17.709 -24.637  0.00  0.00     0.098 A 
ATOM     11  O   UNL d   1      31.603  15.535 -22.705  0.00  0.00    -0.286 OA
ENDROOT
BRANCH   4  12
ATOM     12  C   UNL d   1      29.119  15.882 -24.068  0.00  0.00     0.023 A 
ATOM     13  C   UNL d   1      28.837  15.746 -24.823  0.00  0.00     0.002 A 
ATOM     14  C   UNL d   1      28.049  15.531 -24.942  0.00  0.00     0.000 A 
ATOM     15  C   UNL d   1      27.540  15.453 -24.287  0.00  0.00     0.000 A 
ATOM     16  C   UNL d   1      27.831  15.591 -23.535  0.00  0.00     0.000 A 
ATOM     17  C   UNL d   1      28.619  15.806 -23.416  0.00  0.00     0.002 A 
ENDBRANCH   4  12
BRANCH   7  18
ATOM     18  O   UNL d   1      32.720  16.341 -23.047  0.00  0.00    -0.328 OA
ATOM     19  C   UNL d   1      33.229  16.772 -22.570  0.00  0.00     0.181 C 
ENDBRANCH   7  18
BRANCH  10  20
ATOM     20  O   UNL d   1      32.482  18.310 -25.097  0.00  0.00    -0.328 OA
ATOM     21  C   UNL d   1      32.255  19.092 -24.964  0.00  0.00     0.181 C 
ENDBRANCH  10  20
TORSDOF 3
ENDMDL
MODEL 8
REMARK VINA RESULT:      -1.2      2.034      5.002
REMARK  3 active torsions:
REMARK  status: ('A' for Active; 'I' for Inactive)
REMARK    1  A    between atoms: C_12  and  C_4 
REMARK    2  A    between atoms: O_13  and  C_7 
REMARK    3  A    between atoms: O_14  and  C_10 
ROOT
ATOM      1  C   UNL d   1      32.266  17.904 -23.660  0.00  0.00     0.084 A 
ATOM      2  C   UNL d   1      31.980  18.654 -23.849  0.00  0.00     0.201 A 
ATOM      3  C   UNL d   1      32.178  19.295 -23.370  0.00  0.00     0.067 A 
ATOM      4  C   UNL d   1      32.660  19.187 -22.704  0.00  0.00     0.103 A 
ATOM      5  C   UNL d   1      32.748  17.796 -22.994  0.00  0.00     0.107 A 
ATOM      6  O   UNL d   1      32.944  18.438 -22.518  0.00  0.00    -0.307 OA
ATOM      7  C   UNL d   1      32.068  17.262 -24.139  0.00  0.00     0.101 A 
ATOM      8  C   UNL d   1      33.029  17.047 -22.812  0.00  0.00     0.049 A 
ATOM      9  C   UNL d   1      32.354  16.512 -23.949  0.00  0.00     0.049 A 
ATOM     10  C   UNL d   1      32.831  16.406 -23.292  0.00  0.00     0.098 A 
ATOM     11  O   UNL d   1      31.504  18.756 -24.507  0.00  0.00    -0.286 OA
ENDROOT
BRANCH   4  12
ATOM     12  C   UNL d   1      32.853  19.830 -22.233  0.00  0.00     0.023 A 
ATOM     13  C   UNL d   1      32.920  20.573 -22.567  0.00  0.00     0.002 A 
ATOM     14  C   UNL d   1      33.114  21.225 -22.100  0.00  0.00     0.000 A 
ATOM     15  C   UNL d   1      33.241  21.123 -21.282  0.00  0.00     0.000 A 
ATOM     16  C   UNL d   1      33.171  20.375 -20.957  0.00  0.00     0.000 A 
ATOM     17  C   UNL d   1      32.978  19.724 -21.424  0.00  0.00     0.002 A 
ENDBRANCH   4  12
BRANCH   7  18
ATOM     18  O   UNL d   1      31.592  17.369 -24.796  0.00  0.00    -0.328 OA
ATOM     19  C   UNL d   1      31.154  16.740 -25.088  0.00  0.00     0.181 C 
ENDBRANCH   7  18
BRANCH  10  20
ATOM     20  O   UNL d   1      33.118  15.655 -23.102  0.00  0.00    -0.328 OA
ATOM     21  C   UNL d   1      33.241  15.457 -22.311  0.00  0.00     0.181 C 
ENDBRANCH  10  20
TORSDOF 3
ENDMDL
MODEL 9
REMARK VINA RESULT:      -1.2      5.379      6.012
REMARK  3 active torsions:
REMARK  status: ('A' for Active; 'I' for Inactive)
REMARK    1  A    between atoms: C_12  and  C_4 
REMARK    2  A    between atoms: O_13  and  C_7 
REMARK    3  A    between atoms: O_14  and  C_10 
ROOT
ATOM      1  C   UNL d   1      29.297  16.578 -23.773  0.00  0.00     0.084 A 
ATOM      2  C   UNL d   1      29.573  15.914 -23.369  0.00  0.00     0.201 A 
ATOM      3  C   UNL d   1      30.364  15.693 -23.447  0.00  0.00     0.067 A 
ATOM      4  C   UNL d   1      30.876  16.134 -23.928  0.00  0.00     0.103 A 
ATOM      5  C   UNL d   1      29.809  17.018 -24.254  0.00  0.00     0.107 A 
ATOM      6  O   UNL d   1      30.597  16.795 -24.330  0.00  0.00    -0.307 OA
ATOM      7  C   UNL d   1      28.506  16.799 -23.695  0.00  0.00     0.101 A 
ATOM      8  C   UNL d   1      29.526  17.677 -24.653  0.00  0.00     0.049 A 
ATOM      9  C   UNL d   1      28.229  17.462 -24.099  0.00  0.00     0.049 A 
ATOM     10  C   UNL d   1      28.735  17.897 -24.574  0.00  0.00     0.098 A 
ATOM     11  O   UNL d   1      29.064  15.482 -22.895  0.00  0.00    -0.286 OA
ENDROOT
BRANCH   4  12
ATOM     12  C   UNL d   1      31.661  15.908 -24.001  0.00  0.00     0.023 A 
ATOM     13  C   UNL d   1      32.146  15.906 -23.342  0.00  0.00     0.002 A 
ATOM     14  C   UNL d   1      32.937  15.680 -23.407  0.00  0.00     0.000 A 
ATOM     15  C   UNL d   1      33.241  15.453 -24.149  0.00  0.00     0.000 A 
ATOM     16  C   UNL d   1      32.749  15.458 -24.802  0.00  0.00     0.000 A 
ATOM     17  C   UNL d   1      31.958  15.684 -24.737  0.00  0.00     0.002 A 
ENDBRANCH   4  12
BRANCH   7  18
ATOM     18  O   UNL d   1      28.000  16.363 -23.220  0.00  0.00    -0.328 OA
ATOM     19  C   UNL d   1      27.208  16.571 -23.171  0.00  0.00     0.181 C 
ENDBRANCH   7  18
BRANCH  10  20
ATOM     20  O   UNL d   1      28.458  18.562 -24.979  0.00  0.00    -0.328 OA
ATOM     21  C   UNL d   1      28.964  19.203 -25.097  0.00  0.00     0.181 C 
ENDBRANCH  10  20
TORSDOF 3
ENDMDL
