MODEL 1
REMARK VINA RESULT:      -8.2      0.000      0.000
REMARK  3 active torsions:
REMARK  status: ('A' for Active; 'I' for Inactive)
REMARK    1  A    between atoms: N_6  and  C_1 
REMARK    2  A    between atoms: C_9  and  C_2 
REMARK       I    between atoms: C_8  and  N_6 
REMARK       I    between atoms: C_11  and  N_7 
REMARK    3  A    between atoms: C_17  and  C_8 
ROOT
ATOM      1  C   UNL d   1      51.977  33.510  53.181  0.00  0.00     0.119 A 
ATOM      2  C   UNL d   1      52.424  32.824  53.255  0.00  0.00     0.084 A 
ATOM      3  C   UNL d   1      53.034  33.789  53.941  0.00  0.00     0.049 A 
ATOM      4  C   UNL d   1      53.083  32.997  53.728  0.00  0.00     0.016 A 
ATOM      5  S   UNL d   1      52.355  34.112  53.607  0.00  0.00    -0.066 SA
ATOM      6  N   UNL d   1      54.259  33.656  54.681  0.00  0.00    -0.272 N 
ATOM      7  C   UNL d   1      53.633  34.118  54.423  0.00  0.00     0.089 A 
ATOM      8  C   UNL d   1      54.851  33.974  55.156  0.00  0.00     0.265 C 
ATOM      9  C   UNL d   1      53.710  32.525  53.983  0.00  0.00     0.020 A 
ATOM     10  C   UNL d   1      54.298  32.854  54.459  0.00  0.00     0.083 A 
ATOM     11  O   UNL d   1      54.812  34.769  55.376  0.00  0.00    -0.267 OA
ATOM     12  C   UNL d   1      55.478  33.513  55.414  0.00  0.00     0.066 C 
ENDROOT
BRANCH   1  13
ATOM     13  N   UNL d   1      51.267  33.594  52.754  0.00  0.00    -0.201 NA
ATOM     14  C   UNL d   1      50.911  34.338  52.703  0.00  0.00     0.280 C 
ATOM     15  O   UNL d   1      51.245  34.998  53.065  0.00  0.00    -0.265 OA
BRANCH  14  16
ATOM     16  C   UNL d   1      50.208  34.421  52.280  0.00  0.00     0.058 A 
ATOM     17  C   UNL d   1      49.519  34.665  52.667  0.00  0.00     0.005 A 
ATOM     18  C   UNL d   1      48.815  34.748  52.244  0.00  0.00     0.000 A 
ATOM     19  C   UNL d   1      48.790  34.588  51.427  0.00  0.00     0.000 A 
ATOM     20  C   UNL d   1      49.485  34.345  51.053  0.00  0.00     0.000 A 
ATOM     21  C   UNL d   1      50.188  34.262  51.476  0.00  0.00     0.005 A 
ENDBRANCH  14  16
ENDBRANCH   1  13
BRANCH   2  22
ATOM     22  C   UNL d   1      52.241  32.100  52.915  0.00  0.00     0.299 C 
ATOM     23  O   UNL d   1      52.575  31.901  52.187  0.00  0.00    -0.264 OA
ATOM     24  N   UNL d   1      51.730  31.576  53.294  0.00  0.00    -0.102 N 
ENDBRANCH   2  22
TORSDOF 3
ENDMDL
MODEL 2
REMARK VINA RESULT:      -7.8      1.468      2.398
REMARK  3 active torsions:
REMARK  status: ('A' for Active; 'I' for Inactive)
REMARK    1  A    between atoms: N_6  and  C_1 
REMARK    2  A    between atoms: C_9  and  C_2 
REMARK       I    between atoms: C_8  and  N_6 
REMARK       I    between atoms: C_11  and  N_7 
REMARK    3  A    between atoms: C_17  and  C_8 
ROOT
ATOM      1  C   UNL d   1      51.474  33.842  53.016  0.00  0.00     0.119 A 
ATOM      2  C   UNL d   1      52.257  33.990  53.221  0.00  0.00     0.084 A 
ATOM      3  C   UNL d   1      52.104  32.673  53.100  0.00  0.00     0.049 A 
ATOM      4  C   UNL d   1      52.650  33.261  53.273  0.00  0.00     0.016 A 
ATOM      5  S   UNL d   1      51.377  33.023  52.941  0.00  0.00    -0.066 SA
ATOM      6  N   UNL d   1      53.126  31.681  53.293  0.00  0.00    -0.272 N 
ATOM      7  C   UNL d   1      52.351  31.874  53.112  0.00  0.00     0.089 A 
ATOM      8  C   UNL d   1      53.375  30.896  53.306  0.00  0.00     0.265 C 
ATOM      9  C   UNL d   1      53.433  33.076  53.457  0.00  0.00     0.020 A 
ATOM     10  C   UNL d   1      53.671  32.287  53.467  0.00  0.00     0.083 A 
ATOM     11  O   UNL d   1      52.835  30.296  53.134  0.00  0.00    -0.267 OA
ATOM     12  C   UNL d   1      54.151  30.703  53.488  0.00  0.00     0.066 C 
ENDROOT
BRANCH   1  13
ATOM     13  N   UNL d   1      50.877  34.412  52.903  0.00  0.00    -0.201 NA
ATOM     14  C   UNL d   1      50.098  34.163  52.785  0.00  0.00     0.280 C 
ATOM     15  O   UNL d   1      49.901  33.364  52.778  0.00  0.00    -0.265 OA
BRANCH  14  16
ATOM     16  C   UNL d   1      49.507  34.727  52.673  0.00  0.00     0.058 A 
ATOM     17  C   UNL d   1      49.169  34.828  51.925  0.00  0.00     0.005 A 
ATOM     18  C   UNL d   1      48.578  35.393  51.813  0.00  0.00     0.000 A 
ATOM     19  C   UNL d   1      48.315  35.865  52.447  0.00  0.00     0.000 A 
ATOM     20  C   UNL d   1      48.661  35.753  53.189  0.00  0.00     0.000 A 
ATOM     21  C   UNL d   1      49.252  35.189  53.301  0.00  0.00     0.005 A 
ENDBRANCH  14  16
ENDBRANCH   1  13
BRANCH   2  22
ATOM     22  C   UNL d   1      52.582  34.733  53.348  0.00  0.00     0.299 C 
ATOM     23  O   UNL d   1      52.869  35.162  52.704  0.00  0.00    -0.264 OA
ATOM     24  N   UNL d   1      52.622  35.048  54.108  0.00  0.00    -0.102 N 
ENDBRANCH   2  22
TORSDOF 3
ENDMDL
MODEL 3
REMARK VINA RESULT:      -6.6      1.098      4.527
REMARK  3 active torsions:
REMARK  status: ('A' for Active; 'I' for Inactive)
REMARK    1  A    between atoms: N_6  and  C_1 
REMARK    2  A    between atoms: C_9  and  C_2 
REMARK       I    between atoms: C_8  and  N_6 
REMARK       I    between atoms: C_11  and  N_7 
REMARK    3  A    between atoms: C_17  and  C_8 
ROOT
ATOM      1  C   UNL d   1      52.126  33.769  53.616  0.00  0.00     0.119 A 
ATOM      2  C   UNL d   1      51.736  33.335  53.036  0.00  0.00     0.084 A 
ATOM      3  C   UNL d   1      50.986  34.395  53.330  0.00  0.00     0.049 A 
ATOM      4  C   UNL d   1      51.026  33.724  52.858  0.00  0.00     0.016 A 
ATOM      5  S   UNL d   1      51.661  34.429  53.800  0.00  0.00    -0.066 SA
ATOM      6  N   UNL d   1      49.718  34.724  52.739  0.00  0.00    -0.272 N 
ATOM      7  C   UNL d   1      50.321  34.898  53.265  0.00  0.00     0.089 A 
ATOM      8  C   UNL d   1      49.061  35.215  52.671  0.00  0.00     0.265 C 
ATOM      9  C   UNL d   1      50.423  33.541  52.325  0.00  0.00     0.020 A 
ATOM     10  C   UNL d   1      49.770  34.040  52.265  0.00  0.00     0.083 A 
ATOM     11  O   UNL d   1      49.009  35.891  53.140  0.00  0.00    -0.267 OA
ATOM     12  C   UNL d   1      48.457  35.041  52.144  0.00  0.00     0.066 C 
ENDROOT
BRANCH   1  13
ATOM     13  N   UNL d   1      52.860  33.584  53.962  0.00  0.00    -0.201 NA
ATOM     14  C   UNL d   1      53.257  34.162  54.400  0.00  0.00     0.280 C 
ATOM     15  O   UNL d   1      52.942  34.916  54.500  0.00  0.00    -0.265 OA
BRANCH  14  16
ATOM     16  C   UNL d   1      53.985  33.979  54.743  0.00  0.00     0.058 A 
ATOM     17  C   UNL d   1      54.011  33.583  55.469  0.00  0.00     0.005 A 
ATOM     18  C   UNL d   1      54.739  33.400  55.812  0.00  0.00     0.000 A 
ATOM     19  C   UNL d   1      55.451  33.610  55.435  0.00  0.00     0.000 A 
ATOM     20  C   UNL d   1      55.410  34.005  54.711  0.00  0.00     0.000 A 
ATOM     21  C   UNL d   1      54.683  34.188  54.368  0.00  0.00     0.005 A 
ENDBRANCH  14  16
ENDBRANCH   1  13
BRANCH   2  22
ATOM     22  C   UNL d   1      52.012  32.638  52.701  0.00  0.00     0.299 C 
ATOM     23  O   UNL d   1      52.509  32.678  52.042  0.00  0.00    -0.264 OA
ATOM     24  N   UNL d   1      51.798  31.908  53.015  0.00  0.00    -0.102 N 
ENDBRANCH   2  22
TORSDOF 3
ENDMDL
MODEL 4
REMARK VINA RESULT:      -6.4      2.227      4.765
REMARK  3 active torsions:
REMARK  status: ('A' for Active; 'I' for Inactive)
REMARK    1  A    between atoms: N_6  and  C_1 
REMARK    2  A    between atoms: C_9  and  C_2 
REMARK       I    between atoms: C_8  and  N_6 
REMARK       I    between atoms: C_11  and  N_7 
REMARK    3  A    between atoms: C_17  and  C_8 
ROOT
ATOM      1  C   UNL d   1      53.084  31.739  53.722  0.00  0.00     0.119 A 
ATOM      2  C   UNL d   1      53.439  32.479  53.779  0.00  0.00     0.084 A 
ATOM      3  C   UNL d   1      52.301  32.619  53.102  0.00  0.00     0.049 A 
ATOM      4  C   UNL d   1      52.951  33.027  53.393  0.00  0.00     0.016 A 
ATOM      5  S   UNL d   1      52.376  31.824  53.301  0.00  0.00    -0.066 SA
ATOM      6  N   UNL d   1      51.782  33.847  52.565  0.00  0.00    -0.272 N 
ATOM      7  C   UNL d   1      51.711  33.040  52.684  0.00  0.00     0.089 A 
ATOM      8  C   UNL d   1      51.204  34.266  52.154  0.00  0.00     0.265 C 
ATOM      9  C   UNL d   1      53.030  33.841  53.278  0.00  0.00     0.020 A 
ATOM     10  C   UNL d   1      52.446  34.251  52.865  0.00  0.00     0.083 A 
ATOM     11  O   UNL d   1      50.546  33.867  51.857  0.00  0.00    -0.267 OA
ATOM     12  C   UNL d   1      51.275  35.075  52.035  0.00  0.00     0.066 C 
ENDROOT
BRANCH   1  13
ATOM     13  N   UNL d   1      53.379  31.024  54.030  0.00  0.00    -0.201 NA
ATOM     14  C   UNL d   1      52.959  30.324  53.902  0.00  0.00     0.280 C 
ATOM     15  O   UNL d   1      52.255  30.320  53.475  0.00  0.00    -0.265 OA
BRANCH  14  16
ATOM     16  C   UNL d   1      53.251  29.616  54.208  0.00  0.00     0.058 A 
ATOM     17  C   UNL d   1      53.036  29.375  54.969  0.00  0.00     0.005 A 
ATOM     18  C   UNL d   1      53.329  28.667  55.275  0.00  0.00     0.000 A 
ATOM     19  C   UNL d   1      53.841  28.188  54.824  0.00  0.00     0.000 A 
ATOM     20  C   UNL d   1      54.047  28.441  54.065  0.00  0.00     0.000 A 
ATOM     21  C   UNL d   1      53.755  29.149  53.760  0.00  0.00     0.005 A 
ENDBRANCH  14  16
ENDBRANCH   1  13
BRANCH   2  22
ATOM     22  C   UNL d   1      54.152  32.635  54.154  0.00  0.00     0.299 C 
ATOM     23  O   UNL d   1      54.851  32.618  53.715  0.00  0.00    -0.264 OA
ATOM     24  N   UNL d   1      54.172  32.806  54.960  0.00  0.00    -0.102 N 
ENDBRANCH   2  22
TORSDOF 3
ENDMDL
MODEL 5
REMARK VINA RESULT:      -6.1      9.839     11.005
REMARK  3 active torsions:
REMARK  status: ('A' for Active; 'I' for Inactive)
REMARK    1  A    between atoms: N_6  and  C_1 
REMARK    2  A    between atoms: C_9  and  C_2 
REMARK       I    between atoms: C_8  and  N_6 
REMARK       I    between atoms: C_11  and  N_7 
REMARK    3  A    between atoms: C_17  and  C_8 
ROOT
ATOM      1  C   UNL d   1      44.893  27.034  56.992  0.00  0.00     0.119 A 
ATOM      2  C   UNL d   1      45.059  27.483  57.661  0.00  0.00     0.084 A 
ATOM      3  C   UNL d   1      44.746  28.317  56.670  0.00  0.00     0.049 A 
ATOM      4  C   UNL d   1      44.967  28.283  57.460  0.00  0.00     0.016 A 
ATOM      5  S   UNL d   1      44.698  27.551  56.375  0.00  0.00    -0.066 SA
ATOM      6  N   UNL d   1      44.705  29.751  56.753  0.00  0.00    -0.272 N 
ATOM      7  C   UNL d   1      44.615  29.064  56.317  0.00  0.00     0.089 A 
ATOM      8  C   UNL d   1      44.577  30.489  56.411  0.00  0.00     0.265 C 
ATOM      9  C   UNL d   1      45.061  28.971  57.907  0.00  0.00     0.020 A 
ATOM     10  C   UNL d   1      44.930  29.705  57.554  0.00  0.00     0.083 A 
ATOM     11  O   UNL d   1      44.355  30.536  55.618  0.00  0.00    -0.267 OA
ATOM     12  C   UNL d   1      44.668  31.178  56.847  0.00  0.00     0.066 C 
ENDROOT
BRANCH   1  13
ATOM     13  N   UNL d   1      44.914  26.203  56.937  0.00  0.00    -0.201 NA
ATOM     14  C   UNL d   1      44.642  25.836  56.248  0.00  0.00     0.280 C 
ATOM     15  O   UNL d   1      44.351  26.275  55.616  0.00  0.00    -0.265 OA
BRANCH  14  16
ATOM     16  C   UNL d   1      44.664  25.013  56.194  0.00  0.00     0.058 A 
ATOM     17  C   UNL d   1      45.040  24.651  55.552  0.00  0.00     0.005 A 
ATOM     18  C   UNL d   1      45.061  23.828  55.498  0.00  0.00     0.000 A 
ATOM     19  C   UNL d   1      44.707  23.354  56.085  0.00  0.00     0.000 A 
ATOM     20  C   UNL d   1      44.336  23.729  56.720  0.00  0.00     0.000 A 
ATOM     21  C   UNL d   1      44.314  24.552  56.774  0.00  0.00     0.005 A 
ENDBRANCH  14  16
ENDBRANCH   1  13
BRANCH   2  22
ATOM     22  C   UNL d   1      45.276  27.182  58.392  0.00  0.00     0.299 C 
ATOM     23  O   UNL d   1      46.064  26.973  58.524  0.00  0.00    -0.264 OA
ATOM     24  N   UNL d   1      44.716  27.089  58.990  0.00  0.00    -0.102 N 
ENDBRANCH   2  22
TORSDOF 3
ENDMDL
MODEL 6
REMARK VINA RESULT:      -6.0      1.819      3.733
REMARK  3 active torsions:
REMARK  status: ('A' for Active; 'I' for Inactive)
REMARK    1  A    between atoms: N_6  and  C_1 
REMARK    2  A    between atoms: C_9  and  C_2 
REMARK       I    between atoms: C_8  and  N_6 
REMARK       I    between atoms: C_11  and  N_7 
REMARK    3  A    between atoms: C_17  and  C_8 
ROOT
ATOM      1  C   UNL d   1      52.656  32.691  53.649  0.00  0.00     0.119 A 
ATOM      2  C   UNL d   1      52.142  33.261  53.355  0.00  0.00     0.084 A 
ATOM      3  C   UNL d   1      53.051  33.877  54.109  0.00  0.00     0.049 A 
ATOM      4  C   UNL d   1      52.388  34.000  53.641  0.00  0.00     0.016 A 
ATOM      5  S   UNL d   1      53.223  33.072  54.119  0.00  0.00    -0.066 SA
ATOM      6  N   UNL d   1      53.123  35.289  54.364  0.00  0.00    -0.272 N 
ATOM      7  C   UNL d   1      53.420  34.533  54.473  0.00  0.00     0.089 A 
ATOM      8  C   UNL d   1      53.481  35.939  54.720  0.00  0.00     0.265 C 
ATOM      9  C   UNL d   1      52.083  34.758  53.526  0.00  0.00     0.020 A 
ATOM     10  C   UNL d   1      52.450  35.402  53.887  0.00  0.00     0.083 A 
ATOM     11  O   UNL d   1      54.148  35.827  55.192  0.00  0.00    -0.267 OA
ATOM     12  C   UNL d   1      53.185  36.696  54.611  0.00  0.00     0.066 C 
ENDROOT
BRANCH   1  13
ATOM     13  N   UNL d   1      52.620  31.871  53.505  0.00  0.00    -0.201 NA
ATOM     14  C   UNL d   1      53.229  31.385  53.782  0.00  0.00     0.280 C 
ATOM     15  O   UNL d   1      53.869  31.695  54.196  0.00  0.00    -0.265 OA
BRANCH  14  16
ATOM     16  C   UNL d   1      53.193  30.574  53.640  0.00  0.00     0.058 A 
ATOM     17  C   UNL d   1      53.252  30.041  54.270  0.00  0.00     0.005 A 
ATOM     18  C   UNL d   1      53.217  29.229  54.127  0.00  0.00     0.000 A 
ATOM     19  C   UNL d   1      53.121  28.937  53.352  0.00  0.00     0.000 A 
ATOM     20  C   UNL d   1      53.063  29.480  52.733  0.00  0.00     0.000 A 
ATOM     21  C   UNL d   1      53.099  30.292  52.875  0.00  0.00     0.005 A 
ENDBRANCH  14  16
ENDBRANCH   1  13
BRANCH   2  22
ATOM     22  C   UNL d   1      51.501  33.114  52.864  0.00  0.00     0.299 C 
ATOM     23  O   UNL d   1      51.605  33.145  52.045  0.00  0.00    -0.264 OA
ATOM     24  N   UNL d   1      50.762  32.935  53.182  0.00  0.00    -0.102 N 
ENDBRANCH   2  22
TORSDOF 3
ENDMDL
MODEL 7
REMARK VINA RESULT:      -5.9     10.287     11.283
REMARK  3 active torsions:
REMARK  status: ('A' for Active; 'I' for Inactive)
REMARK    1  A    between atoms: N_6  and  C_1 
REMARK    2  A    between atoms: C_9  and  C_2 
REMARK       I    between atoms: C_8  and  N_6 
REMARK       I    between atoms: C_11  and  N_7 
REMARK    3  A    between atoms: C_17  and  C_8 
ROOT
ATOM      1  C   UNL d   1      44.796  29.692  59.650  0.00  0.00     0.119 A 
ATOM      2  C   UNL d   1      44.915  29.915  58.868  0.00  0.00     0.084 A 
ATOM      3  C   UNL d   1      44.859  28.585  58.913  0.00  0.00     0.049 A 
ATOM      4  C   UNL d   1      44.954  29.225  58.408  0.00  0.00     0.016 A 
ATOM      5  S   UNL d   1      44.761  28.865  59.681  0.00  0.00    -0.066 SA
ATOM      6  N   UNL d   1      44.983  27.694  57.793  0.00  0.00    -0.272 N 
ATOM      7  C   UNL d   1      44.874  27.811  58.596  0.00  0.00     0.089 A 
ATOM      8  C   UNL d   1      45.000  26.935  57.474  0.00  0.00     0.265 C 
ATOM      9  C   UNL d   1      45.064  29.116  57.597  0.00  0.00     0.020 A 
ATOM     10  C   UNL d   1      45.079  28.351  57.290  0.00  0.00     0.083 A 
ATOM     11  O   UNL d   1      44.905  26.284  57.972  0.00  0.00    -0.267 OA
ATOM     12  C   UNL d   1      45.109  26.817  56.670  0.00  0.00     0.066 C 
ENDROOT
BRANCH   1  13
ATOM     13  N   UNL d   1      44.723  30.203  60.304  0.00  0.00    -0.201 NA
ATOM     14  C   UNL d   1      44.533  29.888  61.044  0.00  0.00     0.280 C 
ATOM     15  O   UNL d   1      44.414  29.080  61.147  0.00  0.00    -0.265 OA
BRANCH  14  16
ATOM     16  C   UNL d   1      44.460  30.394  61.692  0.00  0.00     0.058 A 
ATOM     17  C   UNL d   1      44.397  30.081  62.455  0.00  0.00     0.005 A 
ATOM     18  C   UNL d   1      44.325  30.587  63.103  0.00  0.00     0.000 A 
ATOM     19  C   UNL d   1      44.314  31.414  62.997  0.00  0.00     0.000 A 
ATOM     20  C   UNL d   1      44.378  31.712  62.229  0.00  0.00     0.000 A 
ATOM     21  C   UNL d   1      44.450  31.206  61.582  0.00  0.00     0.005 A 
ENDBRANCH  14  16
ENDBRANCH   1  13
BRANCH   2  22
ATOM     22  C   UNL d   1      44.981  30.688  58.600  0.00  0.00     0.299 C 
ATOM     23  O   UNL d   1      45.726  31.044  58.580  0.00  0.00    -0.264 OA
ATOM     24  N   UNL d   1      44.315  31.105  58.353  0.00  0.00    -0.102 N 
ENDBRANCH   2  22
TORSDOF 3
ENDMDL
MODEL 8
REMARK VINA RESULT:      -5.6     10.302     11.045
REMARK  3 active torsions:
REMARK  status: ('A' for Active; 'I' for Inactive)
REMARK    1  A    between atoms: N_6  and  C_1 
REMARK    2  A    between atoms: C_9  and  C_2 
REMARK       I    between atoms: C_8  and  N_6 
REMARK       I    between atoms: C_11  and  N_7 
REMARK    3  A    between atoms: C_17  and  C_8 
ROOT
ATOM      1  C   UNL d   1      44.735  29.325  59.237  0.00  0.00     0.119 A 
ATOM      2  C   UNL d   1      44.813  30.131  59.380  0.00  0.00     0.084 A 
ATOM      3  C   UNL d   1      44.609  29.523  60.547  0.00  0.00     0.049 A 
ATOM      4  C   UNL d   1      44.735  30.255  60.196  0.00  0.00     0.016 A 
ATOM      5  S   UNL d   1      44.608  28.945  59.962  0.00  0.00    -0.066 SA
ATOM      6  N   UNL d   1      44.538  30.162  61.833  0.00  0.00    -0.272 N 
ATOM      7  C   UNL d   1      44.510  29.482  61.377  0.00  0.00     0.089 A 
ATOM      8  C   UNL d   1      44.441  30.128  62.650  0.00  0.00     0.265 C 
ATOM      9  C   UNL d   1      44.765  30.945  60.648  0.00  0.00     0.020 A 
ATOM     10  C   UNL d   1      44.667  30.899  61.466  0.00  0.00     0.083 A 
ATOM     11  O   UNL d   1      44.314  29.398  63.013  0.00  0.00    -0.267 OA
ATOM     12  C   UNL d   1      44.469  30.809  63.106  0.00  0.00     0.066 C 
ENDROOT
BRANCH   1  13
ATOM     13  N   UNL d   1      44.775  28.948  58.495  0.00  0.00    -0.201 NA
ATOM     14  C   UNL d   1      44.858  28.127  58.463  0.00  0.00     0.280 C 
ATOM     15  O   UNL d   1      44.903  27.674  59.149  0.00  0.00    -0.265 OA
BRANCH  14  16
ATOM     16  C   UNL d   1      44.898  27.754  57.728  0.00  0.00     0.058 A 
ATOM     17  C   UNL d   1      45.360  27.074  57.634  0.00  0.00     0.005 A 
ATOM     18  C   UNL d   1      45.399  26.701  56.900  0.00  0.00     0.000 A 
ATOM     19  C   UNL d   1      44.978  27.002  56.247  0.00  0.00     0.000 A 
ATOM     20  C   UNL d   1      44.521  27.682  56.354  0.00  0.00     0.000 A 
ATOM     21  C   UNL d   1      44.482  28.055  57.089  0.00  0.00     0.005 A 
ENDBRANCH  14  16
ENDBRANCH   1  13
BRANCH   2  22
ATOM     22  C   UNL d   1      44.946  30.703  58.807  0.00  0.00     0.299 C 
ATOM     23  O   UNL d   1      45.722  30.920  58.627  0.00  0.00    -0.264 OA
ATOM     24  N   UNL d   1      44.314  31.059  58.416  0.00  0.00    -0.102 N 
ENDBRANCH   2  22
TORSDOF 3
ENDMDL
MODEL 9
REMARK VINA RESULT:      -5.5      9.838     10.959
REMARK  3 active torsions:
REMARK  status: ('A' for Active; 'I' for Inactive)
REMARK    1  A    between atoms: N_6  and  C_1 
REMARK    2  A    between atoms: C_9  and  C_2 
REMARK       I    between atoms: C_8  and  N_6 
REMARK       I    between atoms: C_11  and  N_7 
REMARK    3  A    between atoms: C_17  and  C_8 
ROOT
ATOM      1  C   UNL d   1      44.794  27.601  57.414  0.00  0.00     0.119 A 
ATOM      2  C   UNL d   1      44.838  26.897  57.837  0.00  0.00     0.084 A 
ATOM      3  C   UNL d   1      44.641  26.595  56.556  0.00  0.00     0.049 A 
ATOM      4  C   UNL d   1      44.742  26.270  57.303  0.00  0.00     0.016 A 
ATOM      5  S   UNL d   1      44.672  27.415  56.616  0.00  0.00    -0.066 SA
ATOM      6  N   UNL d   1      44.525  25.272  56.007  0.00  0.00    -0.272 N 
ATOM      7  C   UNL d   1      44.531  26.084  55.902  0.00  0.00     0.089 A 
ATOM      8  C   UNL d   1      44.417  24.764  55.368  0.00  0.00     0.265 C 
ATOM      9  C   UNL d   1      44.738  25.453  57.417  0.00  0.00     0.020 A 
ATOM     10  C   UNL d   1      44.629  24.954  56.770  0.00  0.00     0.083 A 
ATOM     11  O   UNL d   1      44.314  25.079  54.612  0.00  0.00    -0.267 OA
ATOM     12  C   UNL d   1      44.411  23.950  55.472  0.00  0.00     0.066 C 
ENDROOT
BRANCH   1  13
ATOM     13  N   UNL d   1      44.861  28.370  57.725  0.00  0.00    -0.201 NA
ATOM     14  C   UNL d   1      44.769  29.020  57.222  0.00  0.00     0.280 C 
ATOM     15  O   UNL d   1      44.613  28.921  56.420  0.00  0.00    -0.265 OA
BRANCH  14  16
ATOM     16  C   UNL d   1      44.835  29.782  57.531  0.00  0.00     0.058 A 
ATOM     17  C   UNL d   1      44.688  30.437  57.048  0.00  0.00     0.005 A 
ATOM     18  C   UNL d   1      44.754  31.199  57.356  0.00  0.00     0.000 A 
ATOM     19  C   UNL d   1      44.967  31.318  58.153  0.00  0.00     0.000 A 
ATOM     20  C   UNL d   1      45.110  30.655  58.624  0.00  0.00     0.000 A 
ATOM     21  C   UNL d   1      45.045  29.893  58.315  0.00  0.00     0.005 A 
ENDBRANCH  14  16
ENDBRANCH   1  13
BRANCH   2  22
ATOM     22  C   UNL d   1      44.956  26.838  58.647  0.00  0.00     0.299 C 
ATOM     23  O   UNL d   1      45.727  26.796  58.940  0.00  0.00    -0.264 OA
ATOM     24  N   UNL d   1      44.314  26.821  59.164  0.00  0.00    -0.102 N 
ENDBRANCH   2  22
TORSDOF 3
ENDMDL
