MODEL 1
REMARK VINA RESULT:      70.5      0.000      0.000
REMARK  4 active torsions:
REMARK  status: ('A' for Active; 'I' for Inactive)
REMARK    1  A    between atoms: C_6  and  S_1 
REMARK    2  A    between atoms: N_9  and  S_1 
REMARK    3  A    between atoms: C_17  and  N_9 
REMARK       I    between atoms: C_13  and  N_15 
REMARK    4  A    between atoms: N_15  and  C_18 
ROOT
ATOM      1  C   UNL d   1      58.444  49.682  51.230  0.00  0.00     0.054 A 
ATOM      2  C   UNL d   1      58.352  49.671  50.424  0.00  0.00     0.196 A 
ATOM      3  C   UNL d   1      57.830  49.694  51.736  0.00  0.00     0.043 A 
ATOM      4  C   UNL d   1      57.072  49.694  51.461  0.00  0.00     0.196 A 
ATOM      5  C   UNL d   1      59.222  49.683  51.578  0.00  0.00     0.108 A 
ATOM      6  C   UNL d   1      57.588  49.671  50.110  0.00  0.00     0.042 A 
ATOM      7  C   UNL d   1      56.960  49.683  50.630  0.00  0.00     0.042 A 
ATOM      8  O   UNL d   1      59.053  49.660  49.941  0.00  0.00    -0.286 OA
ATOM      9  O   UNL d   1      56.422  49.707  52.005  0.00  0.00    -0.287 OA
ATOM     10  C   UNL d   1      57.938  49.705  52.570  0.00  0.00     0.003 A 
ATOM     11  C   UNL d   1      59.307  49.694  52.377  0.00  0.00     0.013 A 
ATOM     12  C   UNL d   1      57.456  49.660  49.296  0.00  0.00     0.003 A 
ATOM     13  C   UNL d   1      56.143  49.683  50.320  0.00  0.00     0.003 A 
ATOM     14  C   UNL d   1      58.702  49.705  52.884  0.00  0.00     0.001 A 
ATOM     15  C   UNL d   1      56.710  49.660  49.003  0.00  0.00     0.000 A 
ATOM     16  C   UNL d   1      56.052  49.672  49.513  0.00  0.00     0.000 A 
ENDROOT
BRANCH   5  17
ATOM     17  S   UNL d   1      59.921  49.671  51.077  0.00  0.00     0.285 S 
ATOM     18  O   UNL d   1      59.445  49.706  50.419  0.00  0.00    -0.198 OA
ATOM     19  O   UNL d   1      60.406  49.635  51.779  0.00  0.00    -0.198 OA
BRANCH  17  20
ATOM     20  N   UNL d   1      60.577  49.660  50.607  0.00  0.00    -0.158 NA
BRANCH  20  21
ATOM     21  C   UNL d   1      60.971  48.930  50.450  0.00  0.00     0.094 A 
ATOM     22  C   UNL d   1      60.927  48.309  50.979  0.00  0.00     0.021 A 
ATOM     23  C   UNL d   1      61.319  47.588  50.819  0.00  0.00     0.021 A 
ATOM     24  C   UNL d   1      61.768  47.495  50.103  0.00  0.00     0.085 A 
ATOM     25  C   UNL d   1      61.804  48.143  49.569  0.00  0.00     0.021 A 
ATOM     26  C   UNL d   1      61.423  48.836  49.730  0.00  0.00     0.021 A 
BRANCH  24  27
ATOM     27  N   UNL d   1      62.146  46.780  49.964  0.00  0.00    -0.208 NA
ATOM     28  C   UNL d   1      61.794  46.162  49.534  0.00  0.00     0.279 C 
ATOM     29  O   UNL d   1      61.002  46.300  49.232  0.00  0.00    -0.265 OA
ATOM     30  C   UNL d   1      62.149  45.429  49.377  0.00  0.00     0.068 C 
ENDBRANCH  24  27
ENDBRANCH  20  21
ENDBRANCH  17  20
ENDBRANCH   5  17
TORSDOF 4
ENDMDL
