MODEL 1
REMARK VINA RESULT:      -3.0      0.000      0.000
REMARK  3 active torsions:
REMARK  status: ('A' for Active; 'I' for Inactive)
REMARK    1  A    between atoms: C_6  and  C_3 
REMARK    2  A    between atoms: C_9  and  C_6 
REMARK    3  A    between atoms: C_10  and  C_9 
ROOT
ATOM      1  N   UNL d   1      32.565  20.708 -21.039  0.00  0.00    -0.225 NA
ATOM      2  N   UNL d   1      33.211  21.152 -22.135  0.00  0.00    -0.225 NA
ATOM      3  C   UNL d   1      33.025  20.465 -21.708  0.00  0.00     0.163 A 
ATOM      4  C   UNL d   1      32.483  21.508 -21.068  0.00  0.00     0.101 A 
ATOM      5  C   UNL d   1      32.890  21.788 -21.759  0.00  0.00     0.101 A 
ATOM      6  C   UNL d   1      32.115  22.088 -20.609  0.00  0.00     0.021 A 
ATOM      7  C   UNL d   1      32.900  22.594 -21.933  0.00  0.00     0.021 A 
ATOM      8  C   UNL d   1      32.126  22.832 -20.772  0.00  0.00     0.002 A 
ATOM      9  C   UNL d   1      32.522  23.104 -21.443  0.00  0.00     0.002 A 
ENDROOT
BRANCH   3  10
ATOM     10  C   UNL d   1      33.241  19.692 -21.894  0.00  0.00     0.039 C 
BRANCH  10  11
ATOM     11  C   UNL d   1      32.883  19.304 -22.529  0.00  0.00     0.003 C 
BRANCH  11  12
ATOM     12  C   UNL d   1      33.096  18.529 -22.712  0.00  0.00     0.000 C 
ATOM     13  C   UNL d   1      32.722  18.136 -23.339  0.00  0.00     0.000 C 
ENDBRANCH  11  12
ENDBRANCH  10  11
ENDBRANCH   3  10
TORSDOF 3
ENDMDL
MODEL 2
REMARK VINA RESULT:      -2.8      2.456      4.328
REMARK  3 active torsions:
REMARK  status: ('A' for Active; 'I' for Inactive)
REMARK    1  A    between atoms: C_6  and  C_3 
REMARK    2  A    between atoms: C_9  and  C_6 
REMARK    3  A    between atoms: C_10  and  C_9 
ROOT
ATOM      1  N   UNL d   1      32.899  22.495 -19.243  0.00  0.00    -0.225 NA
ATOM      2  N   UNL d   1      32.575  23.702 -19.748  0.00  0.00    -0.225 NA
ATOM      3  C   UNL d   1      32.763  23.307 -19.043  0.00  0.00     0.163 A 
ATOM      4  C   UNL d   1      32.796  22.412 -20.037  0.00  0.00     0.101 A 
ATOM      5  C   UNL d   1      32.591  23.173 -20.356  0.00  0.00     0.101 A 
ATOM      6  C   UNL d   1      32.839  21.795 -20.584  0.00  0.00     0.021 A 
ATOM      7  C   UNL d   1      32.452  23.257 -21.164  0.00  0.00     0.021 A 
ATOM      8  C   UNL d   1      32.710  21.875 -21.329  0.00  0.00     0.002 A 
ATOM      9  C   UNL d   1      32.511  22.614 -21.639  0.00  0.00     0.002 A 
ENDROOT
BRANCH   3  10
ATOM     10  C   UNL d   1      32.810  23.636 -18.289  0.00  0.00     0.039 C 
BRANCH  10  11
ATOM     11  C   UNL d   1      33.077  23.179 -17.655  0.00  0.00     0.003 C 
BRANCH  11  12
ATOM     12  C   UNL d   1      32.902  23.404 -16.881  0.00  0.00     0.000 C 
ATOM     13  C   UNL d   1      33.234  22.989 -16.246  0.00  0.00     0.000 C 
ENDBRANCH  11  12
ENDBRANCH  10  11
ENDBRANCH   3  10
TORSDOF 3
ENDMDL
MODEL 3
REMARK VINA RESULT:      -2.6      3.833      5.894
REMARK  3 active torsions:
REMARK  status: ('A' for Active; 'I' for Inactive)
REMARK    1  A    between atoms: C_6  and  C_3 
REMARK    2  A    between atoms: C_9  and  C_6 
REMARK    3  A    between atoms: C_10  and  C_9 
ROOT
ATOM      1  N   UNL d   1      30.298  17.029 -24.279  0.00  0.00    -0.225 NA
ATOM      2  N   UNL d   1      30.823  16.092 -23.464  0.00  0.00    -0.225 NA
ATOM      3  C   UNL d   1      31.022  16.731 -23.955  0.00  0.00     0.163 A 
ATOM      4  C   UNL d   1      29.692  16.584 -23.990  0.00  0.00     0.101 A 
ATOM      5  C   UNL d   1      30.023  15.993 -23.477  0.00  0.00     0.101 A 
ATOM      6  C   UNL d   1      28.871  16.567 -24.072  0.00  0.00     0.021 A 
ATOM      7  C   UNL d   1      29.529  15.452 -23.098  0.00  0.00     0.021 A 
ATOM      8  C   UNL d   1      28.417  16.067 -23.722  0.00  0.00     0.002 A 
ATOM      9  C   UNL d   1      28.738  15.494 -23.223  0.00  0.00     0.002 A 
ENDROOT
BRANCH   3  10
ATOM     10  C   UNL d   1      31.777  17.025 -24.104  0.00  0.00     0.039 C 
BRANCH  10  11
ATOM     11  C   UNL d   1      32.110  17.585 -23.597  0.00  0.00     0.003 C 
BRANCH  11  12
ATOM     12  C   UNL d   1      32.861  17.888 -23.753  0.00  0.00     0.000 C 
ATOM     13  C   UNL d   1      33.191  18.453 -23.246  0.00  0.00     0.000 C 
ENDBRANCH  11  12
ENDBRANCH  10  11
ENDBRANCH   3  10
TORSDOF 3
ENDMDL
MODEL 4
REMARK VINA RESULT:      -2.6      1.203      3.845
REMARK  3 active torsions:
REMARK  status: ('A' for Active; 'I' for Inactive)
REMARK    1  A    between atoms: C_6  and  C_3 
REMARK    2  A    between atoms: C_9  and  C_6 
REMARK    3  A    between atoms: C_10  and  C_9 
ROOT
ATOM      1  N   UNL d   1      32.822  18.777 -22.467  0.00  0.00    -0.225 NA
ATOM      2  N   UNL d   1      33.208  19.710 -23.361  0.00  0.00    -0.225 NA
ATOM      3  C   UNL d   1      33.102  19.572 -22.549  0.00  0.00     0.163 A 
ATOM      4  C   UNL d   1      32.764  18.455 -23.203  0.00  0.00     0.101 A 
ATOM      5  C   UNL d   1      33.008  19.043 -23.766  0.00  0.00     0.101 A 
ATOM      6  C   UNL d   1      32.537  17.728 -23.521  0.00  0.00     0.021 A 
ATOM      7  C   UNL d   1      33.005  18.868 -24.572  0.00  0.00     0.021 A 
ATOM      8  C   UNL d   1      32.536  17.569 -24.265  0.00  0.00     0.002 A 
ATOM      9  C   UNL d   1      32.772  18.140 -24.812  0.00  0.00     0.002 A 
ENDROOT
BRANCH   3  10
ATOM     10  C   UNL d   1      33.241  20.103 -21.934  0.00  0.00     0.039 C 
BRANCH  10  11
ATOM     11  C   UNL d   1      32.621  20.560 -21.635  0.00  0.00     0.003 C 
BRANCH  11  12
ATOM     12  C   UNL d   1      32.747  21.049 -20.983  0.00  0.00     0.000 C 
ATOM     13  C   UNL d   1      32.191  21.633 -20.793  0.00  0.00     0.000 C 
ENDBRANCH  11  12
ENDBRANCH  10  11
ENDBRANCH   3  10
TORSDOF 3
ENDMDL
MODEL 5
REMARK VINA RESULT:      -2.4      3.908      5.107
REMARK  3 active torsions:
REMARK  status: ('A' for Active; 'I' for Inactive)
REMARK    1  A    between atoms: C_6  and  C_3 
REMARK    2  A    between atoms: C_9  and  C_6 
REMARK    3  A    between atoms: C_10  and  C_9 
ROOT
ATOM      1  N   UNL d   1      31.487  16.438 -23.601  0.00  0.00    -0.225 NA
ATOM      2  N   UNL d   1      31.087  17.500 -24.329  0.00  0.00    -0.225 NA
ATOM      3  C   UNL d   1      30.861  16.739 -24.087  0.00  0.00     0.163 A 
ATOM      4  C   UNL d   1      32.061  17.000 -23.556  0.00  0.00     0.101 A 
ATOM      5  C   UNL d   1      31.809  17.670 -24.015  0.00  0.00     0.101 A 
ATOM      6  C   UNL d   1      32.797  17.074 -23.189  0.00  0.00     0.021 A 
ATOM      7  C   UNL d   1      32.291  18.336 -24.070  0.00  0.00     0.021 A 
ATOM      8  C   UNL d   1      33.240  17.691 -23.242  0.00  0.00     0.002 A 
ATOM      9  C   UNL d   1      32.996  18.341 -23.687  0.00  0.00     0.002 A 
ENDROOT
BRANCH   3  10
ATOM     10  C   UNL d   1      30.164  16.344 -24.280  0.00  0.00     0.039 C 
BRANCH  10  11
ATOM     11  C   UNL d   1      29.501  16.416 -23.793  0.00  0.00     0.003 C 
BRANCH  11  12
ATOM     12  C   UNL d   1      28.800  16.027 -23.990  0.00  0.00     0.000 C 
ATOM     13  C   UNL d   1      28.136  16.101 -23.500  0.00  0.00     0.000 C 
ENDBRANCH  11  12
ENDBRANCH  10  11
ENDBRANCH   3  10
TORSDOF 3
ENDMDL
MODEL 6
REMARK VINA RESULT:      -2.1      1.758      4.489
REMARK  3 active torsions:
REMARK  status: ('A' for Active; 'I' for Inactive)
REMARK    1  A    between atoms: C_6  and  C_3 
REMARK    2  A    between atoms: C_9  and  C_6 
REMARK    3  A    between atoms: C_10  and  C_9 
ROOT
ATOM      1  N   UNL d   1      32.449  18.777 -23.805  0.00  0.00    -0.225 NA
ATOM      2  N   UNL d   1      32.810  17.882 -22.864  0.00  0.00    -0.225 NA
ATOM      3  C   UNL d   1      32.862  18.684 -23.071  0.00  0.00     0.163 A 
ATOM      4  C   UNL d   1      32.163  18.057 -24.024  0.00  0.00     0.101 A 
ATOM      5  C   UNL d   1      32.391  17.492 -23.431  0.00  0.00     0.101 A 
ATOM      6  C   UNL d   1      31.724  17.755 -24.655  0.00  0.00     0.021 A 
ATOM      7  C   UNL d   1      32.173  16.701 -23.509  0.00  0.00     0.021 A 
ATOM      8  C   UNL d   1      31.525  17.023 -24.725  0.00  0.00     0.002 A 
ATOM      9  C   UNL d   1      31.746  16.476 -24.149  0.00  0.00     0.002 A 
ENDROOT
BRANCH   3  10
ATOM     10  C   UNL d   1      33.241  19.281 -22.648  0.00  0.00     0.039 C 
BRANCH  10  11
ATOM     11  C   UNL d   1      32.820  19.727 -22.095  0.00  0.00     0.003 C 
BRANCH  11  12
ATOM     12  C   UNL d   1      33.222  20.231 -21.580  0.00  0.00     0.000 C 
ATOM     13  C   UNL d   1      32.798  20.785 -21.132  0.00  0.00     0.000 C 
ENDBRANCH  11  12
ENDBRANCH  10  11
ENDBRANCH   3  10
TORSDOF 3
ENDMDL
MODEL 7
REMARK VINA RESULT:      -2.0      1.745      2.612
REMARK  3 active torsions:
REMARK  status: ('A' for Active; 'I' for Inactive)
REMARK    1  A    between atoms: C_6  and  C_3 
REMARK    2  A    between atoms: C_9  and  C_6 
REMARK    3  A    between atoms: C_10  and  C_9 
ROOT
ATOM      1  N   UNL d   1      32.928  18.527 -22.508  0.00  0.00    -0.225 NA
ATOM      2  N   UNL d   1      32.944  19.135 -23.711  0.00  0.00    -0.225 NA
ATOM      3  C   UNL d   1      32.868  18.395 -23.343  0.00  0.00     0.163 A 
ATOM      4  C   UNL d   1      33.036  19.316 -22.386  0.00  0.00     0.101 A 
ATOM      5  C   UNL d   1      33.046  19.699 -23.145  0.00  0.00     0.101 A 
ATOM      6  C   UNL d   1      33.133  19.812 -21.734  0.00  0.00     0.021 A 
ATOM      7  C   UNL d   1      33.148  20.515 -23.194  0.00  0.00     0.021 A 
ATOM      8  C   UNL d   1      33.228  20.566 -21.781  0.00  0.00     0.002 A 
ATOM      9  C   UNL d   1      33.237  20.938 -22.518  0.00  0.00     0.002 A 
ENDROOT
BRANCH   3  10
ATOM     10  C   UNL d   1      32.756  17.667 -23.712  0.00  0.00     0.039 C 
BRANCH  10  11
ATOM     11  C   UNL d   1      31.991  17.392 -23.858  0.00  0.00     0.003 C 
BRANCH  11  12
ATOM     12  C   UNL d   1      31.878  16.669 -24.240  0.00  0.00     0.000 C 
ATOM     13  C   UNL d   1      31.162  16.263 -24.150  0.00  0.00     0.000 C 
ENDBRANCH  11  12
ENDBRANCH  10  11
ENDBRANCH   3  10
TORSDOF 3
ENDMDL
MODEL 8
REMARK VINA RESULT:      -1.7      0.955      3.500
REMARK  3 active torsions:
REMARK  status: ('A' for Active; 'I' for Inactive)
REMARK    1  A    between atoms: C_6  and  C_3 
REMARK    2  A    between atoms: C_9  and  C_6 
REMARK    3  A    between atoms: C_10  and  C_9 
ROOT
ATOM      1  N   UNL d   1      33.068  20.580 -22.072  0.00  0.00    -0.225 NA
ATOM      2  N   UNL d   1      33.241  21.235 -23.237  0.00  0.00    -0.225 NA
ATOM      3  C   UNL d   1      33.169  21.347 -22.418  0.00  0.00     0.163 A 
ATOM      4  C   UNL d   1      33.081  20.035 -22.664  0.00  0.00     0.101 A 
ATOM      5  C   UNL d   1      33.189  20.448 -23.399  0.00  0.00     0.101 A 
ATOM      6  C   UNL d   1      33.016  19.213 -22.721  0.00  0.00     0.021 A 
ATOM      7  C   UNL d   1      33.224  20.027 -24.107  0.00  0.00     0.021 A 
ATOM      8  C   UNL d   1      33.048  18.827 -23.376  0.00  0.00     0.002 A 
ATOM      9  C   UNL d   1      33.153  19.228 -24.090  0.00  0.00     0.002 A 
ENDROOT
BRANCH   3  10
ATOM     10  C   UNL d   1      33.190  22.064 -22.012  0.00  0.00     0.039 C 
BRANCH  10  11
ATOM     11  C   UNL d   1      32.487  22.462 -21.841  0.00  0.00     0.003 C 
BRANCH  11  12
ATOM     12  C   UNL d   1      32.484  23.076 -21.290  0.00  0.00     0.000 C 
ATOM     13  C   UNL d   1      31.935  23.692 -21.362  0.00  0.00     0.000 C 
ENDBRANCH  11  12
ENDBRANCH  10  11
ENDBRANCH   3  10
TORSDOF 3
ENDMDL
MODEL 9
REMARK VINA RESULT:      -1.0      2.724      3.788
REMARK  3 active torsions:
REMARK  status: ('A' for Active; 'I' for Inactive)
REMARK    1  A    between atoms: C_6  and  C_3 
REMARK    2  A    between atoms: C_9  and  C_6 
REMARK    3  A    between atoms: C_10  and  C_9 
ROOT
ATOM      1  N   UNL d   1      32.033  22.834 -18.956  0.00  0.00    -0.225 NA
ATOM      2  N   UNL d   1      33.239  23.434 -18.919  0.00  0.00    -0.225 NA
ATOM      3  C   UNL d   1      32.694  23.073 -19.429  0.00  0.00     0.163 A 
ATOM      4  C   UNL d   1      32.180  23.046 -18.194  0.00  0.00     0.101 A 
ATOM      5  C   UNL d   1      32.941  23.425 -18.170  0.00  0.00     0.101 A 
ATOM      6  C   UNL d   1      31.788  22.985 -17.470  0.00  0.00     0.021 A 
ATOM      7  C   UNL d   1      33.241  23.702 -17.454  0.00  0.00     0.021 A 
ATOM      8  C   UNL d   1      32.067  23.243 -16.810  0.00  0.00     0.002 A 
ATOM      9  C   UNL d   1      32.806  23.610 -16.787  0.00  0.00     0.002 A 
ENDROOT
BRANCH   3  10
ATOM     10  C   UNL d   1      32.774  22.964 -20.242  0.00  0.00     0.039 C 
BRANCH  10  11
ATOM     11  C   UNL d   1      32.864  22.203 -20.550  0.00  0.00     0.003 C 
BRANCH  11  12
ATOM     12  C   UNL d   1      32.833  22.081 -21.365  0.00  0.00     0.000 C 
ATOM     13  C   UNL d   1      32.871  21.311 -21.669  0.00  0.00     0.000 C 
ENDBRANCH  11  12
ENDBRANCH  10  11
ENDBRANCH   3  10
TORSDOF 3
ENDMDL
