MODEL 1
REMARK VINA RESULT:     112.8      0.000      0.000
REMARK  6 active torsions:
REMARK  status: ('A' for Active; 'I' for Inactive)
REMARK    1  A    between atoms: S_13  and  C_3 
REMARK    2  A    between atoms: C_21  and  C_4 
REMARK       I    between atoms: N_7  and  C_10 
REMARK    3  A    between atoms: C_10  and  C_20 
REMARK    4  A    between atoms: C_20  and  S_13 
REMARK    5  A    between atoms: O_24  and  C_16 
REMARK    6  A    between atoms: O_25  and  C_17 
ROOT
ATOM      1  N   UNL d   1     -54.943-100.579 -41.754  0.00  0.00    -0.272 N 
ATOM      2  C   UNL d   1     -54.907 -99.944 -42.318  0.00  0.00     0.271 C 
ATOM      3  C   UNL d   1     -54.885-101.034 -40.410  0.00  0.00     0.020 A 
ATOM      4  C   UNL d   1     -54.850-100.420 -40.950  0.00  0.00     0.083 A 
ATOM      5  C   UNL d   1     -55.011-101.790 -40.660  0.00  0.00     0.005 A 
ATOM      6  C   UNL d   1     -54.791-100.878 -39.597  0.00  0.00     0.028 A 
ATOM      7  C   UNL d   1     -54.827-101.494 -39.049  0.00  0.00     0.116 A 
ATOM      8  C   UNL d   1     -54.952-102.251 -39.299  0.00  0.00     0.116 A 
ATOM      9  C   UNL d   1     -55.047-102.418 -40.107  0.00  0.00     0.026 A 
ATOM     10  C   UNL d   1     -55.069-101.336 -42.004  0.00  0.00     0.083 A 
ATOM     11  O   UNL d   1     -54.778 -99.171 -42.053  0.00  0.00    -0.266 OA
ATOM     12  C   UNL d   1     -55.106-101.960 -41.460  0.00  0.00     0.019 A 
ENDROOT
BRANCH   2  13
ATOM     13  C   UNL d   1     -55.000-100.103 -43.122  0.00  0.00     0.099 C 
BRANCH  13  14
ATOM     14  S   UNL d   1     -55.358 -99.547 -43.606  0.00  0.00    -0.043 SA
BRANCH  14  15
ATOM     15  C   UNL d   1     -56.173 -99.380 -43.520  0.00  0.00     0.202 A 
ATOM     16  N   UNL d   1     -56.662 -99.149 -44.117  0.00  0.00    -0.263 N 
ATOM     17  C   UNL d   1     -57.407 -99.048 -43.792  0.00  0.00     0.202 A 
ATOM     18  C   UNL d   1     -56.714 -98.974 -44.922  0.00  0.00     0.074 A 
ATOM     19  N   UNL d   1     -57.372 -99.217 -42.996  0.00  0.00    -0.121 NA
ATOM     20  S   UNL d   1     -57.925 -98.809 -44.393  0.00  0.00    -0.046 SA
ATOM     21  N   UNL d   1     -56.599 -99.424 -42.832  0.00  0.00    -0.121 NA
ATOM     22  C   UNL d   1     -57.493 -98.763 -45.097  0.00  0.00     0.056 A 
BRANCH  18  23
ATOM     23  C   UNL d   1     -56.092 -99.005 -45.454  0.00  0.00     0.017 A 
ATOM     24  C   UNL d   1     -55.329 -98.772 -45.207  0.00  0.00     0.002 A 
ATOM     25  C   UNL d   1     -54.719 -98.806 -45.738  0.00  0.00     0.000 A 
ATOM     26  C   UNL d   1     -54.827 -99.062 -46.509  0.00  0.00     0.000 A 
ATOM     27  C   UNL d   1     -55.595 -99.293 -46.744  0.00  0.00     0.000 A 
ATOM     28  C   UNL d   1     -56.209 -99.261 -46.216  0.00  0.00     0.002 A 
ENDBRANCH  18  23
ENDBRANCH  14  15
ENDBRANCH  13  14
ENDBRANCH   2  13
BRANCH   7  29
ATOM     29  O   UNL d   1     -54.731-101.321 -38.248  0.00  0.00    -0.326 OA
ATOM     30  C   UNL d   1     -55.412-101.242 -37.756  0.00  0.00     0.181 C 
ENDBRANCH   7  29
BRANCH   8  31
ATOM     31  O   UNL d   1     -54.989-102.873 -38.762  0.00  0.00    -0.326 OA
ATOM     32  C   UNL d   1     -54.723-102.746 -37.979  0.00  0.00     0.181 C 
ENDBRANCH   8  31
TORSDOF 6
ENDMDL
MODEL 2
REMARK VINA RESULT:     115.7      2.385      5.945
REMARK  6 active torsions:
REMARK  status: ('A' for Active; 'I' for Inactive)
REMARK    1  A    between atoms: S_13  and  C_3 
REMARK    2  A    between atoms: C_21  and  C_4 
REMARK       I    between atoms: N_7  and  C_10 
REMARK    3  A    between atoms: C_10  and  C_20 
REMARK    4  A    between atoms: C_20  and  S_13 
REMARK    5  A    between atoms: O_24  and  C_16 
REMARK    6  A    between atoms: O_25  and  C_17 
ROOT
ATOM      1  N   UNL d   1     -55.131-101.835 -41.692  0.00  0.00    -0.272 N 
ATOM      2  C   UNL d   1     -55.062-101.775 -40.846  0.00  0.00     0.271 C 
ATOM      3  C   UNL d   1     -55.458-101.248 -42.943  0.00  0.00     0.020 A 
ATOM      4  C   UNL d   1     -55.393-101.187 -42.130  0.00  0.00     0.083 A 
ATOM      5  C   UNL d   1     -55.269-101.938 -43.316  0.00  0.00     0.005 A 
ATOM      6  C   UNL d   1     -55.722-100.596 -43.389  0.00  0.00     0.028 A 
ATOM      7  C   UNL d   1     -55.790-100.654 -44.210  0.00  0.00     0.116 A 
ATOM      8  C   UNL d   1     -55.600-101.344 -44.583  0.00  0.00     0.116 A 
ATOM      9  C   UNL d   1     -55.336-102.001 -44.148  0.00  0.00     0.026 A 
ATOM     10  C   UNL d   1     -54.942-102.525 -42.065  0.00  0.00     0.083 A 
ATOM     11  O   UNL d   1     -55.258-101.064 -40.472  0.00  0.00    -0.266 OA
ATOM     12  C   UNL d   1     -55.007-102.591 -42.889  0.00  0.00     0.019 A 
ENDROOT
BRANCH   2  13
ATOM     13  C   UNL d   1     -54.800-102.423 -40.409  0.00  0.00     0.099 C 
BRANCH  13  14
ATOM     14  S   UNL d   1     -55.323-102.814 -39.914  0.00  0.00    -0.043 SA
BRANCH  14  15
ATOM     15  C   UNL d   1     -56.145-102.784 -40.066  0.00  0.00     0.202 A 
ATOM     16  N   UNL d   1     -56.715-102.665 -39.509  0.00  0.00    -0.263 N 
ATOM     17  C   UNL d   1     -57.437-102.676 -39.896  0.00  0.00     0.202 A 
ATOM     18  C   UNL d   1     -56.862-102.537 -38.707  0.00  0.00     0.074 A 
ATOM     19  N   UNL d   1     -57.306-102.801 -40.691  0.00  0.00    -0.121 NA
ATOM     20  S   UNL d   1     -58.035-102.554 -39.336  0.00  0.00    -0.046 SA
ATOM     21  N   UNL d   1     -56.499-102.868 -40.791  0.00  0.00    -0.121 NA
ATOM     22  C   UNL d   1     -57.677-102.468 -38.596  0.00  0.00     0.056 A 
BRANCH  18  23
ATOM     23  C   UNL d   1     -56.290-102.488 -38.123  0.00  0.00     0.017 A 
ATOM     24  C   UNL d   1     -55.515-102.252 -38.327  0.00  0.00     0.002 A 
ATOM     25  C   UNL d   1     -54.955-102.205 -37.745  0.00  0.00     0.000 A 
ATOM     26  C   UNL d   1     -55.124-102.383 -36.962  0.00  0.00     0.000 A 
ATOM     27  C   UNL d   1     -55.903-102.617 -36.772  0.00  0.00     0.000 A 
ATOM     28  C   UNL d   1     -56.468-102.665 -37.351  0.00  0.00     0.002 A 
ENDBRANCH  18  23
ENDBRANCH  14  15
ENDBRANCH  13  14
ENDBRANCH   2  13
BRANCH   7  29
ATOM     29  O   UNL d   1     -56.052 -99.998 -44.635  0.00  0.00    -0.326 OA
ATOM     30  C   UNL d   1     -56.668 -99.517 -44.318  0.00  0.00     0.181 C 
ENDBRANCH   7  29
BRANCH   8  31
ATOM     31  O   UNL d   1     -55.663-101.414 -45.400  0.00  0.00    -0.326 OA
ATOM     32  C   UNL d   1     -55.286-102.056 -45.782  0.00  0.00     0.181 C 
ENDBRANCH   8  31
TORSDOF 6
ENDMDL
