MODEL 1
REMARK VINA RESULT:      -2.7      0.000      0.000
REMARK  6 active torsions:
REMARK  status: ('A' for Active; 'I' for Inactive)
REMARK    1  A    between atoms: S_3  and  C_1 
REMARK    2  A    between atoms: C_11  and  S_3 
REMARK    3  A    between atoms: S_8  and  C_4 
REMARK    4  A    between atoms: C_7  and  C_5 
REMARK    5  A    between atoms: C_16  and  S_8 
REMARK    6  A    between atoms: C_19  and  C_16 
ROOT
ATOM      1  C   UNL d   1      58.386  -1.419  29.972  0.00  0.00     0.200 A 
ATOM      2  N   UNL d   1      57.799  -1.409  30.555  0.00  0.00    -0.206 NA
ATOM      3  C   UNL d   1      58.638  -0.639  29.850  0.00  0.00     0.160 A 
ATOM      4  C   UNL d   1      57.686  -0.622  30.795  0.00  0.00     0.207 A 
ATOM      5  O   UNL d   1      58.206  -0.154  30.356  0.00  0.00    -0.279 OA
ENDROOT
BRANCH   1   6
ATOM      6  S   UNL d   1      58.667  -2.094  29.585  0.00  0.00     0.229 S 
ATOM      7  O   UNL d   1      58.266  -1.827  28.919  0.00  0.00    -0.215 OA
ATOM      8  O   UNL d   1      59.071  -2.366  30.251  0.00  0.00    -0.215 OA
BRANCH   6   9
ATOM      9  C   UNL d   1      58.953  -2.772  29.206  0.00  0.00     0.089 A 
ATOM     10  C   UNL d   1      58.431  -3.320  28.866  0.00  0.00     0.011 A 
ATOM     11  C   UNL d   1      58.717  -3.985  28.494  0.00  0.00     0.001 A 
ATOM     12  C   UNL d   1      59.529  -4.117  28.455  0.00  0.00     0.000 A 
ATOM     13  C   UNL d   1      60.053  -3.581  28.788  0.00  0.00     0.001 A 
ATOM     14  C   UNL d   1      59.769  -2.906  29.166  0.00  0.00     0.011 A 
ENDBRANCH   6   9
ENDBRANCH   1   6
BRANCH   3  15
ATOM     15  S   UNL d   1      59.218  -0.395  29.316  0.00  0.00    -0.060 SA
BRANCH  15  16
ATOM     16  C   UNL d   1      59.517   0.375  29.360  0.00  0.00     0.037 C 
BRANCH  16  17
ATOM     17  C   UNL d   1      60.321   0.516  29.244  0.00  0.00     0.006 C 
ATOM     18  C   UNL d   1      60.621   0.563  28.476  0.00  0.00     0.001 C 
ATOM     19  C   UNL d   1      60.817   0.608  29.894  0.00  0.00     0.001 C 
ENDBRANCH  16  17
ENDBRANCH  15  16
ENDBRANCH   3  15
BRANCH   4  20
ATOM     20  C   UNL d   1      57.148  -0.360  31.369  0.00  0.00     0.141 A 
ATOM     21  O   UNL d   1      56.994   0.431  31.574  0.00  0.00    -0.302 OA
ATOM     22  C   UNL d   1      56.430   0.440  32.162  0.00  0.00     0.123 A 
ATOM     23  C   UNL d   1      56.220  -0.338  32.336  0.00  0.00     0.029 A 
ATOM     24  C   UNL d   1      56.662  -0.832  31.848  0.00  0.00     0.030 A 
ENDBRANCH   4  20
TORSDOF 6
ENDMDL
MODEL 2
REMARK VINA RESULT:      -2.1      0.924      2.951
REMARK  6 active torsions:
REMARK  status: ('A' for Active; 'I' for Inactive)
REMARK    1  A    between atoms: S_3  and  C_1 
REMARK    2  A    between atoms: C_11  and  S_3 
REMARK    3  A    between atoms: S_8  and  C_4 
REMARK    4  A    between atoms: C_7  and  C_5 
REMARK    5  A    between atoms: C_16  and  S_8 
REMARK    6  A    between atoms: C_19  and  C_16 
ROOT
ATOM      1  C   UNL d   1      58.464  -0.804  30.278  0.00  0.00     0.200 A 
ATOM      2  N   UNL d   1      58.016  -0.506  30.906  0.00  0.00    -0.206 NA
ATOM      3  C   UNL d   1      58.147  -1.541  30.066  0.00  0.00     0.160 A 
ATOM      4  C   UNL d   1      57.420  -1.056  31.084  0.00  0.00     0.207 A 
ATOM      5  O   UNL d   1      57.508  -1.691  30.562  0.00  0.00    -0.279 OA
ENDROOT
BRANCH   1   6
ATOM      6  S   UNL d   1      59.112  -0.429  29.930  0.00  0.00     0.229 S 
ATOM      7  O   UNL d   1      58.570   0.005  29.489  0.00  0.00    -0.215 OA
ATOM      8  O   UNL d   1      59.660  -0.861  30.369  0.00  0.00    -0.215 OA
BRANCH   6   9
ATOM      9  C   UNL d   1      59.768  -0.058  29.586  0.00  0.00     0.089 A 
ATOM     10  C   UNL d   1      60.461   0.071  30.025  0.00  0.00     0.011 A 
ATOM     11  C   UNL d   1      61.103   0.436  29.683  0.00  0.00     0.001 A 
ATOM     12  C   UNL d   1      61.067   0.679  28.897  0.00  0.00     0.000 A 
ATOM     13  C   UNL d   1      60.387   0.556  28.455  0.00  0.00     0.001 A 
ATOM     14  C   UNL d   1      59.734   0.187  28.796  0.00  0.00     0.011 A 
ENDBRANCH   6   9
ENDBRANCH   1   6
BRANCH   3  15
ATOM     15  S   UNL d   1      58.424  -2.032  29.465  0.00  0.00    -0.060 SA
BRANCH  15  16
ATOM     16  C   UNL d   1      58.124  -2.800  29.392  0.00  0.00     0.037 C 
BRANCH  16  17
ATOM     17  C   UNL d   1      58.409  -3.304  28.804  0.00  0.00     0.006 C 
ATOM     18  C   UNL d   1      57.951  -3.946  28.560  0.00  0.00     0.001 C 
ATOM     19  C   UNL d   1      59.146  -3.162  28.467  0.00  0.00     0.001 C 
ENDBRANCH  16  17
ENDBRANCH  15  16
ENDBRANCH   3  15
BRANCH   4  20
ATOM     20  C   UNL d   1      56.846  -0.979  31.677  0.00  0.00     0.141 A 
ATOM     21  O   UNL d   1      56.590  -1.576  32.196  0.00  0.00    -0.302 OA
ATOM     22  C   UNL d   1      56.021  -1.264  32.688  0.00  0.00     0.123 A 
ATOM     23  C   UNL d   1      55.908  -0.472  32.491  0.00  0.00     0.029 A 
ATOM     24  C   UNL d   1      56.416  -0.295  31.867  0.00  0.00     0.030 A 
ENDBRANCH   4  20
TORSDOF 6
ENDMDL
MODEL 3
REMARK VINA RESULT:       0.2      1.459      2.100
REMARK  6 active torsions:
REMARK  status: ('A' for Active; 'I' for Inactive)
REMARK    1  A    between atoms: S_3  and  C_1 
REMARK    2  A    between atoms: C_11  and  S_3 
REMARK    3  A    between atoms: S_8  and  C_4 
REMARK    4  A    between atoms: C_7  and  C_5 
REMARK    5  A    between atoms: C_16  and  S_8 
REMARK    6  A    between atoms: C_19  and  C_16 
ROOT
ATOM      1  C   UNL d   1      57.573  -0.585  31.167  0.00  0.00     0.200 A 
ATOM      2  N   UNL d   1      56.842  -0.733  31.525  0.00  0.00    -0.206 NA
ATOM      3  C   UNL d   1      57.952   0.013  31.599  0.00  0.00     0.160 A 
ATOM      4  C   UNL d   1      56.767  -0.227  32.179  0.00  0.00     0.207 A 
ATOM      5  O   UNL d   1      57.455   0.229  32.218  0.00  0.00    -0.279 OA
ENDROOT
BRANCH   1   6
ATOM      6  S   UNL d   1      57.866  -0.971  30.497  0.00  0.00     0.229 S 
ATOM      7  O   UNL d   1      57.948  -0.226  30.157  0.00  0.00    -0.215 OA
ATOM      8  O   UNL d   1      57.786  -1.719  30.833  0.00  0.00    -0.215 OA
BRANCH   6   9
ATOM      9  C   UNL d   1      58.158  -1.365  29.831  0.00  0.00     0.089 A 
ATOM     10  C   UNL d   1      58.253  -0.967  29.108  0.00  0.00     0.011 A 
ATOM     11  C   UNL d   1      58.540  -1.360  28.456  0.00  0.00     0.001 A 
ATOM     12  C   UNL d   1      58.740  -2.157  28.511  0.00  0.00     0.000 A 
ATOM     13  C   UNL d   1      58.650  -2.559  29.220  0.00  0.00     0.001 A 
ATOM     14  C   UNL d   1      58.359  -2.167  29.884  0.00  0.00     0.011 A 
ENDBRANCH   6   9
ENDBRANCH   1   6
BRANCH   3  15
ATOM     15  S   UNL d   1      58.695   0.331  31.435  0.00  0.00    -0.060 SA
BRANCH  15  16
ATOM     16  C   UNL d   1      59.190   0.557  32.058  0.00  0.00     0.037 C 
BRANCH  16  17
ATOM     17  C   UNL d   1      60.003   0.633  31.937  0.00  0.00     0.006 C 
ATOM     18  C   UNL d   1      60.298   0.676  31.167  0.00  0.00     0.001 C 
ATOM     19  C   UNL d   1      60.510   0.663  32.584  0.00  0.00     0.001 C 
ENDBRANCH  16  17
ENDBRANCH  15  16
ENDBRANCH   3  15
BRANCH   4  20
ATOM     20  C   UNL d   1      56.119  -0.189  32.695  0.00  0.00     0.141 A 
ATOM     21  O   UNL d   1      55.570  -0.797  32.843  0.00  0.00    -0.302 OA
ATOM     22  C   UNL d   1      55.026  -0.526  33.386  0.00  0.00     0.123 A 
ATOM     23  C   UNL d   1      55.219   0.249  33.588  0.00  0.00     0.029 A 
ATOM     24  C   UNL d   1      55.893   0.458  33.163  0.00  0.00     0.030 A 
ENDBRANCH   4  20
TORSDOF 6
ENDMDL
