MODEL 1
REMARK VINA RESULT:      24.0      0.000      0.000
REMARK  1 active torsions:
REMARK  status: ('A' for Active; 'I' for Inactive)
REMARK    1  A    between atoms: C_15  and  C_10 
ROOT
ATOM      1  C   UNL d   1      46.360 -18.807  42.636  0.00  0.00     0.111 A 
ATOM      2  C   UNL d   1      46.146 -17.872  43.690  0.00  0.00     0.062 A 
ATOM      3  C   UNL d   1      46.073 -17.277  43.147  0.00  0.00     0.105 A 
ATOM      4  C   UNL d   1      46.287 -18.213  42.094  0.00  0.00     0.213 A 
ATOM      5  C   UNL d   1      46.290 -18.644  43.438  0.00  0.00     0.018 A 
ATOM      6  O   UNL d   1      46.143 -17.445  42.342  0.00  0.00    -0.287 OA
ATOM      7  C   UNL d   1      46.075 -17.719  44.534  0.00  0.00     0.198 A 
ATOM      8  C   UNL d   1      46.506 -19.583  42.381  0.00  0.00     0.105 C 
ATOM      9  C   UNL d   1      45.922 -16.466  43.390  0.00  0.00     0.025 A 
ATOM     10  C   UNL d   1      45.851 -16.307  44.217  0.00  0.00     0.005 A 
ATOM     11  C   UNL d   1      45.928 -16.932  44.787  0.00  0.00     0.042 A 
ATOM     12  N   UNL d   1      46.647 -20.330  42.126  0.00  0.00    -0.191 NA
ATOM     13  O   UNL d   1      46.132 -18.180  44.955  0.00  0.00    -0.286 OA
ATOM     14  N   UNL d   1      46.359 -18.384  41.286  0.00  0.00    -0.120 N 
ATOM     15  C   UNL d   1      46.364 -19.259  44.041  0.00  0.00     0.001 C 
ENDROOT
BRANCH  10  16
ATOM     16  C   UNL d   1      45.709 -15.546  44.457  0.00  0.00     0.000 A 
ATOM     17  C   UNL d   1      46.305 -14.977  44.464  0.00  0.00     0.000 A 
ATOM     18  C   UNL d   1      46.147 -14.223  44.706  0.00  0.00     0.000 A 
ATOM     19  C   UNL d   1      45.380 -14.003  44.955  0.00  0.00     0.000 A 
ATOM     20  C   UNL d   1      44.794 -14.575  44.945  0.00  0.00     0.000 A 
ATOM     21  C   UNL d   1      44.953 -15.355  44.696  0.00  0.00     0.000 A 
ENDBRANCH  10  16
TORSDOF 1
ENDMDL
MODEL 2
REMARK VINA RESULT:      26.2      2.357      4.353
REMARK  1 active torsions:
REMARK  status: ('A' for Active; 'I' for Inactive)
REMARK    1  A    between atoms: C_15  and  C_10 
ROOT
ATOM      1  C   UNL d   1      45.465 -13.665  44.336  0.00  0.00     0.111 A 
ATOM      2  C   UNL d   1      45.271 -15.073  44.439  0.00  0.00     0.062 A 
ATOM      3  C   UNL d   1      45.989 -15.197  44.090  0.00  0.00     0.105 A 
ATOM      4  C   UNL d   1      46.183 -13.789  43.988  0.00  0.00     0.213 A 
ATOM      5  C   UNL d   1      45.002 -14.303  44.565  0.00  0.00     0.018 A 
ATOM      6  O   UNL d   1      46.452 -14.554  43.861  0.00  0.00    -0.287 OA
ATOM      7  C   UNL d   1      44.772 -15.730  44.685  0.00  0.00     0.198 A 
ATOM      8  C   UNL d   1      45.196 -12.890  44.462  0.00  0.00     0.105 C 
ATOM      9  C   UNL d   1      46.286 -15.992  43.950  0.00  0.00     0.025 A 
ATOM     10  C   UNL d   1      45.804 -16.643  44.189  0.00  0.00     0.005 A 
ATOM     11  C   UNL d   1      45.049 -16.513  44.555  0.00  0.00     0.042 A 
ATOM     12  N   UNL d   1      44.944 -12.138  44.580  0.00  0.00    -0.191 NA
ATOM     13  O   UNL d   1      44.215 -15.634  44.955  0.00  0.00    -0.286 OA
ATOM     14  N   UNL d   1      46.646 -13.141  43.759  0.00  0.00    -0.120 N 
ATOM     15  C   UNL d   1      44.229 -14.201  44.940  0.00  0.00     0.001 C 
ENDROOT
BRANCH  10  16
ATOM     16  C   UNL d   1      46.074 -17.397  44.062  0.00  0.00     0.000 A 
ATOM     17  C   UNL d   1      46.285 -17.891  44.687  0.00  0.00     0.000 A 
ATOM     18  C   UNL d   1      46.553 -18.639  44.545  0.00  0.00     0.000 A 
ATOM     19  C   UNL d   1      46.621 -18.929  43.763  0.00  0.00     0.000 A 
ATOM     20  C   UNL d   1      46.409 -18.432  43.148  0.00  0.00     0.000 A 
ATOM     21  C   UNL d   1      46.132 -17.659  43.292  0.00  0.00     0.000 A 
ENDBRANCH  10  16
TORSDOF 1
ENDMDL
