MODEL 1
REMARK VINA RESULT:      65.2      0.000      0.000
REMARK  4 active torsions:
REMARK  status: ('A' for Active; 'I' for Inactive)
REMARK    1  A    between atoms: C_13  and  C_2 
REMARK       I    between atoms: N_7  and  C_8 
REMARK    2  A    between atoms: C_8  and  C_15 
REMARK    3  A    between atoms: S_14  and  C_10 
REMARK    4  A    between atoms: C_15  and  S_14 
ROOT
ATOM      1  N   UNL d   1     -55.164-101.255 -43.584  0.00  0.00    -0.191 N 
ATOM      2  C   UNL d   1     -54.963-101.937 -43.175  0.00  0.00     0.187 A 
ATOM      3  N   UNL d   1     -54.827-102.529 -43.727  0.00  0.00    -0.127 NA
ATOM      4  C   UNL d   1     -55.156-101.411 -44.388  0.00  0.00     0.187 A 
ATOM      5  N   UNL d   1     -55.360-100.485 -43.316  0.00  0.00    -0.156 NA
ATOM      6  N   UNL d   1     -54.944-102.211 -44.481  0.00  0.00    -0.127 NA
ATOM      7  C   UNL d   1     -55.543 -99.892 -43.860  0.00  0.00     0.131 A 
ATOM      8  C   UNL d   1     -55.338-100.818 -44.932  0.00  0.00     0.043 A 
ATOM      9  C   UNL d   1     -55.532-100.059 -44.668  0.00  0.00     0.031 A 
ENDROOT
BRANCH   7  10
ATOM     10  S   UNL d   1     -55.736 -99.133 -43.597  0.00  0.00    -0.061 SA
BRANCH  10  11
ATOM     11  C   UNL d   1     -56.479 -98.819 -43.761  0.00  0.00     0.098 C 
BRANCH  11  12
ATOM     12  C   UNL d   1     -57.058 -98.832 -43.192  0.00  0.00     0.271 C 
ATOM     13  N   UNL d   1     -57.851 -98.823 -43.413  0.00  0.00    -0.273 N 
ATOM     14  C   UNL d   1     -58.052 -98.801 -44.206  0.00  0.00     0.067 A 
ATOM     15  C   UNL d   1     -58.431 -98.836 -42.831  0.00  0.00     0.083 A 
ATOM     16  C   UNL d   1     -58.839 -98.793 -44.420  0.00  0.00     0.016 A 
ATOM     17  C   UNL d   1     -57.465 -98.788 -44.781  0.00  0.00     0.018 A 
ATOM     18  C   UNL d   1     -59.054 -98.771 -45.218  0.00  0.00     0.001 A 
ATOM     19  C   UNL d   1     -59.432 -98.805 -43.856  0.00  0.00     0.003 A 
ATOM     20  C   UNL d   1     -58.471 -98.758 -45.804  0.00  0.00     0.000 A 
ATOM     21  C   UNL d   1     -57.669 -98.767 -45.582  0.00  0.00     0.002 A 
ATOM     22  C   UNL d   1     -59.215 -98.827 -43.054  0.00  0.00     0.019 A 
ATOM     23  O   UNL d   1     -56.855 -98.853 -42.391  0.00  0.00    -0.266 OA
ENDBRANCH  11  12
ENDBRANCH  10  11
ENDBRANCH   7  10
BRANCH   2  24
ATOM     24  C   UNL d   1     -54.907-102.022 -42.362  0.00  0.00     0.038 A 
ATOM     25  C   UNL d   1     -54.967-101.369 -41.872  0.00  0.00     0.003 A 
ATOM     26  C   UNL d   1     -54.910-101.452 -41.051  0.00  0.00     0.000 A 
ATOM     27  C   UNL d   1     -54.791-102.205 -40.728  0.00  0.00     0.000 A 
ATOM     28  C   UNL d   1     -54.729-102.866 -41.218  0.00  0.00     0.000 A 
ATOM     29  C   UNL d   1     -54.787-102.775 -42.040  0.00  0.00     0.003 A 
ENDBRANCH   2  24
TORSDOF 4
ENDMDL
