MODEL 1
REMARK VINA RESULT:      59.3      0.000      0.000
REMARK  4 active torsions:
REMARK  status: ('A' for Active; 'I' for Inactive)
REMARK    1  A    between atoms: N_8  and  C_2 
REMARK    2  A    between atoms: C_9  and  C_3 
REMARK       I    between atoms: C_6  and  N_7 
REMARK    3  A    between atoms: C_11  and  C_6 
REMARK    4  A    between atoms: N_7  and  N_8 
ROOT
ATOM      1  N   UNL d   1     -49.666  27.035  34.349  0.00  0.00    -0.221 NA
ATOM      2  C   UNL d   1     -49.360  27.783  34.249  0.00  0.00     0.186 A 
ATOM      3  C   UNL d   1     -50.213  26.921  33.764  0.00  0.00     0.090 A 
ATOM      4  S   UNL d   1     -49.714  28.126  33.607  0.00  0.00    -0.047 SA
ATOM      5  C   UNL d   1     -50.245  27.590  33.306  0.00  0.00     0.058 A 
ENDROOT
BRANCH   2   6
ATOM      6  N   UNL d   1     -48.772  28.143  34.730  0.00  0.00    -0.275 N 
ATOM      7  H   UNL d   1     -48.969  28.809  35.173  0.00  0.00     0.189 HD
BRANCH   6   8
ATOM      8  N   UNL d   1     -48.008  27.829  34.752  0.00  0.00    -0.264 N 
ATOM      9  C   UNL d   1     -47.396  28.291  35.061  0.00  0.00     0.271 C 
ATOM     10  O   UNL d   1     -46.632  27.976  35.082  0.00  0.00    -0.266 OA
ATOM     11  H   UNL d   1     -47.879  27.073  34.469  0.00  0.00     0.190 HD
BRANCH   9  12
ATOM     12  C   UNL d   1     -47.535  29.043  35.340  0.00  0.00     0.057 A 
ATOM     13  C   UNL d   1     -47.716  29.123  36.145  0.00  0.00     0.005 A 
ATOM     14  C   UNL d   1     -47.862  29.875  36.458  0.00  0.00     0.000 A 
ATOM     15  C   UNL d   1     -47.832  30.544  35.984  0.00  0.00     0.000 A 
ATOM     16  C   UNL d   1     -47.647  30.454  35.166  0.00  0.00     0.000 A 
ATOM     17  C   UNL d   1     -47.501  29.708  34.853  0.00  0.00     0.005 A 
ENDBRANCH   9  12
ENDBRANCH   6   8
ENDBRANCH   2   6
BRANCH   3  18
ATOM     18  C   UNL d   1     -50.660  26.238  33.655  0.00  0.00     0.018 A 
ATOM     19  C   UNL d   1     -50.286  25.541  33.416  0.00  0.00     0.002 A 
ATOM     20  C   UNL d   1     -50.727  24.855  33.306  0.00  0.00     0.000 A 
ATOM     21  C   UNL d   1     -51.548  24.867  33.437  0.00  0.00     0.000 A 
ATOM     22  C   UNL d   1     -51.921  25.564  33.676  0.00  0.00     0.000 A 
ATOM     23  C   UNL d   1     -51.999  24.185  33.329  0.00  0.00     0.000 C 
ATOM     24  C   UNL d   1     -51.474  26.253  33.786  0.00  0.00     0.002 A 
ENDBRANCH   3  18
TORSDOF 4
ENDMDL
MODEL 2
REMARK VINA RESULT:      59.7      1.244      5.131
REMARK  4 active torsions:
REMARK  status: ('A' for Active; 'I' for Inactive)
REMARK    1  A    between atoms: N_8  and  C_2 
REMARK    2  A    between atoms: C_9  and  C_3 
REMARK       I    between atoms: C_6  and  N_7 
REMARK    3  A    between atoms: C_11  and  C_6 
REMARK    4  A    between atoms: N_7  and  N_8 
ROOT
ATOM      1  N   UNL d   1     -48.629  28.723  34.493  0.00  0.00    -0.221 NA
ATOM      2  C   UNL d   1     -48.822  27.961  34.702  0.00  0.00     0.186 A 
ATOM      3  C   UNL d   1     -48.189  29.033  35.097  0.00  0.00     0.090 A 
ATOM      4  S   UNL d   1     -48.503  27.802  35.429  0.00  0.00    -0.047 SA
ATOM      5  C   UNL d   1     -48.110  28.468  35.675  0.00  0.00     0.058 A 
ENDROOT
BRANCH   2   6
ATOM      6  N   UNL d   1     -49.276  27.422  34.243  0.00  0.00    -0.275 N 
ATOM      7  H   UNL d   1     -50.064  27.598  34.082  0.00  0.00     0.189 HD
BRANCH   6   8
ATOM      8  N   UNL d   1     -48.929  26.728  33.960  0.00  0.00    -0.264 N 
ATOM      9  C   UNL d   1     -49.409  26.166  33.588  0.00  0.00     0.271 C 
ATOM     10  O   UNL d   1     -49.061  25.471  33.306  0.00  0.00    -0.266 OA
ATOM     11  H   UNL d   1     -48.125  26.615  34.056  0.00  0.00     0.190 HD
BRANCH   9  12
ATOM     12  C   UNL d   1     -50.208  26.288  33.498  0.00  0.00     0.057 A 
ATOM     13  C   UNL d   1     -50.688  25.618  33.410  0.00  0.00     0.005 A 
ATOM     14  C   UNL d   1     -51.505  25.709  33.316  0.00  0.00     0.000 A 
ATOM     15  C   UNL d   1     -51.849  26.455  33.308  0.00  0.00     0.000 A 
ATOM     16  C   UNL d   1     -51.353  27.132  33.398  0.00  0.00     0.000 A 
ATOM     17  C   UNL d   1     -50.541  27.042  33.491  0.00  0.00     0.005 A 
ENDBRANCH   9  12
ENDBRANCH   6   8
ENDBRANCH   2   6
BRANCH   3  18
ATOM     18  C   UNL d   1     -47.877  29.795  35.118  0.00  0.00     0.018 A 
ATOM     19  C   UNL d   1     -48.122  30.350  34.557  0.00  0.00     0.002 A 
ATOM     20  C   UNL d   1     -47.813  31.112  34.572  0.00  0.00     0.000 A 
ATOM     21  C   UNL d   1     -47.255  31.320  35.152  0.00  0.00     0.000 A 
ATOM     22  C   UNL d   1     -47.010  30.765  35.713  0.00  0.00     0.000 A 
ATOM     23  C   UNL d   1     -46.940  32.082  35.177  0.00  0.00     0.000 C 
ATOM     24  C   UNL d   1     -47.324  29.997  35.695  0.00  0.00     0.002 A 
ENDBRANCH   3  18
TORSDOF 4
ENDMDL
MODEL 3
REMARK VINA RESULT:      61.0      1.482      5.189
REMARK  4 active torsions:
REMARK  status: ('A' for Active; 'I' for Inactive)
REMARK    1  A    between atoms: N_8  and  C_2 
REMARK    2  A    between atoms: C_9  and  C_3 
REMARK       I    between atoms: C_6  and  N_7 
REMARK    3  A    between atoms: C_11  and  C_6 
REMARK    4  A    between atoms: N_7  and  N_8 
ROOT
ATOM      1  N   UNL d   1     -49.377  27.679  34.613  0.00  0.00    -0.221 NA
ATOM      2  C   UNL d   1     -49.476  27.094  34.055  0.00  0.00     0.186 A 
ATOM      3  C   UNL d   1     -48.623  27.961  34.531  0.00  0.00     0.090 A 
ATOM      4  S   UNL d   1     -48.789  27.018  33.633  0.00  0.00    -0.047 SA
ATOM      5  C   UNL d   1     -48.259  27.557  33.929  0.00  0.00     0.058 A 
ENDROOT
BRANCH   2   6
ATOM      6  N   UNL d   1     -50.174  26.642  33.932  0.00  0.00    -0.275 N 
ATOM      7  H   UNL d   1     -50.136  25.822  33.995  0.00  0.00     0.189 HD
BRANCH   6   8
ATOM      8  N   UNL d   1     -50.885  27.022  33.752  0.00  0.00    -0.264 N 
ATOM      9  C   UNL d   1     -51.530  26.565  33.507  0.00  0.00     0.271 C 
ATOM     10  O   UNL d   1     -52.241  26.947  33.327  0.00  0.00    -0.266 OA
ATOM     11  H   UNL d   1     -50.931  27.835  33.819  0.00  0.00     0.190 HD
BRANCH   9  12
ATOM     12  C   UNL d   1     -51.473  25.756  33.444  0.00  0.00     0.057 A 
ATOM     13  C   UNL d   1     -50.712  25.426  33.454  0.00  0.00     0.005 A 
ATOM     14  C   UNL d   1     -50.622  24.606  33.391  0.00  0.00     0.000 A 
ATOM     15  C   UNL d   1     -51.274  24.112  33.319  0.00  0.00     0.000 A 
ATOM     16  C   UNL d   1     -52.045  24.457  33.310  0.00  0.00     0.000 A 
ATOM     17  C   UNL d   1     -52.136  25.271  33.372  0.00  0.00     0.005 A 
ENDBRANCH   9  12
ENDBRANCH   6   8
ENDBRANCH   2   6
BRANCH   3  18
ATOM     18  C   UNL d   1     -48.287  28.560  34.985  0.00  0.00     0.018 A 
ATOM     19  C   UNL d   1     -48.112  29.288  34.635  0.00  0.00     0.002 A 
ATOM     20  C   UNL d   1     -47.776  29.890  35.083  0.00  0.00     0.000 A 
ATOM     21  C   UNL d   1     -47.614  29.763  35.889  0.00  0.00     0.000 A 
ATOM     22  C   UNL d   1     -47.788  29.035  36.239  0.00  0.00     0.000 A 
ATOM     23  C   UNL d   1     -47.277  30.360  36.348  0.00  0.00     0.000 C 
ATOM     24  C   UNL d   1     -48.127  28.430  35.784  0.00  0.00     0.002 A 
ENDBRANCH   3  18
TORSDOF 4
ENDMDL
MODEL 4
REMARK VINA RESULT:      61.9      1.810      2.687
REMARK  4 active torsions:
REMARK  status: ('A' for Active; 'I' for Inactive)
REMARK    1  A    between atoms: N_8  and  C_2 
REMARK    2  A    between atoms: C_9  and  C_3 
REMARK       I    between atoms: C_6  and  N_7 
REMARK    3  A    between atoms: C_11  and  C_6 
REMARK    4  A    between atoms: N_7  and  N_8 
ROOT
ATOM      1  N   UNL d   1     -48.792  29.112  34.345  0.00  0.00    -0.221 NA
ATOM      2  C   UNL d   1     -48.186  29.431  34.786  0.00  0.00     0.186 A 
ATOM      3  C   UNL d   1     -48.852  28.332  34.553  0.00  0.00     0.090 A 
ATOM      4  S   UNL d   1     -47.877  28.853  35.261  0.00  0.00    -0.047 SA
ATOM      5  C   UNL d   1     -48.291  28.169  35.116  0.00  0.00     0.058 A 
ENDROOT
BRANCH   2   6
ATOM      6  N   UNL d   1     -47.922  30.228  34.758  0.00  0.00    -0.275 N 
ATOM      7  H   UNL d   1     -48.075  30.678  34.085  0.00  0.00     0.189 HD
BRANCH   6   8
ATOM      8  N   UNL d   1     -47.514  30.550  35.400  0.00  0.00    -0.264 N 
ATOM      9  C   UNL d   1     -47.324  31.355  35.388  0.00  0.00     0.271 C 
ATOM     10  O   UNL d   1     -46.916  31.677  36.032  0.00  0.00    -0.266 OA
ATOM     11  H   UNL d   1     -47.310  30.066  36.026  0.00  0.00     0.190 HD
BRANCH   9  12
ATOM     12  C   UNL d   1     -47.532  31.828  34.759  0.00  0.00     0.057 A 
ATOM     13  C   UNL d   1     -46.929  32.055  34.238  0.00  0.00     0.005 A 
ATOM     14  C   UNL d   1     -47.109  32.536  33.589  0.00  0.00     0.000 A 
ATOM     15  C   UNL d   1     -47.877  32.792  33.452  0.00  0.00     0.000 A 
ATOM     16  C   UNL d   1     -48.485  32.556  33.988  0.00  0.00     0.000 A 
ATOM     17  C   UNL d   1     -48.307  32.079  34.633  0.00  0.00     0.005 A 
ENDBRANCH   9  12
ENDBRANCH   6   8
ENDBRANCH   2   6
BRANCH   3  18
ATOM     18  C   UNL d   1     -49.396  27.797  34.241  0.00  0.00     0.018 A 
ATOM     19  C   UNL d   1     -49.225  26.989  34.257  0.00  0.00     0.002 A 
ATOM     20  C   UNL d   1     -49.763  26.449  33.947  0.00  0.00     0.000 A 
ATOM     21  C   UNL d   1     -50.477  26.721  33.619  0.00  0.00     0.000 A 
ATOM     22  C   UNL d   1     -50.647  27.529  33.603  0.00  0.00     0.000 A 
ATOM     23  C   UNL d   1     -51.024  26.189  33.306  0.00  0.00     0.000 C 
ATOM     24  C   UNL d   1     -50.102  28.070  33.916  0.00  0.00     0.002 A 
ENDBRANCH   3  18
TORSDOF 4
ENDMDL
