MODEL 1
REMARK VINA RESULT:      -7.9      0.000      0.000
REMARK  4 active torsions:
REMARK  status: ('A' for Active; 'I' for Inactive)
REMARK    1  A    between atoms: C_10  and  N_2 
REMARK    2  A    between atoms: N_6  and  C_3 
REMARK    3  A    between atoms: N_7  and  N_6 
REMARK    4  A    between atoms: C_11  and  N_7 
ROOT
ATOM      1  C   UNL d   1      53.093  33.483  53.509  0.00  0.00     0.206 A 
ATOM      2  N   UNL d   1      53.564  32.893  53.854  0.00  0.00    -0.209 N 
ATOM      3  C   UNL d   1      52.518  33.077  53.060  0.00  0.00     0.160 A 
ATOM      4  N   UNL d   1      53.297  32.176  53.632  0.00  0.00    -0.162 NA
ATOM      5  C   UNL d   1      52.652  32.271  53.143  0.00  0.00     0.124 A 
ATOM      6  N   UNL d   1      53.170  34.307  53.588  0.00  0.00    -0.125 N 
ATOM      7  C   UNL d   1      52.202  31.666  52.784  0.00  0.00     0.024 C 
ENDROOT
BRANCH   3   8
ATOM      8  N   UNL d   1      51.913  33.355  52.605  0.00  0.00    -0.143 NA
BRANCH   8   9
ATOM      9  N   UNL d   1      51.312  33.821  52.957  0.00  0.00    -0.148 NA
BRANCH   9  10
ATOM     10  C   UNL d   1      50.688  34.108  52.482  0.00  0.00     0.103 A 
ATOM     11  C   UNL d   1      50.051  34.516  52.824  0.00  0.00     0.019 A 
ATOM     12  C   UNL d   1      49.440  34.798  52.369  0.00  0.00     0.002 A 
ATOM     13  C   UNL d   1      50.041  34.640  53.656  0.00  0.00     0.002 C 
ATOM     14  C   UNL d   1      48.807  35.205  52.712  0.00  0.00     0.000 C 
ATOM     15  C   UNL d   1      49.475  34.664  51.556  0.00  0.00     0.000 A 
ATOM     16  C   UNL d   1      50.090  34.267  51.216  0.00  0.00     0.002 A 
ATOM     17  C   UNL d   1      50.703  33.987  51.688  0.00  0.00     0.021 A 
ENDBRANCH   9  10
ENDBRANCH   8   9
ENDBRANCH   3   8
BRANCH   2  18
ATOM     18  C   UNL d   1      54.177  33.165  54.329  0.00  0.00     0.085 A 
ATOM     19  C   UNL d   1      54.885  33.370  53.990  0.00  0.00     0.019 A 
ATOM     20  C   UNL d   1      55.504  33.646  54.475  0.00  0.00     0.002 A 
ATOM     21  C   UNL d   1      55.416  33.713  55.269  0.00  0.00     0.000 A 
ATOM     22  C   UNL d   1      54.697  33.506  55.622  0.00  0.00     0.002 A 
ATOM     23  C   UNL d   1      54.080  33.235  55.168  0.00  0.00     0.019 A 
ENDBRANCH   2  18
TORSDOF 4
ENDMDL
MODEL 2
REMARK VINA RESULT:      -7.7      1.426      2.323
REMARK  4 active torsions:
REMARK  status: ('A' for Active; 'I' for Inactive)
REMARK    1  A    between atoms: C_10  and  N_2 
REMARK    2  A    between atoms: N_6  and  C_3 
REMARK    3  A    between atoms: N_7  and  N_6 
REMARK    4  A    between atoms: C_11  and  N_7 
ROOT
ATOM      1  C   UNL d   1      51.862  32.896  53.243  0.00  0.00     0.206 A 
ATOM      2  N   UNL d   1      52.682  32.778  53.211  0.00  0.00    -0.209 N 
ATOM      3  C   UNL d   1      51.749  33.720  53.162  0.00  0.00     0.160 A 
ATOM      4  N   UNL d   1      53.049  33.479  53.118  0.00  0.00    -0.162 NA
ATOM      5  C   UNL d   1      52.489  34.071  53.086  0.00  0.00     0.124 A 
ATOM      6  N   UNL d   1      51.268  32.322  53.336  0.00  0.00    -0.125 N 
ATOM      7  C   UNL d   1      52.628  34.889  52.992  0.00  0.00     0.024 C 
ENDROOT
BRANCH   3   8
ATOM      8  N   UNL d   1      51.075  34.161  53.152  0.00  0.00    -0.143 NA
BRANCH   8   9
ATOM      9  N   UNL d   1      50.598  34.171  52.463  0.00  0.00    -0.148 NA
BRANCH   9  10
ATOM     10  C   UNL d   1      49.875  34.587  52.474  0.00  0.00     0.103 A 
ATOM     11  C   UNL d   1      49.386  34.602  51.803  0.00  0.00     0.019 A 
ATOM     12  C   UNL d   1      48.681  35.004  51.805  0.00  0.00     0.002 A 
ATOM     13  C   UNL d   1      49.628  34.192  51.109  0.00  0.00     0.002 C 
ATOM     14  C   UNL d   1      48.196  35.018  51.136  0.00  0.00     0.000 C 
ATOM     15  C   UNL d   1      48.467  35.398  52.498  0.00  0.00     0.000 A 
ATOM     16  C   UNL d   1      48.937  35.388  53.154  0.00  0.00     0.002 A 
ATOM     17  C   UNL d   1      49.649  34.977  53.140  0.00  0.00     0.021 A 
ENDBRANCH   9  10
ENDBRANCH   8   9
ENDBRANCH   3   8
BRANCH   2  18
ATOM     18  C   UNL d   1      52.928  31.997  53.280  0.00  0.00     0.085 A 
ATOM     19  C   UNL d   1      53.441  31.789  53.874  0.00  0.00     0.019 A 
ATOM     20  C   UNL d   1      53.687  30.996  53.941  0.00  0.00     0.002 A 
ATOM     21  C   UNL d   1      53.430  30.434  53.431  0.00  0.00     0.000 A 
ATOM     22  C   UNL d   1      52.908  30.637  52.823  0.00  0.00     0.002 A 
ATOM     23  C   UNL d   1      52.653  31.405  52.739  0.00  0.00     0.019 A 
ENDBRANCH   2  18
TORSDOF 4
ENDMDL
MODEL 3
REMARK VINA RESULT:      -7.4      1.661      2.524
REMARK  4 active torsions:
REMARK  status: ('A' for Active; 'I' for Inactive)
REMARK    1  A    between atoms: C_10  and  N_2 
REMARK    2  A    between atoms: N_6  and  C_3 
REMARK    3  A    between atoms: N_7  and  N_6 
REMARK    4  A    between atoms: C_11  and  N_7 
ROOT
ATOM      1  C   UNL d   1      52.867  31.466  53.315  0.00  0.00     0.206 A 
ATOM      2  N   UNL d   1      53.504  31.175  53.759  0.00  0.00    -0.209 N 
ATOM      3  C   UNL d   1      53.043  32.270  53.170  0.00  0.00     0.160 A 
ATOM      4  N   UNL d   1      54.035  31.757  53.878  0.00  0.00    -0.162 NA
ATOM      5  C   UNL d   1      53.766  32.440  53.521  0.00  0.00     0.124 A 
ATOM      6  N   UNL d   1      52.191  31.055  53.064  0.00  0.00    -0.125 N 
ATOM      7  C   UNL d   1      54.148  33.182  53.509  0.00  0.00     0.024 C 
ENDROOT
BRANCH   3   8
ATOM      8  N   UNL d   1      52.631  32.835  52.770  0.00  0.00    -0.143 NA
BRANCH   8   9
ATOM      9  N   UNL d   1      51.989  33.222  53.145  0.00  0.00    -0.148 NA
BRANCH   9  10
ATOM     10  C   UNL d   1      51.477  33.697  52.689  0.00  0.00     0.103 A 
ATOM     11  C   UNL d   1      50.784  34.011  53.022  0.00  0.00     0.019 A 
ATOM     12  C   UNL d   1      50.280  34.475  52.585  0.00  0.00     0.002 A 
ATOM     13  C   UNL d   1      50.603  33.845  53.827  0.00  0.00     0.002 C 
ATOM     14  C   UNL d   1      49.591  34.787  52.918  0.00  0.00     0.000 C 
ATOM     15  C   UNL d   1      50.481  34.622  51.799  0.00  0.00     0.000 A 
ATOM     16  C   UNL d   1      51.152  34.321  51.468  0.00  0.00     0.002 A 
ATOM     17  C   UNL d   1      51.655  33.853  51.920  0.00  0.00     0.021 A 
ENDBRANCH   9  10
ENDBRANCH   8   9
ENDBRANCH   3   8
BRANCH   2  18
ATOM     18  C   UNL d   1      53.453  30.383  53.969  0.00  0.00     0.085 A 
ATOM     19  C   UNL d   1      53.584  29.809  53.410  0.00  0.00     0.019 A 
ATOM     20  C   UNL d   1      53.531  29.007  53.628  0.00  0.00     0.002 A 
ATOM     21  C   UNL d   1      53.352  28.788  54.379  0.00  0.00     0.000 A 
ATOM     22  C   UNL d   1      53.216  29.366  54.954  0.00  0.00     0.002 A 
ATOM     23  C   UNL d   1      53.263  30.155  54.764  0.00  0.00     0.019 A 
ENDBRANCH   2  18
TORSDOF 4
ENDMDL
MODEL 4
REMARK VINA RESULT:      -7.2      0.792      4.618
REMARK  4 active torsions:
REMARK  status: ('A' for Active; 'I' for Inactive)
REMARK    1  A    between atoms: C_10  and  N_2 
REMARK    2  A    between atoms: N_6  and  C_3 
REMARK    3  A    between atoms: N_7  and  N_6 
REMARK    4  A    between atoms: C_11  and  N_7 
ROOT
ATOM      1  C   UNL d   1      51.286  33.992  52.851  0.00  0.00     0.206 A 
ATOM      2  N   UNL d   1      50.504  33.714  52.829  0.00  0.00    -0.209 N 
ATOM      3  C   UNL d   1      51.753  33.331  53.059  0.00  0.00     0.160 A 
ATOM      4  N   UNL d   1      50.491  32.938  53.011  0.00  0.00    -0.162 NA
ATOM      5  C   UNL d   1      51.252  32.686  53.155  0.00  0.00     0.124 A 
ATOM      6  N   UNL d   1      51.558  34.762  52.700  0.00  0.00    -0.125 N 
ATOM      7  C   UNL d   1      51.493  31.914  53.364  0.00  0.00     0.024 C 
ENDROOT
BRANCH   3   8
ATOM      8  N   UNL d   1      52.548  33.260  53.164  0.00  0.00    -0.143 NA
BRANCH   8   9
ATOM      9  N   UNL d   1      52.893  33.510  53.886  0.00  0.00    -0.148 NA
BRANCH   9  10
ATOM     10  C   UNL d   1      53.714  33.412  54.001  0.00  0.00     0.103 A 
ATOM     11  C   UNL d   1      54.081  33.698  54.689  0.00  0.00     0.019 A 
ATOM     12  C   UNL d   1      54.879  33.606  54.809  0.00  0.00     0.002 A 
ATOM     13  C   UNL d   1      53.616  34.089  55.271  0.00  0.00     0.002 C 
ATOM     14  C   UNL d   1      55.243  33.892  55.494  0.00  0.00     0.000 C 
ATOM     15  C   UNL d   1      55.312  33.220  54.223  0.00  0.00     0.000 A 
ATOM     16  C   UNL d   1      54.963  32.939  53.551  0.00  0.00     0.002 A 
ATOM     17  C   UNL d   1      54.154  33.038  53.442  0.00  0.00     0.021 A 
ENDBRANCH   9  10
ENDBRANCH   8   9
ENDBRANCH   3   8
BRANCH   2  18
ATOM     18  C   UNL d   1      49.938  34.276  52.634  0.00  0.00     0.085 A 
ATOM     19  C   UNL d   1      49.656  34.313  51.873  0.00  0.00     0.019 A 
ATOM     20  C   UNL d   1      49.081  34.885  51.680  0.00  0.00     0.002 A 
ATOM     21  C   UNL d   1      48.800  35.399  52.227  0.00  0.00     0.000 A 
ATOM     22  C   UNL d   1      49.082  35.367  53.004  0.00  0.00     0.002 A 
ATOM     23  C   UNL d   1      49.642  34.818  53.216  0.00  0.00     0.019 A 
ENDBRANCH   2  18
TORSDOF 4
ENDMDL
MODEL 5
REMARK VINA RESULT:      -7.1      1.327      4.764
REMARK  4 active torsions:
REMARK  status: ('A' for Active; 'I' for Inactive)
REMARK    1  A    between atoms: C_10  and  N_2 
REMARK    2  A    between atoms: N_6  and  C_3 
REMARK    3  A    between atoms: N_7  and  N_6 
REMARK    4  A    between atoms: C_11  and  N_7 
ROOT
ATOM      1  C   UNL d   1      51.018  33.823  53.111  0.00  0.00     0.206 A 
ATOM      2  N   UNL d   1      50.865  34.559  52.760  0.00  0.00    -0.209 N 
ATOM      3  C   UNL d   1      51.839  33.816  53.270  0.00  0.00     0.160 A 
ATOM      4  N   UNL d   1      51.542  34.975  52.707  0.00  0.00    -0.162 NA
ATOM      5  C   UNL d   1      52.153  34.532  53.017  0.00  0.00     0.124 A 
ATOM      6  N   UNL d   1      50.478  33.214  53.275  0.00  0.00    -0.125 N 
ATOM      7  C   UNL d   1      52.956  34.755  53.073  0.00  0.00     0.024 C 
ENDROOT
BRANCH   3   8
ATOM      8  N   UNL d   1      52.305  33.252  53.606  0.00  0.00    -0.143 NA
BRANCH   8   9
ATOM      9  N   UNL d   1      52.532  32.582  53.156  0.00  0.00    -0.148 NA
BRANCH   9  10
ATOM     10  C   UNL d   1      53.002  31.992  53.512  0.00  0.00     0.103 A 
ATOM     11  C   UNL d   1      52.998  31.215  53.219  0.00  0.00     0.019 A 
ATOM     12  C   UNL d   1      53.452  30.634  53.559  0.00  0.00     0.002 A 
ATOM     13  C   UNL d   1      52.513  31.028  52.557  0.00  0.00     0.002 C 
ATOM     14  C   UNL d   1      53.446  29.861  53.266  0.00  0.00     0.000 C 
ATOM     15  C   UNL d   1      53.918  30.844  54.207  0.00  0.00     0.000 A 
ATOM     16  C   UNL d   1      53.928  31.597  54.498  0.00  0.00     0.002 A 
ATOM     17  C   UNL d   1      53.464  32.176  54.144  0.00  0.00     0.021 A 
ENDBRANCH   9  10
ENDBRANCH   8   9
ENDBRANCH   3   8
BRANCH   2  18
ATOM     18  C   UNL d   1      50.082  34.692  52.553  0.00  0.00     0.085 A 
ATOM     19  C   UNL d   1      49.818  34.471  51.818  0.00  0.00     0.019 A 
ATOM     20  C   UNL d   1      49.023  34.608  51.611  0.00  0.00     0.002 A 
ATOM     21  C   UNL d   1      48.511  34.955  52.123  0.00  0.00     0.000 A 
ATOM     22  C   UNL d   1      48.772  35.184  52.873  0.00  0.00     0.002 A 
ATOM     23  C   UNL d   1      49.544  35.059  53.096  0.00  0.00     0.019 A 
ENDBRANCH   2  18
TORSDOF 4
ENDMDL
MODEL 6
REMARK VINA RESULT:      -6.9      1.940      4.739
REMARK  4 active torsions:
REMARK  status: ('A' for Active; 'I' for Inactive)
REMARK    1  A    between atoms: C_10  and  N_2 
REMARK    2  A    between atoms: N_6  and  C_3 
REMARK    3  A    between atoms: N_7  and  N_6 
REMARK    4  A    between atoms: C_11  and  N_7 
ROOT
ATOM      1  C   UNL d   1      52.393  32.590  53.033  0.00  0.00     0.206 A 
ATOM      2  N   UNL d   1      52.425  33.418  53.059  0.00  0.00    -0.209 N 
ATOM      3  C   UNL d   1      53.154  32.328  53.260  0.00  0.00     0.160 A 
ATOM      4  N   UNL d   1      53.154  33.650  53.286  0.00  0.00    -0.162 NA
ATOM      5  C   UNL d   1      53.615  32.991  53.414  0.00  0.00     0.124 A 
ATOM      6  N   UNL d   1      51.747  32.111  52.827  0.00  0.00    -0.125 N 
ATOM      7  C   UNL d   1      54.414  32.978  53.658  0.00  0.00     0.024 C 
ENDROOT
BRANCH   3   8
ATOM      8  N   UNL d   1      53.453  31.584  53.337  0.00  0.00    -0.143 NA
BRANCH   8   9
ATOM      9  N   UNL d   1      53.272  31.135  54.021  0.00  0.00    -0.148 NA
BRANCH   9  10
ATOM     10  C   UNL d   1      53.340  30.304  53.992  0.00  0.00     0.103 A 
ATOM     11  C   UNL d   1      53.328  29.854  54.690  0.00  0.00     0.019 A 
ATOM     12  C   UNL d   1      53.394  29.045  54.671  0.00  0.00     0.002 A 
ATOM     13  C   UNL d   1      53.248  30.246  55.430  0.00  0.00     0.002 C 
ATOM     14  C   UNL d   1      53.383  28.599  55.367  0.00  0.00     0.000 C 
ATOM     15  C   UNL d   1      53.472  28.685  53.932  0.00  0.00     0.000 A 
ATOM     16  C   UNL d   1      53.484  29.114  53.249  0.00  0.00     0.002 A 
ATOM     17  C   UNL d   1      53.417  29.933  53.282  0.00  0.00     0.021 A 
ENDBRANCH   9  10
ENDBRANCH   8   9
ENDBRANCH   3   8
BRANCH   2  18
ATOM     18  C   UNL d   1      51.730  33.804  52.854  0.00  0.00     0.085 A 
ATOM     19  C   UNL d   1      51.187  33.985  53.430  0.00  0.00     0.019 A 
ATOM     20  C   UNL d   1      50.482  34.376  53.218  0.00  0.00     0.002 A 
ATOM     21  C   UNL d   1      50.328  34.577  52.457  0.00  0.00     0.000 A 
ATOM     22  C   UNL d   1      50.875  34.396  51.865  0.00  0.00     0.002 A 
ATOM     23  C   UNL d   1      51.569  34.015  52.049  0.00  0.00     0.019 A 
ENDBRANCH   2  18
TORSDOF 4
ENDMDL
