MODEL 1
REMARK VINA RESULT:      -1.3      0.000      0.000
REMARK  5 active torsions:
REMARK  status: ('A' for Active; 'I' for Inactive)
REMARK    1  A    between atoms: N_7  and  C_1 
REMARK    2  A    between atoms: C_12  and  C_2 
REMARK       I    between atoms: C_8  and  N_7 
REMARK    3  A    between atoms: C_10  and  C_8 
REMARK    4  A    between atoms: N_9  and  C_16 
REMARK    5  A    between atoms: C_16  and  C_10 
ROOT
ATOM      1  C   UNL d   1      58.351  -1.165  30.227  0.00  0.00     0.142 A 
ATOM      2  C   UNL d   1      59.120  -1.191  29.924  0.00  0.00     0.024 A 
ATOM      3  C   UNL d   1      57.841  -1.778  30.111  0.00  0.00     0.297 A 
ATOM      4  C   UNL d   1      59.356  -1.857  29.500  0.00  0.00     0.020 A 
ATOM      5  N   UNL d   1      58.075  -2.449  29.686  0.00  0.00    -0.207 NA
ATOM      6  C   UNL d   1      58.836  -2.483  29.381  0.00  0.00     0.085 A 
ATOM      7  C   UNL d   1      60.123  -1.886  29.197  0.00  0.00     0.008 A 
ATOM      8  O   UNL d   1      57.071  -1.738  30.421  0.00  0.00    -0.264 OA
ATOM      9  C   UNL d   1      59.078  -3.144  28.958  0.00  0.00     0.020 A 
ATOM     10  C   UNL d   1      60.363  -2.559  28.768  0.00  0.00     0.035 A 
ATOM     11  C   UNL d   1      59.853  -3.173  28.652  0.00  0.00     0.008 A 
ATOM     12 BR   UNL d   1      61.127  -2.607  28.456  0.00  0.00    -0.049 Br
ENDROOT
BRANCH   1  13
ATOM     13  N   UNL d   1      58.095  -0.505  30.655  0.00  0.00    -0.203 NA
ATOM     14  C   UNL d   1      57.416  -0.535  31.120  0.00  0.00     0.281 C 
ATOM     15  O   UNL d   1      56.681  -0.886  31.503  0.00  0.00    -0.265 OA
BRANCH  14  16
ATOM     16  C   UNL d   1      57.162   0.120  31.544  0.00  0.00     0.082 C 
BRANCH  16  17
ATOM     17  C   UNL d   1      56.433   0.137  31.917  0.00  0.00     0.085 C 
BRANCH  17  18
ATOM     18  N   UNL d   1      56.354   0.318  32.712  0.00  0.00    -0.299 N 
ATOM     19  C   UNL d   1      57.006   0.468  33.194  0.00  0.00     0.107 A 
ATOM     20  C   UNL d   1      56.910   0.646  33.984  0.00  0.00     0.142 A 
ATOM     21  O   UNL d   1      56.144   0.679  34.315  0.00  0.00    -0.300 OA
ATOM     22  C   UNL d   1      55.510   0.534  33.850  0.00  0.00     0.142 A 
ATOM     23  C   UNL d   1      55.587   0.351  33.044  0.00  0.00     0.107 A 
ENDBRANCH  17  18
ENDBRANCH  16  17
ENDBRANCH  14  16
ENDBRANCH   1  13
BRANCH   2  24
ATOM     24  C   UNL d   1      59.635  -0.571  30.042  0.00  0.00     0.002 A 
ATOM     25  C   UNL d   1      60.055  -0.502  30.748  0.00  0.00     0.000 A 
ATOM     26  C   UNL d   1      60.577   0.127  30.868  0.00  0.00     0.000 A 
ATOM     27  C   UNL d   1      60.676   0.682  30.279  0.00  0.00     0.000 A 
ATOM     28  C   UNL d   1      60.274   0.635  29.576  0.00  0.00     0.000 A 
ATOM     29  C   UNL d   1      59.746  -0.000  29.455  0.00  0.00     0.000 A 
ENDBRANCH   2  24
TORSDOF 5
ENDMDL
