MODEL 1
REMARK VINA RESULT:      23.6      0.000      0.000
REMARK  4 active torsions:
REMARK  status: ('A' for Active; 'I' for Inactive)
REMARK    1  A    between atoms: C_6  and  C_1 
REMARK       I    between atoms: N_11  and  C_6 
REMARK    2  A    between atoms: O_14  and  C_9 
REMARK    3  A    between atoms: C_16  and  N_11 
REMARK    4  A    between atoms: C_12  and  C_16 
ROOT
ATOM      1  C   UNL d   1     -54.712-101.451 -38.367  0.00  0.00     0.121 A 
ATOM      2  C   UNL d   1     -54.713-102.120 -37.870  0.00  0.00     0.305 A 
ATOM      3  O   UNL d   1     -54.713-102.017 -37.042  0.00  0.00    -0.271 OA
ATOM      4  C   UNL d   1     -54.711-100.678 -38.040  0.00  0.00     0.012 A 
ATOM      5  C   UNL d   1     -54.713-101.259 -36.714  0.00  0.00     0.125 A 
ATOM      6  C   UNL d   1     -54.712-100.593 -37.215  0.00  0.00     0.025 A 
ATOM      7  O   UNL d   1     -54.713-102.880 -38.193  0.00  0.00    -0.259 OA
ATOM      8  C   UNL d   1     -54.713-101.157 -35.901  0.00  0.00     0.117 A 
ATOM      9  C   UNL d   1     -54.711 -99.834 -36.886  0.00  0.00     0.002 A 
ATOM     10  C   UNL d   1     -54.711 -99.739 -36.068  0.00  0.00     0.002 A 
ATOM     11  C   UNL d   1     -54.712-100.401 -35.575  0.00  0.00     0.026 A 
ENDROOT
BRANCH   1  12
ATOM     12  C   UNL d   1     -54.711-101.546 -39.186  0.00  0.00     0.284 C 
ATOM     13  O   UNL d   1     -54.711-100.884 -39.679  0.00  0.00    -0.265 OA
ATOM     14  N   UNL d   1     -54.711-102.302 -39.511  0.00  0.00    -0.206 NA
BRANCH  14  15
ATOM     15  C   UNL d   1     -54.711-102.402 -40.335  0.00  0.00     0.102 C 
BRANCH  15  16
ATOM     16  C   UNL d   1     -55.294-102.862 -40.693  0.00  0.00     0.021 C 
ATOM     17  C   UNL d   1     -55.571-102.667 -41.444  0.00  0.00     0.002 C 
ENDBRANCH  15  16
ENDBRANCH  14  15
ENDBRANCH   1  12
BRANCH   8  18
ATOM     18  O   UNL d   1     -54.714-101.819 -35.408  0.00  0.00    -0.326 OA
ATOM     19  C   UNL d   1     -55.374-102.311 -35.378  0.00  0.00     0.181 C 
ENDBRANCH   8  18
TORSDOF 4
ENDMDL
MODEL 2
REMARK VINA RESULT:      25.5      6.771      7.984
REMARK  4 active torsions:
REMARK  status: ('A' for Active; 'I' for Inactive)
REMARK    1  A    between atoms: C_6  and  C_1 
REMARK       I    between atoms: N_11  and  C_6 
REMARK    2  A    between atoms: O_14  and  C_9 
REMARK    3  A    between atoms: C_16  and  N_11 
REMARK    4  A    between atoms: C_12  and  C_16 
ROOT
ATOM      1  C   UNL d   1     -56.946 -99.223 -44.493  0.00  0.00     0.121 A 
ATOM      2  C   UNL d   1     -57.321 -99.168 -45.235  0.00  0.00     0.305 A 
ATOM      3  O   UNL d   1     -58.143 -99.037 -45.273  0.00  0.00    -0.271 OA
ATOM      4  C   UNL d   1     -57.392 -99.146 -43.785  0.00  0.00     0.012 A 
ATOM      5  C   UNL d   1     -58.587 -98.961 -44.580  0.00  0.00     0.125 A 
ATOM      6  C   UNL d   1     -58.209 -99.016 -43.840  0.00  0.00     0.025 A 
ATOM      7  O   UNL d   1     -56.882 -99.243 -45.931  0.00  0.00    -0.259 OA
ATOM      8  C   UNL d   1     -59.396 -98.832 -44.616  0.00  0.00     0.117 A 
ATOM      9  C   UNL d   1     -58.654 -98.940 -43.146  0.00  0.00     0.002 A 
ATOM     10  C   UNL d   1     -59.466 -98.810 -43.190  0.00  0.00     0.002 A 
ATOM     11  C   UNL d   1     -59.837 -98.756 -43.925  0.00  0.00     0.026 A 
ENDROOT
BRANCH   1  12
ATOM     12  C   UNL d   1     -56.133 -99.352 -44.450  0.00  0.00     0.284 C 
ATOM     13  O   UNL d   1     -55.607 -98.757 -44.671  0.00  0.00    -0.265 OA
ATOM     14  N   UNL d   1     -55.849-100.078 -44.185  0.00  0.00    -0.206 NA
BRANCH  14  15
ATOM     15  C   UNL d   1     -55.030-100.212 -44.139  0.00  0.00     0.102 C 
BRANCH  15  16
ATOM     16  C   UNL d   1     -54.748-100.958 -43.929  0.00  0.00     0.021 C 
ATOM     17  C   UNL d   1     -54.862-101.599 -44.433  0.00  0.00     0.002 C 
ENDBRANCH  15  16
ENDBRANCH  14  15
ENDBRANCH   1  12
BRANCH   8  18
ATOM     18  O   UNL d   1     -59.767 -98.777 -45.351  0.00  0.00    -0.326 OA
ATOM     19  C   UNL d   1     -59.317 -98.764 -46.041  0.00  0.00     0.181 C 
ENDBRANCH   8  18
TORSDOF 4
ENDMDL
MODEL 3
REMARK VINA RESULT:      25.9      6.575      7.741
REMARK  4 active torsions:
REMARK  status: ('A' for Active; 'I' for Inactive)
REMARK    1  A    between atoms: C_6  and  C_1 
REMARK       I    between atoms: N_11  and  C_6 
REMARK    2  A    between atoms: O_14  and  C_9 
REMARK    3  A    between atoms: C_16  and  N_11 
REMARK    4  A    between atoms: C_12  and  C_16 
ROOT
ATOM      1  C   UNL d   1     -56.978 -99.249 -44.315  0.00  0.00     0.121 A 
ATOM      2  C   UNL d   1     -57.320 -99.178 -43.559  0.00  0.00     0.305 A 
ATOM      3  O   UNL d   1     -58.139 -99.036 -43.489  0.00  0.00    -0.271 OA
ATOM      4  C   UNL d   1     -57.453 -99.178 -45.005  0.00  0.00     0.012 A 
ATOM      5  C   UNL d   1     -58.611 -98.965 -44.163  0.00  0.00     0.125 A 
ATOM      6  C   UNL d   1     -58.265 -99.037 -44.917  0.00  0.00     0.025 A 
ATOM      7  O   UNL d   1     -56.853 -99.247 -42.881  0.00  0.00    -0.259 OA
ATOM      8  C   UNL d   1     -59.416 -98.826 -44.095  0.00  0.00     0.117 A 
ATOM      9  C   UNL d   1     -58.738 -98.967 -45.593  0.00  0.00     0.002 A 
ATOM     10  C   UNL d   1     -59.546 -98.827 -45.517  0.00  0.00     0.002 A 
ATOM     11  C   UNL d   1     -59.885 -98.756 -44.768  0.00  0.00     0.026 A 
ENDROOT
BRANCH   1  12
ATOM     12  C   UNL d   1     -56.169 -99.389 -44.391  0.00  0.00     0.284 C 
ATOM     13  O   UNL d   1     -55.640 -98.757 -44.410  0.00  0.00    -0.265 OA
ATOM     14  N   UNL d   1     -55.892-100.162 -44.448  0.00  0.00    -0.206 NA
BRANCH  14  15
ATOM     15  C   UNL d   1     -55.078-100.307 -44.525  0.00  0.00     0.102 C 
BRANCH  15  16
ATOM     16  C   UNL d   1     -54.745-100.973 -44.169  0.00  0.00     0.021 C 
ATOM     17  C   UNL d   1     -54.767-101.701 -44.554  0.00  0.00     0.002 C 
ENDBRANCH  15  16
ENDBRANCH  14  15
ENDBRANCH   1  12
BRANCH   8  18
ATOM     18  O   UNL d   1     -59.755 -98.755 -43.346  0.00  0.00    -0.326 OA
ATOM     19  C   UNL d   1     -59.545 -99.280 -42.747  0.00  0.00     0.181 C 
ENDBRANCH   8  18
TORSDOF 4
ENDMDL
