MODEL 1
REMARK VINA RESULT:      -7.7      0.000      0.000
REMARK  4 active torsions:
REMARK  status: ('A' for Active; 'I' for Inactive)
REMARK    1  A    between atoms: P_2  and  C_1 
REMARK    2  A    between atoms: N_3  and  C_1 
REMARK    3  A    between atoms: C_5  and  C_1 
REMARK       I    between atoms: C_4  and  N_3 
REMARK    4  A    between atoms: C_6  and  C_4 
ROOT
ATOM      1  C   UNL d   1      53.598  32.972  54.276  0.00  0.00     0.196 C 
ENDROOT
BRANCH   1   2
ATOM      2  P   UNL d   1      53.291  33.683  53.945  0.00  0.00     0.317 P 
ATOM      3  O   UNL d   1      53.960  33.767  53.467  0.00  0.00    -0.635 OA
ATOM      4  O   UNL d   1      52.960  34.391  53.630  0.00  0.00    -0.635 OA
ATOM      5  O   UNL d   1      52.602  33.594  54.440  0.00  0.00    -0.635 OA
ENDBRANCH   1   2
BRANCH   1   6
ATOM      6  N   UNL d   1      53.277  32.220  54.097  0.00  0.00    -0.201 NA
ATOM      7  C   UNL d   1      53.654  31.729  53.569  0.00  0.00     0.255 C 
ATOM      8  O   UNL d   1      54.350  31.981  53.216  0.00  0.00    -0.270 OA
BRANCH   7   9
ATOM      9  C   UNL d   1      53.338  31.000  53.399  0.00  0.00     0.073 C 
ATOM     10  C   UNL d   1      53.659  30.325  53.749  0.00  0.00     0.009 C 
ATOM     11  C   UNL d   1      52.697  30.937  52.876  0.00  0.00     0.009 C 
ATOM     12  C   UNL d   1      53.011  30.175  53.231  0.00  0.00     0.009 C 
ENDBRANCH   7   9
ENDBRANCH   1   6
BRANCH   1  13
ATOM     13  C   UNL d   1      54.235  33.016  54.794  0.00  0.00     0.142 C 
ATOM     14 CL   UNL d   1      54.087  32.773  55.517  0.00  0.00    -0.068 Cl
ATOM     15 CL   UNL d   1      55.001  33.320  54.508  0.00  0.00    -0.068 Cl
ENDBRANCH   1  13
TORSDOF 4
ENDMDL
MODEL 2
REMARK VINA RESULT:      -7.5      1.695      2.728
REMARK  4 active torsions:
REMARK  status: ('A' for Active; 'I' for Inactive)
REMARK    1  A    between atoms: P_2  and  C_1 
REMARK    2  A    between atoms: N_3  and  C_1 
REMARK    3  A    between atoms: C_5  and  C_1 
REMARK       I    between atoms: C_4  and  N_3 
REMARK    4  A    between atoms: C_6  and  C_4 
ROOT
ATOM      1  C   UNL d   1      53.670  32.453  53.543  0.00  0.00     0.196 C 
ENDROOT
BRANCH   1   2
ATOM      2  P   UNL d   1      53.535  31.626  53.632  0.00  0.00     0.317 P 
ATOM      3  O   UNL d   1      53.610  31.688  54.453  0.00  0.00    -0.635 OA
ATOM      4  O   UNL d   1      53.396  30.797  53.692  0.00  0.00    -0.635 OA
ATOM      5  O   UNL d   1      53.457  31.567  52.785  0.00  0.00    -0.635 OA
ENDBRANCH   1   2
BRANCH   1   6
ATOM      6  N   UNL d   1      53.122  32.958  53.162  0.00  0.00    -0.201 NA
ATOM      7  C   UNL d   1      52.613  33.416  53.602  0.00  0.00     0.255 C 
ATOM      8  O   UNL d   1      52.645  33.375  54.419  0.00  0.00    -0.270 OA
BRANCH   7   9
ATOM      9  C   UNL d   1      52.082  33.904  53.226  0.00  0.00     0.073 C 
ATOM     10  C   UNL d   1      51.302  33.655  53.122  0.00  0.00     0.009 C 
ATOM     11  C   UNL d   1      52.326  34.648  52.950  0.00  0.00     0.009 C 
ATOM     12  C   UNL d   1      51.468  34.422  52.813  0.00  0.00     0.009 C 
ENDBRANCH   7   9
ENDBRANCH   1   6
BRANCH   1  13
ATOM     13  C   UNL d   1      54.364  32.777  53.840  0.00  0.00     0.142 C 
ATOM     14 CL   UNL d   1      54.903  32.943  53.305  0.00  0.00    -0.068 Cl
ATOM     15 CL   UNL d   1      54.446  32.907  54.698  0.00  0.00    -0.068 Cl
ENDBRANCH   1  13
TORSDOF 4
ENDMDL
MODEL 3
REMARK VINA RESULT:      -7.4      1.913      2.119
REMARK  4 active torsions:
REMARK  status: ('A' for Active; 'I' for Inactive)
REMARK    1  A    between atoms: P_2  and  C_1 
REMARK    2  A    between atoms: N_3  and  C_1 
REMARK    3  A    between atoms: C_5  and  C_1 
REMARK       I    between atoms: C_4  and  N_3 
REMARK    4  A    between atoms: C_6  and  C_4 
ROOT
ATOM      1  C   UNL d   1      52.145  33.718  53.419  0.00  0.00     0.196 C 
ENDROOT
BRANCH   1   2
ATOM      2  P   UNL d   1      52.558  34.429  53.599  0.00  0.00     0.317 P 
ATOM      3  O   UNL d   1      52.623  34.612  52.795  0.00  0.00    -0.635 OA
ATOM      4  O   UNL d   1      52.970  35.135  53.807  0.00  0.00    -0.635 OA
ATOM      5  O   UNL d   1      52.491  34.238  54.427  0.00  0.00    -0.635 OA
ENDBRANCH   1   2
BRANCH   1   6
ATOM      6  N   UNL d   1      52.446  32.963  53.619  0.00  0.00    -0.201 NA
ATOM      7  C   UNL d   1      52.812  32.505  53.053  0.00  0.00     0.255 C 
ATOM      8  O   UNL d   1      52.880  32.794  52.289  0.00  0.00    -0.270 OA
BRANCH   7   9
ATOM      9  C   UNL d   1      53.102  31.773  53.252  0.00  0.00     0.073 C 
ATOM     10  C   UNL d   1      52.720  31.095  52.978  0.00  0.00     0.009 C 
ATOM     11  C   UNL d   1      53.779  31.710  53.729  0.00  0.00     0.009 C 
ATOM     12  C   UNL d   1      53.399  30.944  53.456  0.00  0.00     0.009 C 
ENDBRANCH   7   9
ENDBRANCH   1   6
BRANCH   1  13
ATOM     13  C   UNL d   1      51.420  33.765  53.034  0.00  0.00     0.142 C 
ATOM     14 CL   UNL d   1      50.813  33.509  53.447  0.00  0.00    -0.068 Cl
ATOM     15 CL   UNL d   1      51.383  34.085  52.225  0.00  0.00    -0.068 Cl
ENDBRANCH   1  13
TORSDOF 4
ENDMDL
MODEL 4
REMARK VINA RESULT:      -7.3      1.960      2.749
REMARK  4 active torsions:
REMARK  status: ('A' for Active; 'I' for Inactive)
REMARK    1  A    between atoms: P_2  and  C_1 
REMARK    2  A    between atoms: N_3  and  C_1 
REMARK    3  A    between atoms: C_5  and  C_1 
REMARK       I    between atoms: C_4  and  N_3 
REMARK    4  A    between atoms: C_6  and  C_4 
ROOT
ATOM      1  C   UNL d   1      52.601  32.673  53.403  0.00  0.00     0.196 C 
ENDROOT
BRANCH   1   2
ATOM      2  P   UNL d   1      52.638  31.973  52.935  0.00  0.00     0.317 P 
ATOM      3  O   UNL d   1      52.876  32.410  52.274  0.00  0.00    -0.635 OA
ATOM      4  O   UNL d   1      52.667  31.258  52.490  0.00  0.00    -0.635 OA
ATOM      5  O   UNL d   1      52.393  31.526  53.618  0.00  0.00    -0.635 OA
ENDBRANCH   1   2
BRANCH   1   6
ATOM      6  N   UNL d   1      53.085  32.787  54.076  0.00  0.00    -0.201 NA
ATOM      7  C   UNL d   1      53.811  33.148  54.002  0.00  0.00     0.255 C 
ATOM      8  O   UNL d   1      54.059  33.398  53.261  0.00  0.00    -0.270 OA
BRANCH   7   9
ATOM      9  C   UNL d   1      54.277  33.256  54.659  0.00  0.00     0.073 C 
ATOM     10  C   UNL d   1      54.896  33.802  54.634  0.00  0.00     0.009 C 
ATOM     11  C   UNL d   1      54.130  32.820  55.349  0.00  0.00     0.009 C 
ATOM     12  C   UNL d   1      54.814  33.401  55.371  0.00  0.00     0.009 C 
ENDBRANCH   7   9
ENDBRANCH   1   6
BRANCH   1  13
ATOM     13  C   UNL d   1      52.072  33.265  53.192  0.00  0.00     0.142 C 
ATOM     14 CL   UNL d   1      51.450  33.328  53.655  0.00  0.00    -0.068 Cl
ATOM     15 CL   UNL d   1      52.236  33.762  52.495  0.00  0.00    -0.068 Cl
ENDBRANCH   1  13
TORSDOF 4
ENDMDL
