MODEL 1
REMARK VINA RESULT:      11.3      0.000      0.000
REMARK  2 active torsions:
REMARK  status: ('A' for Active; 'I' for Inactive)
REMARK    1  A    between atoms: CA_2  and  C_1 
REMARK    2  A    between atoms: C_3  and  CA_2 
ROOT
ATOM      1  C   UNL d   1     -54.961-101.649 -36.728  0.00  0.00     0.053 A 
ATOM      2  C   UNL d   1     -55.284-102.011 -36.054  0.00  0.00     0.142 A 
ATOM      3  F   UNL d   1     -55.531-102.798 -36.090  0.00  0.00    -0.204 F 
ATOM      4  C   UNL d   1     -54.711-100.855 -36.692  0.00  0.00     0.004 A 
ATOM      5  C   UNL d   1     -55.355-101.580 -35.352  0.00  0.00     0.030 A 
ATOM      6  C   UNL d   1     -54.787-100.430 -35.981  0.00  0.00     0.000 A 
ATOM      7  C   UNL d   1     -55.108-100.793 -35.316  0.00  0.00     0.002 A 
ENDROOT
BRANCH   1   8
ATOM      8  CA  UNL d   1     -54.887-102.073 -37.430  0.00  0.00     0.169 C 
ATOM      9  N   UNL d   1     -54.716-102.879 -37.411  0.00  0.00    -0.142 N 
BRANCH   8  10
ATOM     10  C   UNL d   1     -54.986-101.686 -38.151  0.00  0.00     0.231 C 
ATOM     11  O   UNL d   1     -55.301-102.082 -38.800  0.00  0.00    -0.643 OA
ATOM     12  OXT UNL d   1     -54.767-100.893 -38.225  0.00  0.00    -0.643 OA
ENDBRANCH   8  10
ENDBRANCH   1   8
TORSDOF 2
ENDMDL
MODEL 2
REMARK VINA RESULT:      12.5      8.143      8.672
REMARK  2 active torsions:
REMARK  status: ('A' for Active; 'I' for Inactive)
REMARK    1  A    between atoms: CA_2  and  C_1 
REMARK    2  A    between atoms: C_3  and  CA_2 
ROOT
ATOM      1  C   UNL d   1     -58.516 -98.856 -43.995  0.00  0.00     0.053 A 
ATOM      2  C   UNL d   1     -58.431 -98.877 -44.822  0.00  0.00     0.142 A 
ATOM      3  F   UNL d   1     -59.100 -98.935 -45.301  0.00  0.00    -0.204 F 
ATOM      4  C   UNL d   1     -57.841 -98.798 -43.511  0.00  0.00     0.004 A 
ATOM      5  C   UNL d   1     -57.676 -98.839 -45.156  0.00  0.00     0.030 A 
ATOM      6  C   UNL d   1     -57.086 -98.760 -43.858  0.00  0.00     0.000 A 
ATOM      7  C   UNL d   1     -57.007 -98.781 -44.677  0.00  0.00     0.002 A 
ENDROOT
BRANCH   1   8
ATOM      8  CA  UNL d   1     -59.265 -98.893 -43.656  0.00  0.00     0.169 C 
ATOM      9  N   UNL d   1     -59.937 -98.756 -44.116  0.00  0.00    -0.142 N 
BRANCH   8  10
ATOM     10  C   UNL d   1     -59.341 -99.069 -42.854  0.00  0.00     0.231 C 
ATOM     11  O   UNL d   1     -59.948 -99.556 -42.587  0.00  0.00    -0.643 OA
ATOM     12  OXT UNL d   1     -58.801 -98.755 -42.313  0.00  0.00    -0.643 OA
ENDBRANCH   8  10
ENDBRANCH   1   8
TORSDOF 2
ENDMDL
