MODEL 1
REMARK VINA RESULT:      75.8      0.000      0.000
REMARK  1 active torsions:
REMARK  status: ('A' for Active; 'I' for Inactive)
REMARK    1  A    between atoms: C_7  and  C_1 
ROOT
ATOM      1  C   UNL d   1      58.612  49.684  53.367  0.00  0.00     0.062 A 
ATOM      2  C   UNL d   1      58.738  49.677  54.178  0.00  0.00     0.202 A 
ATOM      3  C   UNL d   1      58.121  49.682  54.710  0.00  0.00     0.101 A 
ATOM      4  C   UNL d   1      57.827  49.697  53.079  0.00  0.00     0.103 A 
ATOM      5  C   UNL d   1      57.336  49.696  54.423  0.00  0.00     0.109 A 
ATOM      6  O   UNL d   1      57.188  49.703  53.611  0.00  0.00    -0.307 OA
ATOM      7  C   UNL d   1      58.255  49.675  55.500  0.00  0.00     0.204 A 
ATOM      8  C   UNL d   1      56.704  49.702  54.932  0.00  0.00     0.067 A 
ATOM      9  C   UNL d   1      57.636  49.681  56.035  0.00  0.00     0.084 A 
ATOM     10  O   UNL d   1      59.519  49.664  54.464  0.00  0.00    -0.286 OA
ATOM     11  C   UNL d   1      56.851  49.694  55.748  0.00  0.00     0.201 A 
ATOM     12  O   UNL d   1      59.035  49.662  55.785  0.00  0.00    -0.286 OA
ATOM     13  C   UNL d   1      57.681  49.705  52.263  0.00  0.00     0.027 C 
ATOM     14  O   UNL d   1      56.214  49.700  56.273  0.00  0.00    -0.286 OA
ENDROOT
BRANCH   1  15
ATOM     15  C   UNL d   1      59.250  49.678  52.837  0.00  0.00     0.007 A 
ATOM     16  C   UNL d   1      59.097  49.650  52.042  0.00  0.00     0.027 A 
ATOM     17  C   UNL d   1      59.733  49.644  51.517  0.00  0.00     0.123 A 
ATOM     18  O   UNL d   1      59.465  49.615  50.746  0.00  0.00    -0.303 OA
ATOM     19  C   UNL d   1      60.495  49.666  51.796  0.00  0.00     0.123 A 
ATOM     20  C   UNL d   1      59.901  49.601  50.060  0.00  0.00     0.125 A 
ATOM     21  C   UNL d   1      60.720  49.612  49.976  0.00  0.00     0.053 A 
ATOM     22  C   UNL d   1      61.299  49.641  50.571  0.00  0.00     0.125 A 
ATOM     23  O   UNL d   1      61.197  49.665  51.379  0.00  0.00    -0.303 OA
ATOM     24  C   UNL d   1      60.643  49.694  52.606  0.00  0.00     0.027 A 
ATOM     25  C   UNL d   1      60.004  49.700  53.135  0.00  0.00     0.002 A 
ENDBRANCH   1  15
TORSDOF 1
ENDMDL
