MODEL 1
REMARK VINA RESULT:      66.3      0.000      0.000
REMARK  9 active torsions:
REMARK  status: ('A' for Active; 'I' for Inactive)
REMARK    1  A    between atoms: C_11  and  C_3 
REMARK    2  A    between atoms: C_12  and  N_6 
REMARK    3  A    between atoms: C_15  and  C_7 
REMARK    4  A    between atoms: O_24  and  C_11 
REMARK    5  A    between atoms: C_23  and  C_12 
REMARK    6  A    between atoms: O_26  and  C_14 
REMARK    7  A    between atoms: O_28  and  C_17 
REMARK    8  A    between atoms: C_22  and  C_23 
REMARK    9  A    between atoms: C_32  and  O_24 
ROOT
ATOM      1  C   UNL d   1      13.678  12.989  -2.815  0.00  0.00     0.080 A 
ATOM      2  C   UNL d   1      13.984  13.406  -2.167  0.00  0.00     0.267 A 
ATOM      3  C   UNL d   1      13.236  12.990  -4.168  0.00  0.00     0.107 A 
ATOM      4  C   UNL d   1      13.514  12.186  -2.760  0.00  0.00     0.108 A 
ATOM      5  C   UNL d   1      13.073  12.188  -4.113  0.00  0.00     0.208 A 
ATOM      6  N   UNL d   1      14.124  13.004  -1.458  0.00  0.00    -0.273 N 
ATOM      7  C   UNL d   1      13.542  13.397  -3.514  0.00  0.00     0.017 A 
ATOM      8  O   UNL d   1      13.212  11.781  -3.406  0.00  0.00    -0.288 OA
ATOM      9  C   UNL d   1      13.658  11.786  -2.042  0.00  0.00     0.043 A 
ATOM     10  C   UNL d   1      13.964  12.203  -1.395  0.00  0.00     0.069 A 
ATOM     11  O   UNL d   1      14.148  14.212  -2.224  0.00  0.00    -0.267 OA
ATOM     12  N   UNL d   1      12.769  11.780  -4.762  0.00  0.00    -0.121 N 
ATOM     13  C   UNL d   1      14.105  11.802  -0.686  0.00  0.00     0.019 C 
ENDROOT
BRANCH   6  14
ATOM     14  C   UNL d   1      14.430  13.422  -0.810  0.00  0.00     0.083 C 
BRANCH  14  15
ATOM     15  C   UNL d   1      15.242  13.392  -0.659  0.00  0.00     0.019 C 
BRANCH  15  16
ATOM     16  C   UNL d   1      15.635  14.104  -0.499  0.00  0.00     0.004 A 
ATOM     17  C   UNL d   1      15.252  14.809  -0.611  0.00  0.00     0.026 A 
ATOM     18  C   UNL d   1      15.641  15.514  -0.453  0.00  0.00     0.116 A 
ATOM     19  C   UNL d   1      16.427  15.504  -0.177  0.00  0.00     0.116 A 
ATOM     20  C   UNL d   1      16.806  14.783  -0.067  0.00  0.00     0.026 A 
ATOM     21  C   UNL d   1      16.414  14.081  -0.226  0.00  0.00     0.002 A 
BRANCH  18  22
ATOM     22  O   UNL d   1      15.259  16.241  -0.564  0.00  0.00    -0.326 OA
ATOM     23  C   UNL d   1      14.447  16.283  -0.480  0.00  0.00     0.181 C 
ENDBRANCH  18  22
BRANCH  19  24
ATOM     24  O   UNL d   1      16.825  16.208  -0.016  0.00  0.00    -0.326 OA
ATOM     25  C   UNL d   1      16.630  16.894  -0.421  0.00  0.00     0.181 C 
ENDBRANCH  19  24
ENDBRANCH  15  16
ENDBRANCH  14  15
ENDBRANCH   6  14
BRANCH   7  26
ATOM     26  C   UNL d   1      13.705  14.202  -3.571  0.00  0.00     0.020 A 
ATOM     27  C   UNL d   1      14.478  14.459  -3.640  0.00  0.00     0.099 A 
ATOM     28  N   UNL d   1      14.645  15.256  -3.697  0.00  0.00    -0.242 NA
ATOM     29  C   UNL d   1      14.024  15.811  -3.685  0.00  0.00     0.099 A 
ATOM     30  C   UNL d   1      13.242  15.546  -3.615  0.00  0.00     0.021 A 
ATOM     31  C   UNL d   1      13.082  14.743  -3.558  0.00  0.00     0.003 A 
ENDBRANCH   7  26
BRANCH   3  32
ATOM     32  C   UNL d   1      13.097  13.397  -4.876  0.00  0.00     0.304 C 
ATOM     33  O   UNL d   1      12.898  14.193  -4.863  0.00  0.00    -0.259 OA
BRANCH  32  34
ATOM     34  O   UNL d   1      13.160  12.998  -5.591  0.00  0.00    -0.271 OA
BRANCH  34  35
ATOM     35  C   UNL d   1      13.893  12.752  -5.889  0.00  0.00     0.126 C 
ATOM     36  C   UNL d   1      13.927  12.100  -6.385  0.00  0.00     0.029 C 
ENDBRANCH  34  35
ENDBRANCH  32  34
ENDBRANCH   3  32
TORSDOF 9
ENDMDL
MODEL 2
REMARK VINA RESULT:      66.8      2.180      4.596
REMARK  9 active torsions:
REMARK  status: ('A' for Active; 'I' for Inactive)
REMARK    1  A    between atoms: C_11  and  C_3 
REMARK    2  A    between atoms: C_12  and  N_6 
REMARK    3  A    between atoms: C_15  and  C_7 
REMARK    4  A    between atoms: O_24  and  C_11 
REMARK    5  A    between atoms: C_23  and  C_12 
REMARK    6  A    between atoms: O_26  and  C_14 
REMARK    7  A    between atoms: O_28  and  C_17 
REMARK    8  A    between atoms: C_22  and  C_23 
REMARK    9  A    between atoms: C_32  and  O_24 
ROOT
ATOM      1  C   UNL d   1      14.497  14.532  -2.267  0.00  0.00     0.080 A 
ATOM      2  C   UNL d   1      14.280  14.938  -2.957  0.00  0.00     0.267 A 
ATOM      3  C   UNL d   1      14.529  13.317  -1.525  0.00  0.00     0.107 A 
ATOM      4  C   UNL d   1      14.883  14.919  -1.655  0.00  0.00     0.108 A 
ATOM      5  C   UNL d   1      14.915  13.704  -0.913  0.00  0.00     0.208 A 
ATOM      6  N   UNL d   1      14.457  15.742  -3.024  0.00  0.00    -0.273 N 
ATOM      7  C   UNL d   1      14.317  13.733  -2.210  0.00  0.00     0.017 A 
ATOM      8  O   UNL d   1      15.095  14.510  -0.976  0.00  0.00    -0.288 OA
ATOM      9  C   UNL d   1      15.059  15.731  -1.729  0.00  0.00     0.043 A 
ATOM     10  C   UNL d   1      14.843  16.136  -2.418  0.00  0.00     0.069 A 
ATOM     11  O   UNL d   1      13.892  14.547  -3.571  0.00  0.00    -0.267 OA
ATOM     12  N   UNL d   1      15.127  13.294  -0.230  0.00  0.00    -0.121 N 
ATOM     13  C   UNL d   1      15.019  16.941  -2.486  0.00  0.00     0.019 C 
ENDROOT
BRANCH   6  14
ATOM     14  C   UNL d   1      14.240  16.147  -3.714  0.00  0.00     0.083 C 
BRANCH  14  15
ATOM     15  C   UNL d   1      14.814  16.570  -4.131  0.00  0.00     0.019 C 
BRANCH  15  16
ATOM     16  C   UNL d   1      14.560  17.128  -4.689  0.00  0.00     0.004 A 
ATOM     17  C   UNL d   1      14.849  17.885  -4.662  0.00  0.00     0.026 A 
ATOM     18  C   UNL d   1      14.598  18.437  -5.214  0.00  0.00     0.116 A 
ATOM     19  C   UNL d   1      14.047  18.220  -5.801  0.00  0.00     0.116 A 
ATOM     20  C   UNL d   1      13.761  17.449  -5.819  0.00  0.00     0.026 A 
ATOM     21  C   UNL d   1      14.014  16.900  -5.265  0.00  0.00     0.002 A 
BRANCH  18  22
ATOM     22  O   UNL d   1      14.886  19.213  -5.196  0.00  0.00    -0.326 OA
ATOM     23  C   UNL d   1      15.493  19.427  -5.701  0.00  0.00     0.181 C 
ENDBRANCH  18  22
BRANCH  19  24
ATOM     24  O   UNL d   1      13.790  18.769  -6.359  0.00  0.00    -0.326 OA
ATOM     25  C   UNL d   1      13.713  19.560  -6.155  0.00  0.00     0.181 C 
ENDBRANCH  19  24
ENDBRANCH  15  16
ENDBRANCH  14  15
ENDBRANCH   6  14
BRANCH   7  26
ATOM     26  C   UNL d   1      13.929  13.343  -2.823  0.00  0.00     0.020 A 
ATOM     27  C   UNL d   1      13.205  12.988  -2.689  0.00  0.00     0.099 A 
ATOM     28  N   UNL d   1      12.817  12.601  -3.294  0.00  0.00    -0.242 NA
ATOM     29  C   UNL d   1      13.161  12.566  -4.051  0.00  0.00     0.099 A 
ATOM     30  C   UNL d   1      13.895  12.926  -4.182  0.00  0.00     0.021 A 
ATOM     31  C   UNL d   1      14.280  13.315  -3.570  0.00  0.00     0.003 A 
ENDBRANCH   7  26
BRANCH   3  32
ATOM     32  C   UNL d   1      14.349  12.511  -1.462  0.00  0.00     0.304 C 
ATOM     33  O   UNL d   1      14.430  12.017  -2.113  0.00  0.00    -0.259 OA
BRANCH  32  34
ATOM     34  O   UNL d   1      14.089  12.210  -0.743  0.00  0.00    -0.271 OA
BRANCH  34  35
ATOM     35  C   UNL d   1      13.385  11.780  -0.680  0.00  0.00     0.126 C 
ATOM     36  C   UNL d   1      12.916  11.870  -0.014  0.00  0.00     0.029 C 
ENDBRANCH  34  35
ENDBRANCH  32  34
ENDBRANCH   3  32
TORSDOF 9
ENDMDL
