MODEL 1
REMARK VINA RESULT:      70.2      0.000      0.000
REMARK  13 active torsions:
REMARK  status: ('A' for Active; 'I' for Inactive)
REMARK    1  A    between atoms: C_21  and  N_1 
REMARK    2  A    between atoms: C_7  and  N_3 
REMARK    3  A    between atoms: C_8  and  C_7 
REMARK       I    between atoms: N_12  and  C_8 
REMARK    4  A    between atoms: C_11  and  C_22 
REMARK    5  A    between atoms: C_26  and  N_12 
REMARK    6  A    between atoms: C_27  and  N_12 
REMARK    7  A    between atoms: C_13  and  C_25 
REMARK       I    between atoms: N_15  and  C_13 
REMARK    8  A    between atoms: C_22  and  N_15 
REMARK    9  A    between atoms: C_28  and  C_21 
REMARK   10  A    between atoms: C_25  and  C_31 
REMARK   11  A    between atoms: C_29  and  C_26 
REMARK   12  A    between atoms: C_30  and  C_27 
REMARK   13  A    between atoms: C_31  and  C_28 
ROOT
ATOM      1  N   UNL d   1     -50.063  26.174  33.521  0.00  0.00    -0.226 N 
ATOM      2  C   UNL d   1     -50.850  25.928  33.521  0.00  0.00     0.342 A 
ATOM      3  N   UNL d   1     -51.030  25.119  33.466  0.00  0.00    -0.254 N 
ATOM      4  C   UNL d   1     -49.455  25.611  33.467  0.00  0.00     0.270 A 
ATOM      5  C   UNL d   1     -49.637  24.810  33.413  0.00  0.00     0.073 A 
ATOM      6  C   UNL d   1     -50.424  24.564  33.413  0.00  0.00     0.073 A 
ATOM      7  O   UNL d   1     -51.462  26.486  33.574  0.00  0.00    -0.245 OA
ATOM      8  O   UNL d   1     -48.668  25.857  33.468  0.00  0.00    -0.266 OA
ATOM      9  C   UNL d   1     -49.031  24.255  33.360  0.00  0.00     0.006 A 
ATOM     10  C   UNL d   1     -50.606  23.763  33.359  0.00  0.00     0.018 A 
ATOM     11  C   UNL d   1     -49.213  23.454  33.306  0.00  0.00     0.000 A 
ATOM     12  C   UNL d   1     -50.000  23.208  33.306  0.00  0.00     0.002 A 
ENDROOT
BRANCH   1  13
ATOM     13  C   UNL d   1     -49.883  26.980  33.575  0.00  0.00     0.087 C 
BRANCH  13  14
ATOM     14  C   UNL d   1     -49.148  27.226  33.857  0.00  0.00     0.019 C 
BRANCH  14  15
ATOM     15  C   UNL d   1     -49.063  27.957  34.227  0.00  0.00     0.006 C 
BRANCH  15  16
ATOM     16  C   UNL d   1     -48.622  28.019  34.931  0.00  0.00     0.063 C 
BRANCH  16  17
ATOM     17  C   UNL d   1     -48.518  28.753  35.290  0.00  0.00     0.279 C 
ATOM     18  N   UNL d   1     -48.338  29.416  34.832  0.00  0.00    -0.204 NA
ATOM     19  O   UNL d   1     -48.595  28.826  36.110  0.00  0.00    -0.265 OA
BRANCH  18  20
ATOM     20  C   UNL d   1     -48.235  30.149  35.191  0.00  0.00     0.127 C 
BRANCH  20  21
ATOM     21  C   UNL d   1     -47.637  30.659  34.928  0.00  0.00     0.119 A 
ATOM     22  O   UNL d   1     -47.739  31.457  34.719  0.00  0.00    -0.304 OA
ATOM     23  C   UNL d   1     -46.995  31.753  34.489  0.00  0.00     0.123 A 
ATOM     24  C   UNL d   1     -46.441  31.140  34.558  0.00  0.00     0.029 A 
ATOM     25  C   UNL d   1     -46.837  30.464  34.830  0.00  0.00     0.028 A 
ENDBRANCH  20  21
ENDBRANCH  18  20
ENDBRANCH  16  17
ENDBRANCH  15  16
ENDBRANCH  14  15
ENDBRANCH  13  14
ENDBRANCH   1  13
BRANCH   3  26
ATOM     26  C   UNL d   1     -51.818  24.873  33.466  0.00  0.00     0.146 C 
BRANCH  26  27
ATOM     27  C   UNL d   1     -52.247  24.865  34.168  0.00  0.00     0.283 C 
ATOM     28  N   UNL d   1     -53.035  24.607  34.169  0.00  0.00    -0.271 N 
ATOM     29  O   UNL d   1     -51.894  25.114  34.868  0.00  0.00    -0.265 OA
BRANCH  28  30
ATOM     30  C   UNL d   1     -53.466  24.599  34.871  0.00  0.00     0.083 C 
BRANCH  30  31
ATOM     31  C   UNL d   1     -53.634  23.884  35.245  0.00  0.00     0.019 C 
ATOM     32  C   UNL d   1     -54.314  23.808  35.703  0.00  0.00     0.002 C 
ENDBRANCH  30  31
ENDBRANCH  28  30
BRANCH  28  33
ATOM     33  C   UNL d   1     -53.390  24.358  33.468  0.00  0.00     0.083 C 
BRANCH  33  34
ATOM     34  C   UNL d   1     -53.455  23.554  33.306  0.00  0.00     0.019 C 
ATOM     35  C   UNL d   1     -54.198  23.190  33.318  0.00  0.00     0.002 C 
ENDBRANCH  33  34
ENDBRANCH  28  33
ENDBRANCH  26  27
ENDBRANCH   3  26
TORSDOF 13
ENDMDL
MODEL 2
REMARK VINA RESULT:      72.9      1.472      7.398
REMARK  13 active torsions:
REMARK  status: ('A' for Active; 'I' for Inactive)
REMARK    1  A    between atoms: C_21  and  N_1 
REMARK    2  A    between atoms: C_7  and  N_3 
REMARK    3  A    between atoms: C_8  and  C_7 
REMARK       I    between atoms: N_12  and  C_8 
REMARK    4  A    between atoms: C_11  and  C_22 
REMARK    5  A    between atoms: C_26  and  N_12 
REMARK    6  A    between atoms: C_27  and  N_12 
REMARK    7  A    between atoms: C_13  and  C_25 
REMARK       I    between atoms: N_15  and  C_13 
REMARK    8  A    between atoms: C_22  and  N_15 
REMARK    9  A    between atoms: C_28  and  C_21 
REMARK   10  A    between atoms: C_25  and  C_31 
REMARK   11  A    between atoms: C_29  and  C_26 
REMARK   12  A    between atoms: C_30  and  C_27 
REMARK   13  A    between atoms: C_31  and  C_28 
ROOT
ATOM      1  N   UNL d   1     -48.028  29.068  34.933  0.00  0.00    -0.226 N 
ATOM      2  C   UNL d   1     -47.911  29.764  34.507  0.00  0.00     0.342 A 
ATOM      3  N   UNL d   1     -47.519  30.405  34.862  0.00  0.00    -0.254 N 
ATOM      4  C   UNL d   1     -47.754  29.013  35.715  0.00  0.00     0.270 A 
ATOM      5  C   UNL d   1     -47.366  29.649  36.064  0.00  0.00     0.073 A 
ATOM      6  C   UNL d   1     -47.248  30.345  35.637  0.00  0.00     0.073 A 
ATOM      7  O   UNL d   1     -48.183  29.825  33.725  0.00  0.00    -0.245 OA
ATOM      8  O   UNL d   1     -47.871  28.316  36.142  0.00  0.00    -0.266 OA
ATOM      9  C   UNL d   1     -47.095  29.590  36.839  0.00  0.00     0.006 A 
ATOM     10  C   UNL d   1     -46.860  30.983  35.986  0.00  0.00     0.018 A 
ATOM     11  C   UNL d   1     -46.707  30.227  37.187  0.00  0.00     0.000 A 
ATOM     12  C   UNL d   1     -46.590  30.923  36.761  0.00  0.00     0.002 A 
ENDROOT
BRANCH   1  13
ATOM     13  C   UNL d   1     -48.418  28.430  34.581  0.00  0.00     0.087 C 
BRANCH  13  14
ATOM     14  C   UNL d   1     -49.012  28.026  34.988  0.00  0.00     0.019 C 
BRANCH  14  15
ATOM     15  C   UNL d   1     -49.166  27.233  34.828  0.00  0.00     0.006 C 
BRANCH  15  16
ATOM     16  C   UNL d   1     -49.620  27.022  34.162  0.00  0.00     0.063 C 
BRANCH  16  17
ATOM     17  C   UNL d   1     -49.625  26.243  33.895  0.00  0.00     0.279 C 
ATOM     18  N   UNL d   1     -50.327  25.900  33.631  0.00  0.00    -0.204 NA
ATOM     19  O   UNL d   1     -48.924  25.803  33.892  0.00  0.00    -0.265 OA
BRANCH  18  20
ATOM     20  C   UNL d   1     -50.331  25.122  33.365  0.00  0.00     0.127 C 
BRANCH  20  21
ATOM     21  C   UNL d   1     -51.032  24.679  33.388  0.00  0.00     0.119 A 
ATOM     22  O   UNL d   1     -51.797  24.988  33.486  0.00  0.00    -0.304 OA
ATOM     23  C   UNL d   1     -52.329  24.347  33.475  0.00  0.00     0.123 A 
ATOM     24  C   UNL d   1     -51.892  23.651  33.371  0.00  0.00     0.029 A 
ATOM     25  C   UNL d   1     -51.090  23.855  33.317  0.00  0.00     0.028 A 
ENDBRANCH  20  21
ENDBRANCH  18  20
ENDBRANCH  16  17
ENDBRANCH  15  16
ENDBRANCH  14  15
ENDBRANCH  13  14
ENDBRANCH   1  13
BRANCH   3  26
ATOM     26  C   UNL d   1     -47.401  31.101  34.435  0.00  0.00     0.146 C 
BRANCH  26  27
ATOM     27  C   UNL d   1     -47.955  31.709  34.478  0.00  0.00     0.283 C 
ATOM     28  N   UNL d   1     -47.810  32.431  34.096  0.00  0.00    -0.271 N 
ATOM     29  O   UNL d   1     -48.652  31.600  34.900  0.00  0.00    -0.265 OA
BRANCH  28  30
ATOM     30  C   UNL d   1     -48.362  33.039  34.138  0.00  0.00     0.083 C 
BRANCH  30  31
ATOM     31  C   UNL d   1     -49.167  32.865  34.195  0.00  0.00     0.019 C 
ATOM     32  C   UNL d   1     -49.703  33.455  34.399  0.00  0.00     0.002 C 
ENDBRANCH  30  31
ENDBRANCH  28  30
BRANCH  28  33
ATOM     33  C   UNL d   1     -47.111  32.540  33.673  0.00  0.00     0.083 C 
BRANCH  33  34
ATOM     34  C   UNL d   1     -46.883  33.299  33.449  0.00  0.00     0.019 C 
ATOM     35  C   UNL d   1     -46.081  33.480  33.361  0.00  0.00     0.002 C 
ENDBRANCH  33  34
ENDBRANCH  28  33
ENDBRANCH  26  27
ENDBRANCH   3  26
TORSDOF 13
ENDMDL
