MODEL 1
REMARK VINA RESULT:      47.9      0.000      0.000
REMARK  8 active torsions:
REMARK  status: ('A' for Active; 'I' for Inactive)
REMARK    1  A    between atoms: C_11  and  N_1 
REMARK    2  A    between atoms: S_7  and  C_2 
REMARK    3  A    between atoms: C_18  and  S_7 
REMARK    4  A    between atoms: C_8  and  C_10 
REMARK       I    between atoms: N_14  and  C_8 
REMARK    5  A    between atoms: C_13  and  C_11 
REMARK    6  A    between atoms: C_25  and  N_14 
REMARK    7  A    between atoms: C_19  and  C_18 
REMARK    8  A    between atoms: C_26  and  C_25 
ROOT
ATOM      1  N   UNL d   1      46.011 -17.640  43.222  0.00  0.00    -0.253 N 
ATOM      2  C   UNL d   1      46.074 -18.095  42.578  0.00  0.00     0.182 A 
ATOM      3  C   UNL d   1      46.120 -17.955  43.981  0.00  0.00     0.268 A 
ATOM      4  N   UNL d   1      46.253 -18.902  42.640  0.00  0.00    -0.222 NA
ATOM      5  C   UNL d   1      46.294 -18.740  44.061  0.00  0.00     0.074 A 
ATOM      6  C   UNL d   1      46.362 -19.223  43.377  0.00  0.00     0.088 A 
ATOM      7  O   UNL d   1      46.054 -17.484  44.647  0.00  0.00    -0.267 OA
ATOM      8  C   UNL d   1      46.406 -19.071  44.798  0.00  0.00     0.006 A 
ATOM      9  C   UNL d   1      46.538 -20.018  43.457  0.00  0.00     0.019 A 
ATOM     10  C   UNL d   1      46.583 -19.874  44.857  0.00  0.00     0.000 A 
ATOM     11  C   UNL d   1      46.646 -20.329  44.213  0.00  0.00     0.002 A 
ENDROOT
BRANCH   2  12
ATOM     12  S   UNL d   1      45.961 -17.760  41.825  0.00  0.00    -0.049 SA
BRANCH  12  13
ATOM     13  C   UNL d   1      45.570 -18.200  41.240  0.00  0.00     0.038 C 
BRANCH  13  14
ATOM     14  C   UNL d   1      45.410 -17.881  40.496  0.00  0.00     0.007 A 
ATOM     15  C   UNL d   1      46.048 -17.578  40.043  0.00  0.00     0.001 A 
ATOM     16  C   UNL d   1      45.910 -17.262  39.311  0.00  0.00     0.005 A 
ATOM     17  C   UNL d   1      45.138 -17.235  39.008  0.00  0.00     0.058 A 
ATOM     18  C   UNL d   1      44.522 -17.532  39.456  0.00  0.00     0.005 A 
ATOM     19  C   UNL d   1      44.673 -17.851  40.195  0.00  0.00     0.001 A 
BRANCH  17  20
ATOM     20  C   UNL d   1      44.967 -16.911  38.250  0.00  0.00     0.279 C 
ATOM     21  O   UNL d   1      44.312 -17.204  37.812  0.00  0.00    -0.265 OA
ATOM     22  N   UNL d   1      45.438 -16.309  37.935  0.00  0.00    -0.203 NA
BRANCH  22  23
ATOM     23  C   UNL d   1      45.261 -15.983  37.166  0.00  0.00     0.148 C 
BRANCH  23  24
ATOM     24  C   UNL d   1      45.197 -15.183  37.058  0.00  0.00     0.255 C 
ATOM     25  O   UNL d   1      45.810 -14.761  36.720  0.00  0.00    -0.281 OA
ENDBRANCH  23  24
ENDBRANCH  22  23
ENDBRANCH  17  20
ENDBRANCH  13  14
ENDBRANCH  12  13
ENDBRANCH   2  12
BRANCH   1  26
ATOM     26  C   UNL d   1      45.831 -16.830  43.141  0.00  0.00     0.085 C 
BRANCH  26  27
ATOM     27  C   UNL d   1      46.115 -16.299  43.721  0.00  0.00     0.019 C 
ATOM     28  C   UNL d   1      45.796 -15.536  43.782  0.00  0.00     0.002 C 
ENDBRANCH  26  27
ENDBRANCH   1  26
TORSDOF 8
ENDMDL
