MODEL 1
REMARK VINA RESULT:      26.8      0.000      0.000
REMARK  2 active torsions:
REMARK  status: ('A' for Active; 'I' for Inactive)
REMARK       I    between atoms: C_2  and  N_1 
REMARK    1  A    between atoms: C_4  and  C_2 
REMARK    2  A    between atoms: C_6  and  C_7 
ROOT
ATOM      1  C   UNL d   1      13.387  12.227  -2.668  0.00  0.00     0.057 A 
ATOM      2  C   UNL d   1      13.353  12.468  -4.311  0.00  0.00    -0.023 A 
ATOM      3  C   UNL d   1      13.956  11.856  -3.150  0.00  0.00     0.004 A 
ATOM      4  C   UNL d   1      12.810  12.708  -2.982  0.00  0.00     0.004 A 
ATOM      5  C   UNL d   1      13.930  11.986  -3.996  0.00  0.00    -0.004 A 
ATOM      6  C   UNL d   1      12.785  12.839  -3.828  0.00  0.00    -0.004 A 
ENDROOT
BRANCH   1   7
ATOM      7  C   UNL d   1      13.404  12.108  -1.856  0.00  0.00     0.267 C 
ATOM      8  N   UNL d   1      14.087  12.329  -1.424  0.00  0.00    -0.240 N 
ATOM      9  C   UNL d   1      14.748  12.667  -1.808  0.00  0.00     0.267 A 
ATOM     10  C   UNL d   1      14.021  12.175  -0.612  0.00  0.00     0.086 A 
ATOM     11  O   UNL d   1      14.666  12.769  -2.684  0.00  0.00    -0.267 OA
ATOM     12  C   UNL d   1      15.470  12.926  -1.511  0.00  0.00     0.061 A 
ATOM     13  C   UNL d   1      15.718  12.903  -0.691  0.00  0.00     0.005 A 
ATOM     14  C   UNL d   1      15.331  12.645  -0.080  0.00  0.00     0.002 A 
ATOM     15  C   UNL d   1      14.574  12.315  -0.015  0.00  0.00     0.019 A 
ATOM     16  O   UNL d   1      12.773  11.781  -1.471  0.00  0.00    -0.267 OA
ENDBRANCH   1   7
BRANCH   2  17
ATOM     17  C   UNL d   1      13.338  12.586  -5.126  0.00  0.00     0.019 C 
ATOM     18  C   UNL d   1      13.495  13.386  -5.023  0.00  0.00     0.004 C 
ATOM     19  C   UNL d   1      13.323  12.699  -5.942  0.00  0.00     0.004 C 
ATOM     20  C   UNL d   1      13.181  11.782  -5.230  0.00  0.00     0.004 C 
ENDBRANCH   2  17
TORSDOF 2
ENDMDL
