MODEL 1
REMARK VINA RESULT:      -9.0      0.000      0.000
REMARK  3 active torsions:
REMARK  status: ('A' for Active; 'I' for Inactive)
REMARK    1  A    between atoms: C_6  and  N_3 
REMARK    2  A    between atoms: C_5  and  C_4 
REMARK    3  A    between atoms: O_18  and  C_14 
ROOT
ATOM      1  C   UNL d   1     -48.703  14.909  22.310  0.00  0.00     0.366 A 
ATOM      2  C   UNL d   1     -47.902  14.944  22.505  0.00  0.00     0.308 A 
ATOM      3  N   UNL d   1     -47.867  14.138  22.570  0.00  0.00    -0.272 N 
ATOM      4  C   UNL d   1     -48.686  14.087  22.371  0.00  0.00     0.115 A 
ATOM      5  O   UNL d   1     -47.346  15.543  22.601  0.00  0.00    -0.265 OA
ATOM      6  F   UNL d   1     -48.579  15.725  22.284  0.00  0.00    -0.188 F 
ATOM      7  F   UNL d   1     -49.417  15.264  22.109  0.00  0.00    -0.188 F 
ENDROOT
BRANCH   3   8
ATOM      8  C   UNL d   1     -47.275  13.569  22.756  0.00  0.00     0.067 A 
ATOM      9  C   UNL d   1     -47.259  13.233  23.498  0.00  0.00     0.020 A 
ATOM     10  C   UNL d   1     -46.684  12.674  23.696  0.00  0.00     0.026 A 
ATOM     11  C   UNL d   1     -46.128  12.465  23.124  0.00  0.00     0.094 A 
ATOM     12  C   UNL d   1     -46.132  12.795  22.372  0.00  0.00     0.026 A 
ATOM     13  C   UNL d   1     -46.707  13.354  22.175  0.00  0.00     0.020 A 
BRANCH  11  14
ATOM     14  O   UNL d   1     -45.539  11.898  23.312  0.00  0.00    -0.328 OA
ATOM     15  C   UNL d   1     -45.757  11.157  23.624  0.00  0.00     0.181 C 
ENDBRANCH  11  14
ENDBRANCH   3   8
BRANCH   4  16
ATOM     16  C   UNL d   1     -49.231  13.465  22.280  0.00  0.00     0.045 A 
ATOM     17  C   UNL d   1     -49.386  13.176  21.531  0.00  0.00     0.141 A 
ATOM     18  F   UNL d   1     -49.004  13.497  20.856  0.00  0.00    -0.204 F 
ATOM     19  C   UNL d   1     -49.942  12.544  21.451  0.00  0.00     0.030 A 
ATOM     20  C   UNL d   1     -50.301  12.248  22.124  0.00  0.00     0.002 A 
ATOM     21  C   UNL d   1     -50.150  12.534  22.872  0.00  0.00     0.000 A 
ATOM     22  C   UNL d   1     -49.602  13.158  22.964  0.00  0.00     0.004 A 
ENDBRANCH   4  16
TORSDOF 3
ENDMDL
MODEL 2
REMARK VINA RESULT:      -8.9      1.567      2.419
REMARK  3 active torsions:
REMARK  status: ('A' for Active; 'I' for Inactive)
REMARK    1  A    between atoms: C_6  and  N_3 
REMARK    2  A    between atoms: C_5  and  C_4 
REMARK    3  A    between atoms: O_18  and  C_14 
ROOT
ATOM      1  C   UNL d   1     -49.783  12.229  22.891  0.00  0.00     0.366 A 
ATOM      2  C   UNL d   1     -49.049  11.856  22.846  0.00  0.00     0.308 A 
ATOM      3  N   UNL d   1     -48.671  12.570  22.804  0.00  0.00    -0.272 N 
ATOM      4  C   UNL d   1     -49.414  12.966  22.850  0.00  0.00     0.115 A 
ATOM      5  O   UNL d   1     -48.785  11.075  22.843  0.00  0.00    -0.265 OA
ATOM      6  F   UNL d   1     -50.017  11.438  22.924  0.00  0.00    -0.188 F 
ATOM      7  F   UNL d   1     -50.603  12.213  22.950  0.00  0.00    -0.188 F 
ENDROOT
BRANCH   3   8
ATOM      8  C   UNL d   1     -47.872  12.831  22.742  0.00  0.00     0.067 A 
ATOM      9  C   UNL d   1     -47.549  12.963  22.005  0.00  0.00     0.020 A 
ATOM     10  C   UNL d   1     -46.768  13.220  21.928  0.00  0.00     0.026 A 
ATOM     11  C   UNL d   1     -46.325  13.338  22.613  0.00  0.00     0.094 A 
ATOM     12  C   UNL d   1     -46.637  13.208  23.361  0.00  0.00     0.026 A 
ATOM     13  C   UNL d   1     -47.418  12.952  23.438  0.00  0.00     0.020 A 
BRANCH  11  14
ATOM     14  O   UNL d   1     -45.529  13.598  22.548  0.00  0.00    -0.328 OA
ATOM     15  C   UNL d   1     -44.990  13.177  22.072  0.00  0.00     0.181 C 
ENDBRANCH  11  14
ENDBRANCH   3   8
BRANCH   4  16
ATOM     16  C   UNL d   1     -49.657  13.761  22.851  0.00  0.00     0.045 A 
ATOM     17  C   UNL d   1     -49.916  14.102  22.154  0.00  0.00     0.141 A 
ATOM     18  F   UNL d   1     -49.938  13.661  21.440  0.00  0.00    -0.204 F 
ATOM     19  C   UNL d   1     -50.160  14.911  22.169  0.00  0.00     0.030 A 
ATOM     20  C   UNL d   1     -50.129  15.319  22.877  0.00  0.00     0.002 A 
ATOM     21  C   UNL d   1     -49.872  14.984  23.574  0.00  0.00     0.000 A 
ATOM     22  C   UNL d   1     -49.628  14.185  23.572  0.00  0.00     0.004 A 
ENDBRANCH   4  16
TORSDOF 3
ENDMDL
MODEL 3
REMARK VINA RESULT:      -8.4      1.746      3.143
REMARK  3 active torsions:
REMARK  status: ('A' for Active; 'I' for Inactive)
REMARK    1  A    between atoms: C_6  and  N_3 
REMARK    2  A    between atoms: C_5  and  C_4 
REMARK    3  A    between atoms: O_18  and  C_14 
ROOT
ATOM      1  C   UNL d   1     -46.740  13.577  22.668  0.00  0.00     0.366 A 
ATOM      2  C   UNL d   1     -46.946  14.376  22.654  0.00  0.00     0.308 A 
ATOM      3  N   UNL d   1     -47.728  14.193  22.742  0.00  0.00    -0.272 N 
ATOM      4  C   UNL d   1     -47.534  13.372  22.758  0.00  0.00     0.115 A 
ATOM      5  O   UNL d   1     -46.537  15.088  22.582  0.00  0.00    -0.265 OA
ATOM      6  F   UNL d   1     -45.995  13.921  22.576  0.00  0.00    -0.188 F 
ATOM      7  F   UNL d   1     -46.187  12.970  22.637  0.00  0.00    -0.188 F 
ENDROOT
BRANCH   3   8
ATOM      8  C   UNL d   1     -48.450  14.623  22.798  0.00  0.00     0.067 A 
ATOM      9  C   UNL d   1     -48.759  14.798  23.532  0.00  0.00     0.020 A 
ATOM     10  C   UNL d   1     -49.466  15.219  23.602  0.00  0.00     0.026 A 
ATOM     11  C   UNL d   1     -49.850  15.457  22.913  0.00  0.00     0.094 A 
ATOM     12  C   UNL d   1     -49.552  15.288  22.168  0.00  0.00     0.026 A 
ATOM     13  C   UNL d   1     -48.845  14.867  22.097  0.00  0.00     0.020 A 
BRANCH  11  14
ATOM     14  O   UNL d   1     -50.570  15.886  22.971  0.00  0.00    -0.328 OA
ATOM     15  C   UNL d   1     -51.064  15.784  23.635  0.00  0.00     0.181 C 
ENDBRANCH  11  14
ENDBRANCH   3   8
BRANCH   4  16
ATOM     16  C   UNL d   1     -47.968  12.666  22.833  0.00  0.00     0.045 A 
ATOM     17  C   UNL d   1     -48.214  12.274  22.159  0.00  0.00     0.141 A 
ATOM     18  F   UNL d   1     -48.036  12.575  21.395  0.00  0.00    -0.204 F 
ATOM     19  C   UNL d   1     -48.654  11.558  22.248  0.00  0.00     0.030 A 
ATOM     20  C   UNL d   1     -48.815  11.286  23.003  0.00  0.00     0.002 A 
ATOM     21  C   UNL d   1     -48.571  11.673  23.678  0.00  0.00     0.000 A 
ATOM     22  C   UNL d   1     -48.136  12.382  23.602  0.00  0.00     0.004 A 
ENDBRANCH   4  16
TORSDOF 3
ENDMDL
MODEL 4
REMARK VINA RESULT:      -8.2      2.061      3.948
REMARK  3 active torsions:
REMARK  status: ('A' for Active; 'I' for Inactive)
REMARK    1  A    between atoms: C_6  and  N_3 
REMARK    2  A    between atoms: C_5  and  C_4 
REMARK    3  A    between atoms: O_18  and  C_14 
ROOT
ATOM      1  C   UNL d   1     -47.397  11.668  23.377  0.00  0.00     0.366 A 
ATOM      2  C   UNL d   1     -48.184  11.480  23.218  0.00  0.00     0.308 A 
ATOM      3  N   UNL d   1     -48.303  12.200  22.870  0.00  0.00    -0.272 N 
ATOM      4  C   UNL d   1     -47.499  12.407  23.025  0.00  0.00     0.115 A 
ATOM      5  O   UNL d   1     -48.671  10.829  23.351  0.00  0.00    -0.265 OA
ATOM      6  F   UNL d   1     -47.434  10.908  23.696  0.00  0.00    -0.188 F 
ATOM      7  F   UNL d   1     -46.655  11.489  23.682  0.00  0.00    -0.188 F 
ENDROOT
BRANCH   3   8
ATOM      8  C   UNL d   1     -48.947  12.597  22.500  0.00  0.00     0.067 A 
ATOM      9  C   UNL d   1     -49.057  12.523  21.696  0.00  0.00     0.020 A 
ATOM     10  C   UNL d   1     -49.685  12.906  21.319  0.00  0.00     0.026 A 
ATOM     11  C   UNL d   1     -50.196  13.363  21.777  0.00  0.00     0.094 A 
ATOM     12  C   UNL d   1     -50.097  13.446  22.588  0.00  0.00     0.026 A 
ATOM     13  C   UNL d   1     -49.470  13.063  22.964  0.00  0.00     0.020 A 
BRANCH  11  14
ATOM     14  O   UNL d   1     -50.837  13.758  21.407  0.00  0.00    -0.328 OA
ATOM     15  C   UNL d   1     -51.064  14.518  21.663  0.00  0.00     0.181 C 
ENDBRANCH  11  14
ENDBRANCH   3   8
BRANCH   4  16
ATOM     16  C   UNL d   1     -47.026  13.076  22.880  0.00  0.00     0.045 A 
ATOM     17  C   UNL d   1     -46.507  13.069  22.249  0.00  0.00     0.141 A 
ATOM     18  F   UNL d   1     -46.445  12.398  21.748  0.00  0.00    -0.204 F 
ATOM     19  C   UNL d   1     -46.031  13.754  22.112  0.00  0.00     0.030 A 
ATOM     20  C   UNL d   1     -46.110  14.395  22.615  0.00  0.00     0.002 A 
ATOM     21  C   UNL d   1     -46.626  14.406  23.245  0.00  0.00     0.000 A 
ATOM     22  C   UNL d   1     -47.102  13.735  23.391  0.00  0.00     0.004 A 
ENDBRANCH   4  16
TORSDOF 3
ENDMDL
MODEL 5
REMARK VINA RESULT:      -7.4      1.418      3.137
REMARK  3 active torsions:
REMARK  status: ('A' for Active; 'I' for Inactive)
REMARK    1  A    between atoms: C_6  and  N_3 
REMARK    2  A    between atoms: C_5  and  C_4 
REMARK    3  A    between atoms: O_18  and  C_14 
ROOT
ATOM      1  C   UNL d   1     -47.156  14.758  22.639  0.00  0.00     0.366 A 
ATOM      2  C   UNL d   1     -47.963  14.923  22.586  0.00  0.00     0.308 A 
ATOM      3  N   UNL d   1     -48.145  14.139  22.669  0.00  0.00    -0.272 N 
ATOM      4  C   UNL d   1     -47.323  13.955  22.724  0.00  0.00     0.115 A 
ATOM      5  O   UNL d   1     -48.420  15.601  22.488  0.00  0.00    -0.265 OA
ATOM      6  F   UNL d   1     -47.134  15.578  22.545  0.00  0.00    -0.188 F 
ATOM      7  F   UNL d   1     -46.368  14.989  22.645  0.00  0.00    -0.188 F 
ENDROOT
BRANCH   3   8
ATOM      8  C   UNL d   1     -48.849  13.678  22.692  0.00  0.00     0.067 A 
ATOM      9  C   UNL d   1     -49.144  13.358  22.003  0.00  0.00     0.020 A 
ATOM     10  C   UNL d   1     -49.834  12.904  22.010  0.00  0.00     0.026 A 
ATOM     11  C   UNL d   1     -50.216  12.784  22.731  0.00  0.00     0.094 A 
ATOM     12  C   UNL d   1     -49.931  13.100  23.433  0.00  0.00     0.026 A 
ATOM     13  C   UNL d   1     -49.241  13.554  23.425  0.00  0.00     0.020 A 
BRANCH  11  14
ATOM     14  O   UNL d   1     -50.918  12.324  22.752  0.00  0.00    -0.328 OA
ATOM     15  C   UNL d   1     -51.063  11.813  23.394  0.00  0.00     0.181 C 
ENDBRANCH  11  14
ENDBRANCH   3   8
BRANCH   4  16
ATOM     16  C   UNL d   1     -46.882  13.256  22.824  0.00  0.00     0.045 A 
ATOM     17  C   UNL d   1     -46.499  12.930  22.180  0.00  0.00     0.141 A 
ATOM     18  F   UNL d   1     -46.544  13.290  21.422  0.00  0.00    -0.204 F 
ATOM     19  C   UNL d   1     -46.054  12.221  22.293  0.00  0.00     0.030 A 
ATOM     20  C   UNL d   1     -46.026  11.889  23.041  0.00  0.00     0.002 A 
ATOM     21  C   UNL d   1     -46.406  12.210  23.686  0.00  0.00     0.000 A 
ATOM     22  C   UNL d   1     -46.849  12.912  23.586  0.00  0.00     0.004 A 
ENDBRANCH   4  16
TORSDOF 3
ENDMDL
MODEL 6
REMARK VINA RESULT:      -6.7      8.399      9.692
REMARK  3 active torsions:
REMARK  status: ('A' for Active; 'I' for Inactive)
REMARK    1  A    between atoms: C_6  and  N_3 
REMARK    2  A    between atoms: C_5  and  C_4 
REMARK    3  A    between atoms: O_18  and  C_14 
ROOT
ATOM      1  C   UNL d   1     -40.560  15.041  17.000  0.00  0.00     0.366 A 
ATOM      2  C   UNL d   1     -40.950  15.435  17.612  0.00  0.00     0.308 A 
ATOM      3  N   UNL d   1     -40.418  15.154  18.153  0.00  0.00    -0.272 N 
ATOM      4  C   UNL d   1     -40.009  14.745  17.538  0.00  0.00     0.115 A 
ATOM      5  O   UNL d   1     -41.611  15.922  17.670  0.00  0.00    -0.265 OA
ATOM      6  F   UNL d   1     -41.171  15.403  16.579  0.00  0.00    -0.188 F 
ATOM      7  F   UNL d   1     -40.475  14.833  16.210  0.00  0.00    -0.188 F 
ENDROOT
BRANCH   3   8
ATOM      8  C   UNL d   1     -40.303  15.225  18.984  0.00  0.00     0.067 A 
ATOM      9  C   UNL d   1     -40.632  14.672  19.485  0.00  0.00     0.020 A 
ATOM     10  C   UNL d   1     -40.528  14.729  20.302  0.00  0.00     0.026 A 
ATOM     11  C   UNL d   1     -40.082  15.357  20.597  0.00  0.00     0.094 A 
ATOM     12  C   UNL d   1     -39.745  15.920  20.106  0.00  0.00     0.026 A 
ATOM     13  C   UNL d   1     -39.849  15.864  19.288  0.00  0.00     0.020 A 
BRANCH  11  14
ATOM     14  O   UNL d   1     -39.969  15.426  21.426  0.00  0.00    -0.328 OA
ATOM     15  C   UNL d   1     -39.441  14.914  21.819  0.00  0.00     0.181 C 
ENDBRANCH  11  14
ENDBRANCH   3   8
BRANCH   4  16
ATOM     16  C   UNL d   1     -39.338  14.256  17.503  0.00  0.00     0.045 A 
ATOM     17  C   UNL d   1     -38.619  14.577  17.283  0.00  0.00     0.141 A 
ATOM     18  F   UNL d   1     -38.551  15.392  17.093  0.00  0.00    -0.204 F 
ATOM     19  C   UNL d   1     -37.944  14.070  17.251  0.00  0.00     0.030 A 
ATOM     20  C   UNL d   1     -38.037  13.279  17.441  0.00  0.00     0.002 A 
ATOM     21  C   UNL d   1     -38.751  12.954  17.660  0.00  0.00     0.000 A 
ATOM     22  C   UNL d   1     -39.426  13.446  17.696  0.00  0.00     0.004 A 
ENDBRANCH   4  16
TORSDOF 3
ENDMDL
MODEL 7
REMARK VINA RESULT:      -6.3      8.905      9.846
REMARK  3 active torsions:
REMARK  status: ('A' for Active; 'I' for Inactive)
REMARK    1  A    between atoms: C_6  and  N_3 
REMARK    2  A    between atoms: C_5  and  C_4 
REMARK    3  A    between atoms: O_18  and  C_14 
ROOT
ATOM      1  C   UNL d   1     -39.072  13.561  17.698  0.00  0.00     0.366 A 
ATOM      2  C   UNL d   1     -38.857  13.494  18.491  0.00  0.00     0.308 A 
ATOM      3  N   UNL d   1     -39.268  14.165  18.676  0.00  0.00    -0.272 N 
ATOM      4  C   UNL d   1     -39.496  14.248  17.868  0.00  0.00     0.115 A 
ATOM      5  O   UNL d   1     -38.407  12.966  18.936  0.00  0.00    -0.265 OA
ATOM      6  F   UNL d   1     -38.616  12.874  17.670  0.00  0.00    -0.188 F 
ATOM      7  F   UNL d   1     -39.063  13.300  16.919  0.00  0.00    -0.188 F 
ENDROOT
BRANCH   3   8
ATOM      8  C   UNL d   1     -39.419  14.612  19.374  0.00  0.00     0.067 A 
ATOM      9  C   UNL d   1     -40.073  14.439  19.829  0.00  0.00     0.020 A 
ATOM     10  C   UNL d   1     -40.234  14.868  20.516  0.00  0.00     0.026 A 
ATOM     11  C   UNL d   1     -39.717  15.474  20.729  0.00  0.00     0.094 A 
ATOM     12  C   UNL d   1     -39.056  15.660  20.281  0.00  0.00     0.026 A 
ATOM     13  C   UNL d   1     -38.895  15.231  19.594  0.00  0.00     0.020 A 
BRANCH  11  14
ATOM     14  O   UNL d   1     -39.870  15.918  21.425  0.00  0.00    -0.328 OA
ATOM     15  C   UNL d   1     -39.407  15.797  22.108  0.00  0.00     0.181 C 
ENDBRANCH  11  14
ENDBRANCH   3   8
BRANCH   4  16
ATOM     16  C   UNL d   1     -39.955  14.794  17.439  0.00  0.00     0.045 A 
ATOM     17  C   UNL d   1     -39.580  15.373  17.001  0.00  0.00     0.141 A 
ATOM     18  F   UNL d   1     -38.743  15.424  16.978  0.00  0.00    -0.204 F 
ATOM     19  C   UNL d   1     -40.057  15.922  16.569  0.00  0.00     0.030 A 
ATOM     20  C   UNL d   1     -40.871  15.851  16.608  0.00  0.00     0.002 A 
ATOM     21  C   UNL d   1     -41.249  15.275  17.043  0.00  0.00     0.000 A 
ATOM     22  C   UNL d   1     -40.788  14.727  17.474  0.00  0.00     0.004 A 
ENDBRANCH   4  16
TORSDOF 3
ENDMDL
