MODEL 1
REMARK VINA RESULT:      50.1      0.000      0.000
REMARK  4 active torsions:
REMARK  status: ('A' for Active; 'I' for Inactive)
REMARK    1  A    between atoms: C_6  and  C_1 
REMARK    2  A    between atoms: C_3  and  C_5 
REMARK    3  A    between atoms: C_5  and  C_6 
REMARK    4  A    between atoms: C_17  and  C_13 
ROOT
ATOM      1  C   UNL d   1      59.898  49.179  50.885  0.00  0.00     0.202 C 
ATOM      2  O   UNL d   1      59.629  49.337  51.662  0.00  0.00    -0.286 OA
ENDROOT
BRANCH   1   3
ATOM      3  C   UNL d   1      60.486  48.585  50.779  0.00  0.00     0.078 A 
ATOM      4  C   UNL d   1      61.218  48.805  50.403  0.00  0.00     0.202 A 
ATOM      5  C   UNL d   1      61.793  48.223  50.299  0.00  0.00     0.084 A 
ATOM      6  O   UNL d   1      61.339  49.582  50.152  0.00  0.00    -0.286 OA
ATOM      7  C   UNL d   1      61.669  47.455  50.548  0.00  0.00     0.199 A 
ATOM      8  C   UNL d   1      60.949  47.240  50.918  0.00  0.00     0.039 A 
ATOM      9  O   UNL d   1      62.247  46.863  50.446  0.00  0.00    -0.286 OA
ATOM     10  C   UNL d   1      60.353  47.816  51.032  0.00  0.00     0.010 A 
BRANCH   8  11
ATOM     11  C   UNL d   1      60.819  46.465  51.172  0.00  0.00     0.003 C 
ATOM     12  C   UNL d   1      61.024  45.811  50.679  0.00  0.00     0.000 C 
ENDBRANCH   8  11
ENDBRANCH   1   3
BRANCH   1  13
ATOM     13  C   UNL d   1      59.596  49.595  50.239  0.00  0.00     0.081 C 
BRANCH  13  14
ATOM     14  C   UNL d   1      58.769  49.616  50.115  0.00  0.00     0.166 A 
ATOM     15  N   UNL d   1      58.197  49.602  50.699  0.00  0.00    -0.225 NA
ATOM     16  C   UNL d   1      57.455  49.633  50.330  0.00  0.00     0.101 A 
ATOM     17  C   UNL d   1      56.692  49.635  50.639  0.00  0.00     0.021 A 
ATOM     18  C   UNL d   1      57.578  49.666  49.520  0.00  0.00     0.101 A 
ATOM     19  C   UNL d   1      56.033  49.669  50.146  0.00  0.00     0.002 A 
ATOM     20  C   UNL d   1      56.160  49.703  49.323  0.00  0.00     0.002 A 
ATOM     21  C   UNL d   1      56.927  49.701  49.012  0.00  0.00     0.021 A 
ATOM     22  N   UNL d   1      58.384  49.656  49.373  0.00  0.00    -0.225 NA
ENDBRANCH  13  14
ENDBRANCH   1  13
TORSDOF 4
ENDMDL
