MODEL 1
REMARK VINA RESULT:      -5.3      0.000      0.000
REMARK  7 active torsions:
REMARK  status: ('A' for Active; 'I' for Inactive)
REMARK    1  A    between atoms: C_5  and  N_1 
REMARK    2  A    between atoms: C_2  and  N_6 
REMARK    3  A    between atoms: N_16  and  C_2 
REMARK    4  A    between atoms: C_3  and  C_9 
REMARK       I    between atoms: N_4  and  C_3 
REMARK    5  A    between atoms: N_6  and  N_4 
REMARK    6  A    between atoms: C_19  and  N_16 
REMARK    7  A    between atoms: C_17  and  C_19 
ROOT
ATOM      1  C   UNL d   1     -41.559-122.356 -51.204  0.00  0.00     0.297 C 
ATOM      2  N   UNL d   1     -41.588-122.851 -51.864  0.00  0.00    -0.103 NA
ATOM      3  O   UNL d   1     -41.294-121.577 -51.282  0.00  0.00    -0.264 OA
ENDROOT
BRANCH   1   4
ATOM      4  C   UNL d   1     -41.804-122.657 -50.454  0.00  0.00     0.059 A 
ATOM      5  C   UNL d   1     -41.310-123.151 -50.016  0.00  0.00     0.006 A 
ATOM      6  C   UNL d   1     -41.561-123.437 -49.286  0.00  0.00     0.024 A 
ATOM      7  C   UNL d   1     -42.302-123.233 -48.992  0.00  0.00     0.127 A 
ATOM      8  C   UNL d   1     -42.795-122.739 -49.430  0.00  0.00     0.024 A 
ATOM      9  C   UNL d   1     -42.549-122.449 -50.164  0.00  0.00     0.006 A 
BRANCH   7  10
ATOM     10  N   UNL d   1     -42.536-123.531 -48.257  0.00  0.00    -0.114 N 
ATOM     11  O   UNL d   1     -43.318-123.790 -48.157  0.00  0.00    -0.532 OA
ATOM     12  O   UNL d   1     -42.009-123.574 -47.627  0.00  0.00    -0.532 OA
ENDBRANCH   7  10
ENDBRANCH   1   4
BRANCH   2  13
ATOM     13  N   UNL d   1     -41.352-122.567 -52.601  0.00  0.00    -0.114 NA
BRANCH  13  14
ATOM     14  C   UNL d   1     -41.519-123.002 -53.278  0.00  0.00     0.241 C 
ATOM     15  S   UNL d   1     -41.129-123.737 -53.417  0.00  0.00    -0.035 SA
BRANCH  14  16
ATOM     16  N   UNL d   1     -42.070-122.716 -53.821  0.00  0.00    -0.215 NA
BRANCH  16  17
ATOM     17  C   UNL d   1     -41.814-122.441 -54.549  0.00  0.00     0.102 C 
BRANCH  17  18
ATOM     18  C   UNL d   1     -42.366-122.291 -55.143  0.00  0.00     0.021 C 
ATOM     19  C   UNL d   1     -42.188-121.750 -55.741  0.00  0.00     0.002 C 
ENDBRANCH  17  18
ENDBRANCH  16  17
ENDBRANCH  14  16
ENDBRANCH  13  14
ENDBRANCH   2  13
TORSDOF 7
ENDMDL
MODEL 2
REMARK VINA RESULT:      -4.6      2.120      5.169
REMARK  7 active torsions:
REMARK  status: ('A' for Active; 'I' for Inactive)
REMARK    1  A    between atoms: C_5  and  N_1 
REMARK    2  A    between atoms: C_2  and  N_6 
REMARK    3  A    between atoms: N_16  and  C_2 
REMARK    4  A    between atoms: C_3  and  C_9 
REMARK       I    between atoms: N_4  and  C_3 
REMARK    5  A    between atoms: N_6  and  N_4 
REMARK    6  A    between atoms: C_19  and  N_16 
REMARK    7  A    between atoms: C_17  and  C_19 
ROOT
ATOM      1  C   UNL d   1     -41.475-123.072 -52.760  0.00  0.00     0.297 C 
ATOM      2  N   UNL d   1     -41.644-122.635 -52.081  0.00  0.00    -0.103 NA
ATOM      3  O   UNL d   1     -41.123-123.817 -52.697  0.00  0.00    -0.264 OA
ENDROOT
BRANCH   1   4
ATOM      4  C   UNL d   1     -41.668-122.747 -53.515  0.00  0.00     0.059 A 
ATOM      5  C   UNL d   1     -42.195-122.116 -53.581  0.00  0.00     0.006 A 
ATOM      6  C   UNL d   1     -42.374-121.809 -54.323  0.00  0.00     0.024 A 
ATOM      7  C   UNL d   1     -42.030-122.128 -55.000  0.00  0.00     0.127 A 
ATOM      8  C   UNL d   1     -41.504-122.758 -54.934  0.00  0.00     0.024 A 
ATOM      9  C   UNL d   1     -41.319-123.071 -54.191  0.00  0.00     0.006 A 
BRANCH   7  10
ATOM     10  N   UNL d   1     -42.223-121.805 -55.736  0.00  0.00    -0.114 N 
ATOM     11  O   UNL d   1     -42.979-121.941 -56.051  0.00  0.00    -0.532 OA
ATOM     12  O   UNL d   1     -41.681-121.353 -56.159  0.00  0.00    -0.532 OA
ENDBRANCH   7  10
ENDBRANCH   1   4
BRANCH   2  13
ATOM     13  N   UNL d   1     -41.459-122.945 -51.338  0.00  0.00    -0.114 NA
BRANCH  13  14
ATOM     14  C   UNL d   1     -41.682-122.537 -50.661  0.00  0.00     0.241 C 
ATOM     15  S   UNL d   1     -41.172-121.953 -50.328  0.00  0.00    -0.035 SA
BRANCH  14  16
ATOM     16  N   UNL d   1     -42.410-122.700 -50.306  0.00  0.00    -0.215 NA
BRANCH  16  17
ATOM     17  C   UNL d   1     -42.442-122.849 -49.502  0.00  0.00     0.102 C 
BRANCH  17  18
ATOM     18  C   UNL d   1     -43.059-123.305 -49.198  0.00  0.00     0.021 C 
ATOM     19  C   UNL d   1     -43.116-123.426 -48.383  0.00  0.00     0.002 C 
ENDBRANCH  17  18
ENDBRANCH  16  17
ENDBRANCH  14  16
ENDBRANCH  13  14
ENDBRANCH   2  13
TORSDOF 7
ENDMDL
MODEL 3
REMARK VINA RESULT:      -3.8      1.969      5.032
REMARK  7 active torsions:
REMARK  status: ('A' for Active; 'I' for Inactive)
REMARK    1  A    between atoms: C_5  and  N_1 
REMARK    2  A    between atoms: C_2  and  N_6 
REMARK    3  A    between atoms: N_16  and  C_2 
REMARK    4  A    between atoms: C_3  and  C_9 
REMARK       I    between atoms: N_4  and  C_3 
REMARK    5  A    between atoms: N_6  and  N_4 
REMARK    6  A    between atoms: C_19  and  N_16 
REMARK    7  A    between atoms: C_17  and  C_19 
ROOT
ATOM      1  C   UNL d   1     -41.526-122.248 -51.353  0.00  0.00     0.297 C 
ATOM      2  N   UNL d   1     -41.768-122.827 -50.817  0.00  0.00    -0.103 NA
ATOM      3  O   UNL d   1     -41.341-121.487 -51.087  0.00  0.00    -0.264 OA
ENDROOT
BRANCH   1   4
ATOM      4  C   UNL d   1     -41.471-122.445 -52.172  0.00  0.00     0.059 A 
ATOM      5  C   UNL d   1     -41.703-121.909 -52.753  0.00  0.00     0.006 A 
ATOM      6  C   UNL d   1     -41.644-122.114 -53.547  0.00  0.00     0.024 A 
ATOM      7  C   UNL d   1     -41.355-122.853 -53.766  0.00  0.00     0.127 A 
ATOM      8  C   UNL d   1     -41.123-123.390 -53.186  0.00  0.00     0.024 A 
ATOM      9  C   UNL d   1     -41.179-123.189 -52.385  0.00  0.00     0.006 A 
BRANCH   7  10
ATOM     10  N   UNL d   1     -41.303-123.040 -54.569  0.00  0.00    -0.114 N 
ATOM     11  O   UNL d   1     -41.379-122.433 -55.131  0.00  0.00    -0.532 OA
ATOM     12  O   UNL d   1     -41.179-123.814 -54.820  0.00  0.00    -0.532 OA
ENDBRANCH   7  10
ENDBRANCH   1   4
BRANCH   2  13
ATOM     13  N   UNL d   1     -41.825-122.644 -50.014  0.00  0.00    -0.114 NA
BRANCH  13  14
ATOM     14  C   UNL d   1     -42.181-123.177 -49.500  0.00  0.00     0.241 C 
ATOM     15  S   UNL d   1     -42.987-123.399 -49.610  0.00  0.00    -0.035 SA
BRANCH  14  16
ATOM     16  N   UNL d   1     -41.746-123.495 -48.875  0.00  0.00    -0.215 NA
BRANCH  16  17
ATOM     17  C   UNL d   1     -41.825-123.176 -48.126  0.00  0.00     0.102 C 
BRANCH  17  18
ATOM     18  C   UNL d   1     -41.478-123.559 -47.482  0.00  0.00     0.021 C 
ATOM     19  C   UNL d   1     -41.360-123.148 -46.776  0.00  0.00     0.002 C 
ENDBRANCH  17  18
ENDBRANCH  16  17
ENDBRANCH  14  16
ENDBRANCH  13  14
ENDBRANCH   2  13
TORSDOF 7
ENDMDL
