MODEL 1
REMARK VINA RESULT:      89.1      0.000      0.000
REMARK  5 active torsions:
REMARK  status: ('A' for Active; 'I' for Inactive)
REMARK    1  A    between atoms: C_7  and  C_1 
REMARK    2  A    between atoms: C_8  and  C_2 
REMARK    3  A    between atoms: O_22  and  C_8 
REMARK    4  A    between atoms: C_24  and  C_14 
REMARK    5  A    between atoms: C_27  and  O_22 
ROOT
ATOM      1  C   UNL d   1     -50.610  25.831  33.920  0.00  0.00     0.067 A 
ATOM      2  C   UNL d   1     -50.313  25.067  34.008  0.00  0.00     0.166 A 
ATOM      3  C   UNL d   1     -51.416  25.945  33.762  0.00  0.00     0.200 A 
ATOM      4  C   UNL d   1     -51.920  25.297  33.692  0.00  0.00     0.062 A 
ATOM      5  O   UNL d   1     -50.822  24.415  33.937  0.00  0.00    -0.301 OA
ATOM      6  C   UNL d   1     -51.623  24.532  33.780  0.00  0.00     0.106 A 
ATOM      7  C   UNL d   1     -52.719  25.413  33.535  0.00  0.00     0.008 A 
ATOM      8  C   UNL d   1     -52.125  23.883  33.710  0.00  0.00     0.067 A 
ATOM      9  C   UNL d   1     -52.925  24.000  33.553  0.00  0.00     0.198 A 
ATOM     10  C   UNL d   1     -53.222  24.765  33.465  0.00  0.00     0.039 A 
ATOM     11  O   UNL d   1     -51.713  26.709  33.674  0.00  0.00    -0.286 OA
ATOM     12  O   UNL d   1     -53.439  23.347  33.482  0.00  0.00    -0.286 OA
ENDROOT
BRANCH   1  13
ATOM     13  C   UNL d   1     -50.107  26.479  33.990  0.00  0.00     0.007 A 
ATOM     14  C   UNL d   1     -49.967  26.818  34.731  0.00  0.00     0.027 A 
ATOM     15  C   UNL d   1     -49.464  27.465  34.801  0.00  0.00     0.123 A 
ATOM     16  O   UNL d   1     -49.328  27.800  35.543  0.00  0.00    -0.301 OA
ATOM     17  C   UNL d   1     -49.098  27.778  34.130  0.00  0.00     0.123 A 
ATOM     18  C   UNL d   1     -48.813  28.461  35.609  0.00  0.00     0.149 A 
ATOM     19  C   UNL d   1     -48.444  28.779  34.943  0.00  0.00     0.149 A 
ATOM     20  O   UNL d   1     -48.585  28.437  34.200  0.00  0.00    -0.301 OA
ATOM     21  C   UNL d   1     -49.237  27.439  33.388  0.00  0.00     0.027 A 
ATOM     22  C   UNL d   1     -49.741  26.792  33.320  0.00  0.00     0.002 A 
ENDBRANCH   1  13
BRANCH   2  23
ATOM     23  C   UNL d   1     -49.509  24.951  34.166  0.00  0.00     0.323 C 
ATOM     24  O   UNL d   1     -48.967  25.553  34.006  0.00  0.00    -0.257 OA
BRANCH  23  25
ATOM     25  O   UNL d   1     -49.250  24.236  34.483  0.00  0.00    -0.270 OA
BRANCH  25  26
ATOM     26  C   UNL d   1     -48.624  23.835  34.131  0.00  0.00     0.126 C 
ATOM     27  C   UNL d   1     -48.599  23.754  33.311  0.00  0.00     0.029 C 
ENDBRANCH  25  26
ENDBRANCH  23  25
ENDBRANCH   2  23
BRANCH  10  28
ATOM     28  C   UNL d   1     -54.026  24.879  33.308  0.00  0.00     0.003 C 
ATOM     29  C   UNL d   1     -54.359  25.632  33.360  0.00  0.00     0.000 C 
ENDBRANCH  10  28
TORSDOF 5
ENDMDL
MODEL 2
REMARK VINA RESULT:      89.6      2.514      4.962
REMARK  5 active torsions:
REMARK  status: ('A' for Active; 'I' for Inactive)
REMARK    1  A    between atoms: C_7  and  C_1 
REMARK    2  A    between atoms: C_8  and  C_2 
REMARK    3  A    between atoms: O_22  and  C_8 
REMARK    4  A    between atoms: C_24  and  C_14 
REMARK    5  A    between atoms: C_27  and  O_22 
ROOT
ATOM      1  C   UNL d   1     -48.319  29.790  34.559  0.00  0.00     0.067 A 
ATOM      2  C   UNL d   1     -48.016  29.349  35.187  0.00  0.00     0.166 A 
ATOM      3  C   UNL d   1     -48.887  29.454  34.056  0.00  0.00     0.200 A 
ATOM      4  C   UNL d   1     -49.148  28.684  34.182  0.00  0.00     0.062 A 
ATOM      5  O   UNL d   1     -48.281  28.573  35.312  0.00  0.00    -0.301 OA
ATOM      6  C   UNL d   1     -48.845  28.243  34.810  0.00  0.00     0.106 A 
ATOM      7  C   UNL d   1     -49.711  28.354  33.681  0.00  0.00     0.008 A 
ATOM      8  C   UNL d   1     -49.105  27.473  34.938  0.00  0.00     0.067 A 
ATOM      9  C   UNL d   1     -49.669  27.143  34.436  0.00  0.00     0.198 A 
ATOM     10  C   UNL d   1     -49.973  27.583  33.808  0.00  0.00     0.039 A 
ATOM     11  O   UNL d   1     -49.190  29.895  33.428  0.00  0.00    -0.286 OA
ATOM     12  O   UNL d   1     -49.937  26.362  34.560  0.00  0.00    -0.286 OA
ENDROOT
BRANCH   1  13
ATOM     13  C   UNL d   1     -48.058  30.561  34.432  0.00  0.00     0.007 A 
ATOM     14  C   UNL d   1     -48.599  31.155  34.237  0.00  0.00     0.027 A 
ATOM     15  C   UNL d   1     -48.337  31.925  34.111  0.00  0.00     0.123 A 
ATOM     16  O   UNL d   1     -48.881  32.514  33.915  0.00  0.00    -0.301 OA
ATOM     17  C   UNL d   1     -47.535  32.105  34.179  0.00  0.00     0.123 A 
ATOM     18  C   UNL d   1     -48.610  33.299  33.787  0.00  0.00     0.149 A 
ATOM     19  C   UNL d   1     -47.809  33.488  33.854  0.00  0.00     0.149 A 
ATOM     20  O   UNL d   1     -47.268  32.890  34.051  0.00  0.00    -0.301 OA
ATOM     21  C   UNL d   1     -46.994  31.511  34.375  0.00  0.00     0.027 A 
ATOM     22  C   UNL d   1     -47.256  30.742  34.501  0.00  0.00     0.002 A 
ENDBRANCH   1  13
BRANCH   2  23
ATOM     23  C   UNL d   1     -47.450  29.682  35.690  0.00  0.00     0.323 C 
ATOM     24  O   UNL d   1     -46.659  29.715  35.455  0.00  0.00    -0.257 OA
BRANCH  23  25
ATOM     25  O   UNL d   1     -47.675  29.981  36.424  0.00  0.00    -0.270 OA
BRANCH  25  26
ATOM     26  C   UNL d   1     -47.270  29.749  37.102  0.00  0.00     0.126 C 
ATOM     27  C   UNL d   1     -46.901  30.316  37.572  0.00  0.00     0.029 C 
ENDBRANCH  25  26
ENDBRANCH  23  25
ENDBRANCH   2  23
BRANCH  10  28
ATOM     28  C   UNL d   1     -50.539  27.250  33.306  0.00  0.00     0.003 C 
ATOM     29  C   UNL d   1     -51.315  27.530  33.307  0.00  0.00     0.000 C 
ENDBRANCH  10  28
TORSDOF 5
ENDMDL
MODEL 3
REMARK VINA RESULT:      90.3      2.737      6.524
REMARK  5 active torsions:
REMARK  status: ('A' for Active; 'I' for Inactive)
REMARK    1  A    between atoms: C_7  and  C_1 
REMARK    2  A    between atoms: C_8  and  C_2 
REMARK    3  A    between atoms: O_22  and  C_8 
REMARK    4  A    between atoms: C_24  and  C_14 
REMARK    5  A    between atoms: C_27  and  O_22 
ROOT
ATOM      1  C   UNL d   1     -48.196  30.021  34.778  0.00  0.00     0.067 A 
ATOM      2  C   UNL d   1     -47.537  30.166  35.254  0.00  0.00     0.166 A 
ATOM      3  C   UNL d   1     -48.493  30.624  34.293  0.00  0.00     0.200 A 
ATOM      4  C   UNL d   1     -48.134  31.365  34.284  0.00  0.00     0.062 A 
ATOM      5  O   UNL d   1     -47.176  30.913  35.243  0.00  0.00    -0.301 OA
ATOM      6  C   UNL d   1     -47.475  31.510  34.759  0.00  0.00     0.106 A 
ATOM      7  C   UNL d   1     -48.432  31.961  33.801  0.00  0.00     0.008 A 
ATOM      8  C   UNL d   1     -47.115  32.250  34.752  0.00  0.00     0.067 A 
ATOM      9  C   UNL d   1     -47.414  32.846  34.268  0.00  0.00     0.198 A 
ATOM     10  C   UNL d   1     -48.072  32.701  33.793  0.00  0.00     0.039 A 
ATOM     11  O   UNL d   1     -49.152  30.480  33.817  0.00  0.00    -0.286 OA
ATOM     12  O   UNL d   1     -47.053  33.598  34.256  0.00  0.00    -0.286 OA
ENDROOT
BRANCH   1  13
ATOM     13  C   UNL d   1     -48.555  29.281  34.787  0.00  0.00     0.007 A 
ATOM     14  C   UNL d   1     -48.867  28.963  34.090  0.00  0.00     0.027 A 
ATOM     15  C   UNL d   1     -49.226  28.223  34.099  0.00  0.00     0.123 A 
ATOM     16  O   UNL d   1     -49.535  27.910  33.400  0.00  0.00    -0.301 OA
ATOM     17  C   UNL d   1     -49.276  27.796  34.803  0.00  0.00     0.123 A 
ATOM     18  C   UNL d   1     -49.901  27.154  33.414  0.00  0.00     0.149 A 
ATOM     19  C   UNL d   1     -49.955  26.721  34.115  0.00  0.00     0.149 A 
ATOM     20  O   UNL d   1     -49.642  27.042  34.814  0.00  0.00    -0.301 OA
ATOM     21  C   UNL d   1     -48.965  28.114  35.501  0.00  0.00     0.027 A 
ATOM     22  C   UNL d   1     -48.606  28.854  35.491  0.00  0.00     0.002 A 
ENDBRANCH   1  13
BRANCH   2  23
ATOM     23  C   UNL d   1     -47.238  29.566  35.739  0.00  0.00     0.323 C 
ATOM     24  O   UNL d   1     -46.857  28.916  35.402  0.00  0.00    -0.257 OA
BRANCH  23  25
ATOM     25  O   UNL d   1     -47.321  29.618  36.557  0.00  0.00    -0.270 OA
BRANCH  25  26
ATOM     26  C   UNL d   1     -46.652  29.631  37.036  0.00  0.00     0.126 C 
ATOM     27  C   UNL d   1     -46.680  30.010  37.768  0.00  0.00     0.029 C 
ENDBRANCH  25  26
ENDBRANCH  23  25
ENDBRANCH   2  23
BRANCH  10  28
ATOM     28  C   UNL d   1     -48.370  33.301  33.308  0.00  0.00     0.003 C 
ATOM     29  C   UNL d   1     -49.072  33.688  33.505  0.00  0.00     0.000 C 
ENDBRANCH  10  28
TORSDOF 5
ENDMDL
MODEL 4
REMARK VINA RESULT:      90.8      1.551      5.260
REMARK  5 active torsions:
REMARK  status: ('A' for Active; 'I' for Inactive)
REMARK    1  A    between atoms: C_7  and  C_1 
REMARK    2  A    between atoms: C_8  and  C_2 
REMARK    3  A    between atoms: O_22  and  C_8 
REMARK    4  A    between atoms: C_24  and  C_14 
REMARK    5  A    between atoms: C_27  and  O_22 
ROOT
ATOM      1  C   UNL d   1     -49.279  27.780  35.073  0.00  0.00     0.067 A 
ATOM      2  C   UNL d   1     -49.282  27.750  35.898  0.00  0.00     0.166 A 
ATOM      3  C   UNL d   1     -48.835  28.363  34.684  0.00  0.00     0.200 A 
ATOM      4  C   UNL d   1     -48.399  28.910  35.117  0.00  0.00     0.062 A 
ATOM      5  O   UNL d   1     -48.841  28.303  36.333  0.00  0.00    -0.301 OA
ATOM      6  C   UNL d   1     -48.402  28.880  35.942  0.00  0.00     0.106 A 
ATOM      7  C   UNL d   1     -47.960  29.486  34.728  0.00  0.00     0.008 A 
ATOM      8  C   UNL d   1     -47.966  29.427  36.377  0.00  0.00     0.067 A 
ATOM      9  C   UNL d   1     -47.526  30.004  35.986  0.00  0.00     0.198 A 
ATOM     10  C   UNL d   1     -47.523  30.034  35.162  0.00  0.00     0.039 A 
ATOM     11  O   UNL d   1     -48.832  28.393  33.859  0.00  0.00    -0.286 OA
ATOM     12  O   UNL d   1     -47.082  30.560  36.421  0.00  0.00    -0.286 OA
ENDROOT
BRANCH   1  13
ATOM     13  C   UNL d   1     -49.716  27.233  34.639  0.00  0.00     0.007 A 
ATOM     14  C   UNL d   1     -50.541  27.284  34.619  0.00  0.00     0.027 A 
ATOM     15  C   UNL d   1     -50.976  26.737  34.186  0.00  0.00     0.123 A 
ATOM     16  O   UNL d   1     -51.800  26.791  34.169  0.00  0.00    -0.301 OA
ATOM     17  C   UNL d   1     -50.591  26.137  33.770  0.00  0.00     0.123 A 
ATOM     18  C   UNL d   1     -52.241  26.230  33.724  0.00  0.00     0.149 A 
ATOM     19  C   UNL d   1     -51.862  25.628  33.307  0.00  0.00     0.149 A 
ATOM     20  O   UNL d   1     -51.034  25.579  33.328  0.00  0.00    -0.301 OA
ATOM     21  C   UNL d   1     -49.765  26.086  33.790  0.00  0.00     0.027 A 
ATOM     22  C   UNL d   1     -49.330  26.634  34.224  0.00  0.00     0.002 A 
ENDBRANCH   1  13
BRANCH   2  23
ATOM     23  C   UNL d   1     -49.724  27.170  36.288  0.00  0.00     0.323 C 
ATOM     24  O   UNL d   1     -49.571  26.372  36.148  0.00  0.00    -0.257 OA
BRANCH  23  25
ATOM     25  O   UNL d   1     -50.317  27.390  36.816  0.00  0.00    -0.270 OA
BRANCH  25  26
ATOM     26  C   UNL d   1     -50.499  26.902  37.454  0.00  0.00     0.126 C 
ATOM     27  C   UNL d   1     -51.053  27.147  38.012  0.00  0.00     0.029 C 
ENDBRANCH  25  26
ENDBRANCH  23  25
ENDBRANCH   2  23
BRANCH  10  28
ATOM     28  C   UNL d   1     -47.081  30.614  34.772  0.00  0.00     0.003 C 
ATOM     29  C   UNL d   1     -47.437  31.317  34.529  0.00  0.00     0.000 C 
ENDBRANCH  10  28
TORSDOF 5
ENDMDL
