MODEL 1
REMARK VINA RESULT:      -1.1      0.000      0.000
REMARK  4 active torsions:
REMARK  status: ('A' for Active; 'I' for Inactive)
REMARK    1  A    between atoms: C_7  and  C_1 
REMARK    2  A    between atoms: C_8  and  C_2 
REMARK    3  A    between atoms: C_10  and  C_4 
REMARK    4  A    between atoms: O_13  and  C_7 
ROOT
ATOM      1  C   UNL d   1      58.907  -1.204  29.478  0.00  0.00     0.086 A 
ATOM      2  C   UNL d   1      60.000  -2.037  29.118  0.00  0.00     0.064 A 
ATOM      3  C   UNL d   1      59.505  -2.713  29.179  0.00  0.00     0.205 A 
ATOM      4  C   UNL d   1      59.688  -1.293  29.269  0.00  0.00     0.012 A 
ATOM      5  C   UNL d   1      58.412  -1.880  29.539  0.00  0.00     0.107 A 
ATOM      6  O   UNL d   1      58.712  -2.624  29.391  0.00  0.00    -0.288 OA
ATOM      7  N   UNL d   1      59.802  -3.495  29.027  0.00  0.00    -0.121 N 
ATOM      8  C   UNL d   1      57.580  -1.802  29.760  0.00  0.00     0.027 C 
ENDROOT
BRANCH   4   9
ATOM      9  C   UNL d   1      60.165  -0.641  29.210  0.00  0.00     0.000 A 
ATOM     10  C   UNL d   1      60.640  -0.421  29.836  0.00  0.00     0.000 A 
ATOM     11  C   UNL d   1      61.120   0.235  29.776  0.00  0.00     0.000 A 
ATOM     12  C   UNL d   1      61.133   0.682  29.090  0.00  0.00     0.000 A 
ATOM     13  C   UNL d   1      60.651   0.458  28.455  0.00  0.00     0.000 A 
ATOM     14  C   UNL d   1      60.170  -0.198  28.515  0.00  0.00     0.000 A 
ENDBRANCH   4   9
BRANCH   2  15
ATOM     15  C   UNL d   1      60.796  -2.138  28.904  0.00  0.00     0.126 C 
ATOM     16  N   UNL d   1      61.091  -2.898  28.750  0.00  0.00    -0.146 N 
ENDBRANCH   2  15
BRANCH   1  17
ATOM     17  C   UNL d   1      58.574  -0.444  29.636  0.00  0.00     0.298 C 
ATOM     18  O   UNL d   1      58.315   0.027  29.018  0.00  0.00    -0.259 OA
BRANCH  17  19
ATOM     19  O   UNL d   1      58.517  -0.189  30.420  0.00  0.00    -0.296 OA
ATOM     20  C   UNL d   1      57.969   0.401  30.637  0.00  0.00     0.185 C 
ENDBRANCH  17  19
ENDBRANCH   1  17
TORSDOF 4
ENDMDL
MODEL 2
REMARK VINA RESULT:      -0.4      1.788      3.230
REMARK  4 active torsions:
REMARK  status: ('A' for Active; 'I' for Inactive)
REMARK    1  A    between atoms: C_7  and  C_1 
REMARK    2  A    between atoms: C_8  and  C_2 
REMARK    3  A    between atoms: C_10  and  C_4 
REMARK    4  A    between atoms: O_13  and  C_7 
ROOT
ATOM      1  C   UNL d   1      59.256  -0.381  29.594  0.00  0.00     0.086 A 
ATOM      2  C   UNL d   1      59.702   0.303  30.756  0.00  0.00     0.064 A 
ATOM      3  C   UNL d   1      60.490   0.284  30.465  0.00  0.00     0.205 A 
ATOM      4  C   UNL d   1      59.099  -0.032  30.311  0.00  0.00     0.012 A 
ATOM      5  C   UNL d   1      60.044  -0.400  29.303  0.00  0.00     0.107 A 
ATOM      6  O   UNL d   1      60.651  -0.070  29.738  0.00  0.00    -0.288 OA
ATOM      7  N   UNL d   1      61.133   0.623  30.906  0.00  0.00    -0.121 N 
ATOM      8  C   UNL d   1      60.226  -0.767  28.543  0.00  0.00     0.027 C 
ENDROOT
BRANCH   4   9
ATOM      9  C   UNL d   1      58.339  -0.014  30.592  0.00  0.00     0.000 A 
ATOM     10  C   UNL d   1      58.046  -0.640  31.026  0.00  0.00     0.000 A 
ATOM     11  C   UNL d   1      57.282  -0.621  31.308  0.00  0.00     0.000 A 
ATOM     12  C   UNL d   1      56.797   0.024  31.161  0.00  0.00     0.000 A 
ATOM     13  C   UNL d   1      57.096   0.658  30.721  0.00  0.00     0.000 A 
ATOM     14  C   UNL d   1      57.860   0.640  30.439  0.00  0.00     0.000 A 
ENDBRANCH   4   9
BRANCH   2  15
ATOM     15  C   UNL d   1      59.551   0.661  31.490  0.00  0.00     0.126 C 
ATOM     16  N   UNL d   1      60.106   0.597  32.105  0.00  0.00    -0.146 N 
ENDBRANCH   2  15
BRANCH   1  17
ATOM     17  C   UNL d   1      58.644  -0.729  29.127  0.00  0.00     0.298 C 
ATOM     18  O   UNL d   1      58.190  -0.260  28.632  0.00  0.00    -0.259 OA
BRANCH  17  19
ATOM     19  O   UNL d   1      58.516  -1.543  29.179  0.00  0.00    -0.296 OA
ATOM     20  C   UNL d   1      58.457  -2.010  28.492  0.00  0.00     0.185 C 
ENDBRANCH  17  19
ENDBRANCH   1  17
TORSDOF 4
ENDMDL
MODEL 3
REMARK VINA RESULT:      -0.1      1.952      2.971
REMARK  4 active torsions:
REMARK  status: ('A' for Active; 'I' for Inactive)
REMARK    1  A    between atoms: C_7  and  C_1 
REMARK    2  A    between atoms: C_8  and  C_2 
REMARK    3  A    between atoms: C_10  and  C_4 
REMARK    4  A    between atoms: O_13  and  C_7 
ROOT
ATOM      1  C   UNL d   1      58.354   0.202  31.192  0.00  0.00     0.086 A 
ATOM      2  C   UNL d   1      59.700   0.202  30.740  0.00  0.00     0.064 A 
ATOM      3  C   UNL d   1      59.948   0.516  31.479  0.00  0.00     0.205 A 
ATOM      4  C   UNL d   1      58.903   0.050  30.613  0.00  0.00     0.012 A 
ATOM      5  C   UNL d   1      58.602   0.516  31.931  0.00  0.00     0.107 A 
ATOM      6  O   UNL d   1      59.392   0.670  32.067  0.00  0.00    -0.288 OA
ATOM      7  N   UNL d   1      60.767   0.682  31.637  0.00  0.00    -0.121 N 
ATOM      8  C   UNL d   1      58.030   0.682  32.556  0.00  0.00     0.027 C 
ENDROOT
BRANCH   4   9
ATOM      9  C   UNL d   1      58.664  -0.253  29.901  0.00  0.00     0.000 A 
ATOM     10  C   UNL d   1      58.561  -1.057  29.810  0.00  0.00     0.000 A 
ATOM     11  C   UNL d   1      58.321  -1.362  29.094  0.00  0.00     0.000 A 
ATOM     12  C   UNL d   1      58.178  -0.868  28.456  0.00  0.00     0.000 A 
ATOM     13  C   UNL d   1      58.282  -0.052  28.549  0.00  0.00     0.000 A 
ATOM     14  C   UNL d   1      58.523   0.253  29.265  0.00  0.00     0.000 A 
ENDBRANCH   4   9
BRANCH   2  15
ATOM     15  C   UNL d   1      60.269   0.050  30.154  0.00  0.00     0.126 C 
ATOM     16  N   UNL d   1      61.041   0.342  30.240  0.00  0.00    -0.146 N 
ENDBRANCH   2  15
BRANCH   1  17
ATOM     17  C   UNL d   1      57.531   0.050  31.074  0.00  0.00     0.298 C 
ATOM     18  O   UNL d   1      57.072   0.587  30.659  0.00  0.00    -0.259 OA
BRANCH  17  19
ATOM     19  O   UNL d   1      57.204  -0.643  31.381  0.00  0.00    -0.296 OA
ATOM     20  C   UNL d   1      56.511  -0.619  31.843  0.00  0.00     0.185 C 
ENDBRANCH  17  19
ENDBRANCH   1  17
TORSDOF 4
ENDMDL
MODEL 4
REMARK VINA RESULT:       0.3      1.065      2.475
REMARK  4 active torsions:
REMARK  status: ('A' for Active; 'I' for Inactive)
REMARK    1  A    between atoms: C_7  and  C_1 
REMARK    2  A    between atoms: C_8  and  C_2 
REMARK    3  A    between atoms: C_10  and  C_4 
REMARK    4  A    between atoms: O_13  and  C_7 
ROOT
ATOM      1  C   UNL d   1      59.781  -0.704  29.073  0.00  0.00     0.086 A 
ATOM      2  C   UNL d   1      58.817  -1.737  29.213  0.00  0.00     0.064 A 
ATOM      3  C   UNL d   1      59.373  -2.295  28.920  0.00  0.00     0.205 A 
ATOM      4  C   UNL d   1      59.035  -0.949  29.284  0.00  0.00     0.012 A 
ATOM      5  C   UNL d   1      60.337  -1.261  28.781  0.00  0.00     0.107 A 
ATOM      6  O   UNL d   1      60.130  -2.048  28.707  0.00  0.00    -0.288 OA
ATOM      7  N   UNL d   1      59.173  -3.118  28.837  0.00  0.00    -0.121 N 
ATOM      8  C   UNL d   1      61.133  -1.016  28.553  0.00  0.00     0.027 C 
ENDROOT
BRANCH   4   9
ATOM      9  C   UNL d   1      58.499  -0.411  29.566  0.00  0.00     0.000 A 
ATOM     10  C   UNL d   1      58.118   0.097  29.054  0.00  0.00     0.000 A 
ATOM     11  C   UNL d   1      57.579   0.638  29.338  0.00  0.00     0.000 A 
ATOM     12  C   UNL d   1      57.412   0.681  30.139  0.00  0.00     0.000 A 
ATOM     13  C   UNL d   1      57.799   0.165  30.658  0.00  0.00     0.000 A 
ATOM     14  C   UNL d   1      58.338  -0.377  30.374  0.00  0.00     0.000 A 
ENDBRANCH   4   9
BRANCH   2  15
ATOM     15  C   UNL d   1      58.057  -1.998  29.426  0.00  0.00     0.126 C 
ATOM     16  N   UNL d   1      57.909  -2.808  29.524  0.00  0.00    -0.146 N 
ENDBRANCH   2  15
BRANCH   1  17
ATOM     17  C   UNL d   1      60.017   0.105  29.141  0.00  0.00     0.298 C 
ATOM     18  O   UNL d   1      59.983   0.598  28.488  0.00  0.00    -0.259 OA
BRANCH  17  19
ATOM     19  O   UNL d   1      60.281   0.384  29.873  0.00  0.00    -0.296 OA
ATOM     20  C   UNL d   1      61.068   0.639  29.973  0.00  0.00     0.185 C 
ENDBRANCH  17  19
ENDBRANCH   1  17
TORSDOF 4
ENDMDL
MODEL 5
REMARK VINA RESULT:       0.5      1.863      2.593
REMARK  4 active torsions:
REMARK  status: ('A' for Active; 'I' for Inactive)
REMARK    1  A    between atoms: C_7  and  C_1 
REMARK    2  A    between atoms: C_8  and  C_2 
REMARK    3  A    between atoms: C_10  and  C_4 
REMARK    4  A    between atoms: O_13  and  C_7 
ROOT
ATOM      1  C   UNL d   1      58.483  -1.385  29.812  0.00  0.00     0.086 A 
ATOM      2  C   UNL d   1      58.107  -0.280  30.620  0.00  0.00     0.064 A 
ATOM      3  C   UNL d   1      57.467  -0.726  30.933  0.00  0.00     0.205 A 
ATOM      4  C   UNL d   1      58.604  -0.621  30.063  0.00  0.00     0.012 A 
ATOM      5  C   UNL d   1      57.844  -1.831  30.124  0.00  0.00     0.107 A 
ATOM      6  O   UNL d   1      57.344  -1.500  30.678  0.00  0.00    -0.288 OA
ATOM      7  N   UNL d   1      56.938  -0.396  31.511  0.00  0.00    -0.121 N 
ATOM      8  C   UNL d   1      57.703  -2.644  29.866  0.00  0.00     0.027 C 
ENDROOT
BRANCH   4   9
ATOM      9  C   UNL d   1      59.221  -0.191  29.762  0.00  0.00     0.000 A 
ATOM     10  C   UNL d   1      59.930  -0.154  30.163  0.00  0.00     0.000 A 
ATOM     11  C   UNL d   1      60.551   0.279  29.860  0.00  0.00     0.000 A 
ATOM     12  C   UNL d   1      60.473   0.682  29.151  0.00  0.00     0.000 A 
ATOM     13  C   UNL d   1      59.752   0.644  28.745  0.00  0.00     0.000 A 
ATOM     14  C   UNL d   1      59.131   0.211  29.048  0.00  0.00     0.000 A 
ENDBRANCH   4   9
BRANCH   2  15
ATOM     15  C   UNL d   1      58.222   0.500  30.884  0.00  0.00     0.126 C 
ATOM     16  N   UNL d   1      58.142   0.681  31.690  0.00  0.00    -0.146 N 
ENDBRANCH   2  15
BRANCH   1  17
ATOM     17  C   UNL d   1      58.987  -1.748  29.239  0.00  0.00     0.298 C 
ATOM     18  O   UNL d   1      58.953  -1.513  28.455  0.00  0.00    -0.259 OA
BRANCH  17  19
ATOM     19  O   UNL d   1      59.510  -2.338  29.485  0.00  0.00    -0.296 OA
ATOM     20  C   UNL d   1      59.836  -2.874  28.936  0.00  0.00     0.185 C 
ENDBRANCH  17  19
ENDBRANCH   1  17
TORSDOF 4
ENDMDL
MODEL 6
REMARK VINA RESULT:       1.6      3.827      5.733
REMARK  4 active torsions:
REMARK  status: ('A' for Active; 'I' for Inactive)
REMARK    1  A    between atoms: C_7  and  C_1 
REMARK    2  A    between atoms: C_8  and  C_2 
REMARK    3  A    between atoms: C_10  and  C_4 
REMARK    4  A    between atoms: O_13  and  C_7 
ROOT
ATOM      1  C   UNL d   1      57.292   0.251  32.653  0.00  0.00     0.086 A 
ATOM      2  C   UNL d   1      57.212   0.252  34.071  0.00  0.00     0.064 A 
ATOM      3  C   UNL d   1      58.003   0.533  34.115  0.00  0.00     0.205 A 
ATOM      4  C   UNL d   1      56.872   0.117  33.336  0.00  0.00     0.012 A 
ATOM      5  C   UNL d   1      58.083   0.531  32.697  0.00  0.00     0.107 A 
ATOM      6  O   UNL d   1      58.430   0.669  33.423  0.00  0.00    -0.288 OA
ATOM      7  N   UNL d   1      58.379   0.682  34.863  0.00  0.00    -0.121 N 
ATOM      8  C   UNL d   1      58.541   0.678  31.980  0.00  0.00     0.027 C 
ENDROOT
BRANCH   4   9
ATOM      9  C   UNL d   1      56.110  -0.154  33.293  0.00  0.00     0.000 A 
ATOM     10  C   UNL d   1      55.485   0.371  33.321  0.00  0.00     0.000 A 
ATOM     11  C   UNL d   1      54.718   0.099  33.278  0.00  0.00     0.000 A 
ATOM     12  C   UNL d   1      54.562  -0.702  33.206  0.00  0.00     0.000 A 
ATOM     13  C   UNL d   1      55.197  -1.234  33.178  0.00  0.00     0.000 A 
ATOM     14  C   UNL d   1      55.964  -0.962  33.221  0.00  0.00     0.000 A 
ENDBRANCH   4   9
BRANCH   2  15
ATOM     15  C   UNL d   1      56.791   0.118  34.774  0.00  0.00     0.126 C 
ATOM     16  N   UNL d   1      57.171   0.202  35.507  0.00  0.00    -0.146 N 
ENDBRANCH   2  15
BRANCH   1  17
ATOM     17  C   UNL d   1      56.954   0.115  31.891  0.00  0.00     0.298 C 
ATOM     18  O   UNL d   1      56.470   0.682  31.550  0.00  0.00    -0.259 OA
BRANCH  17  19
ATOM     19  O   UNL d   1      57.119  -0.594  31.501  0.00  0.00    -0.296 OA
ATOM     20  C   UNL d   1      57.233  -0.611  30.675  0.00  0.00     0.185 C 
ENDBRANCH  17  19
ENDBRANCH   1  17
TORSDOF 4
ENDMDL
