MODEL 1
REMARK VINA RESULT:      30.9      0.000      0.000
REMARK  3 active torsions:
REMARK  status: ('A' for Active; 'I' for Inactive)
REMARK    1  A    between atoms: S_3  and  C_1 
REMARK    2  A    between atoms: C_7  and  N_2 
REMARK    3  A    between atoms: C_13  and  C_7 
ROOT
ATOM      1  C   UNL d   1      60.139  49.661  52.043  0.00  0.00     0.255 A 
ATOM      2  N   UNL d   1      60.204  49.656  51.218  0.00  0.00    -0.278 N 
ATOM      3  N   UNL d   1      59.364  49.665  52.264  0.00  0.00    -0.215 NA
ATOM      4  C   UNL d   1      59.430  49.657  50.906  0.00  0.00     0.084 A 
ATOM      5  C   UNL d   1      58.912  49.662  51.551  0.00  0.00     0.100 A 
ATOM      6  C   UNL d   1      59.127  49.653  50.138  0.00  0.00     0.019 A 
ATOM      7  C   UNL d   1      58.094  49.664  51.424  0.00  0.00     0.021 A 
ATOM      8  C   UNL d   1      58.312  49.655  50.009  0.00  0.00     0.002 A 
ATOM      9  C   UNL d   1      57.795  49.660  50.654  0.00  0.00     0.002 A 
ENDROOT
BRANCH   1  10
ATOM     10  S   UNL d   1      60.784  49.662  52.561  0.00  0.00     0.174 S 
ATOM     11  O   UNL d   1      61.301  49.638  51.916  0.00  0.00    -0.589 OA
ATOM     12  O   UNL d   1      61.428  49.663  53.078  0.00  0.00    -0.589 OA
ATOM     13  O   UNL d   1      60.268  49.686  53.204  0.00  0.00    -0.589 OA
ENDBRANCH   1  10
BRANCH   2  14
ATOM     14  C   UNL d   1      60.884  49.651  50.769  0.00  0.00     0.082 C 
BRANCH  14  15
ATOM     15  C   UNL d   1      60.993  49.014  50.268  0.00  0.00     0.018 C 
ATOM     16  C   UNL d   1      60.806  49.062  49.466  0.00  0.00     0.002 C 
ATOM     17  C   UNL d   1      61.292  48.300  50.538  0.00  0.00     0.002 C 
ENDBRANCH  14  15
ENDBRANCH   2  14
TORSDOF 3
ENDMDL
