MODEL 1
REMARK VINA RESULT:      -8.0      0.000      0.000
REMARK  5 active torsions:
REMARK  status: ('A' for Active; 'I' for Inactive)
REMARK    1  A    between atoms: N_2  and  S_1 
REMARK    2  A    between atoms: C_4  and  S_1 
REMARK    3  A    between atoms: C_5  and  C_9 
REMARK       I    between atoms: N_8  and  C_5 
REMARK    4  A    between atoms: C_17  and  N_8 
REMARK    5  A    between atoms: C_18  and  C_17 
ROOT
ATOM      1  C   UNL d   1     -47.435  13.774  22.759  0.00  0.00     0.104 A 
ATOM      2  C   UNL d   1     -45.961  13.178  22.616  0.00  0.00     0.058 A 
ATOM      3  C   UNL d   1     -47.126  13.334  23.353  0.00  0.00     0.013 A 
ATOM      4  C   UNL d   1     -47.005  13.922  22.081  0.00  0.00     0.013 A 
ATOM      5  C   UNL d   1     -46.387  13.035  23.281  0.00  0.00     0.005 A 
ATOM      6  C   UNL d   1     -46.263  13.615  22.023  0.00  0.00     0.005 A 
ENDROOT
BRANCH   1   7
ATOM      7  S   UNL d   1     -48.176  14.079  22.822  0.00  0.00     0.271 S 
ATOM      8  O   UNL d   1     -48.395  13.484  23.297  0.00  0.00    -0.200 OA
ATOM      9  O   UNL d   1     -47.849  14.757  22.252  0.00  0.00    -0.200 OA
BRANCH   7  10
ATOM     10  N   UNL d   1     -48.956  14.477  22.836  0.00  0.00    -0.231 N 
ATOM     11  C   UNL d   1     -49.613  14.141  22.360  0.00  0.00     0.075 A 
ATOM     12  C   UNL d   1     -50.394  14.535  22.371  0.00  0.00     0.017 A 
ATOM     13  C   UNL d   1     -49.507  13.430  21.881  0.00  0.00     0.018 A 
ATOM     14  C   UNL d   1     -51.059  14.215  21.904  0.00  0.00     0.002 A 
ATOM     15  C   UNL d   1     -50.520  15.262  22.853  0.00  0.00     0.003 A 
ATOM     16  C   UNL d   1     -50.942  13.501  21.427  0.00  0.00     0.000 A 
ATOM     17  C   UNL d   1     -50.161  13.102  21.413  0.00  0.00     0.002 A 
ATOM     18  C   UNL d   1     -49.860  15.587  23.322  0.00  0.00     0.020 A 
ATOM     19  C   UNL d   1     -49.073  15.191  23.313  0.00  0.00     0.092 A 
ENDBRANCH   7  10
ENDBRANCH   1   7
BRANCH   2  20
ATOM     20  C   UNL d   1     -45.216  12.876  22.546  0.00  0.00     0.279 C 
ATOM     21  N   UNL d   1     -45.058  12.131  22.813  0.00  0.00    -0.206 NA
ATOM     22  O   UNL d   1     -44.632  13.306  22.214  0.00  0.00    -0.265 OA
BRANCH  21  23
ATOM     23  C   UNL d   1     -44.320  11.827  22.745  0.00  0.00     0.102 C 
BRANCH  23  24
ATOM     24  C   UNL d   1     -44.138  11.088  23.062  0.00  0.00     0.019 A 
ATOM     25  C   UNL d   1     -43.356  10.836  23.070  0.00  0.00     0.002 A 
ATOM     26  C   UNL d   1     -43.167  10.099  23.385  0.00  0.00     0.000 A 
ATOM     27  C   UNL d   1     -43.770   9.609  23.697  0.00  0.00     0.000 A 
ATOM     28  C   UNL d   1     -44.550   9.873  23.684  0.00  0.00     0.000 A 
ATOM     29  C   UNL d   1     -44.738  10.615  23.366  0.00  0.00     0.002 A 
ENDBRANCH  23  24
ENDBRANCH  21  23
ENDBRANCH   2  20
TORSDOF 5
ENDMDL
MODEL 2
REMARK VINA RESULT:      -6.8      2.429      3.132
REMARK  5 active torsions:
REMARK  status: ('A' for Active; 'I' for Inactive)
REMARK    1  A    between atoms: N_2  and  S_1 
REMARK    2  A    between atoms: C_4  and  S_1 
REMARK    3  A    between atoms: C_5  and  C_9 
REMARK       I    between atoms: N_8  and  C_5 
REMARK    4  A    between atoms: C_17  and  N_8 
REMARK    5  A    between atoms: C_18  and  C_17 
ROOT
ATOM      1  C   UNL d   1     -45.812  13.108  22.493  0.00  0.00     0.104 A 
ATOM      2  C   UNL d   1     -44.328  12.729  22.046  0.00  0.00     0.058 A 
ATOM      3  C   UNL d   1     -45.402  12.559  22.909  0.00  0.00     0.013 A 
ATOM      4  C   UNL d   1     -45.482  13.476  21.844  0.00  0.00     0.013 A 
ATOM      5  C   UNL d   1     -44.657  12.370  22.684  0.00  0.00     0.005 A 
ATOM      6  C   UNL d   1     -44.732  13.274  21.630  0.00  0.00     0.005 A 
ENDROOT
BRANCH   1   7
ATOM      7  S   UNL d   1     -46.561  13.305  22.710  0.00  0.00     0.271 S 
ATOM      8  O   UNL d   1     -46.349  13.322  23.474  0.00  0.00    -0.200 OA
ATOM      9  O   UNL d   1     -46.744  13.267  21.785  0.00  0.00    -0.200 OA
BRANCH   7  10
ATOM     10  N   UNL d   1     -47.398  13.518  22.860  0.00  0.00    -0.231 N 
ATOM     11  C   UNL d   1     -47.964  12.883  23.076  0.00  0.00     0.075 A 
ATOM     12  C   UNL d   1     -48.801  13.089  23.226  0.00  0.00     0.017 A 
ATOM     13  C   UNL d   1     -47.716  12.058  23.144  0.00  0.00     0.018 A 
ATOM     14  C   UNL d   1     -49.379  12.472  23.442  0.00  0.00     0.002 A 
ATOM     15  C   UNL d   1     -49.073  13.926  23.161  0.00  0.00     0.003 A 
ATOM     16  C   UNL d   1     -49.120  11.648  23.507  0.00  0.00     0.000 A 
ATOM     17  C   UNL d   1     -48.282  11.435  23.358  0.00  0.00     0.002 A 
ATOM     18  C   UNL d   1     -48.500  14.548  22.946  0.00  0.00     0.020 A 
ATOM     19  C   UNL d   1     -47.657  14.342  22.794  0.00  0.00     0.092 A 
ENDBRANCH   7  10
ENDBRANCH   1   7
BRANCH   2  20
ATOM     20  C   UNL d   1     -43.577  12.536  21.821  0.00  0.00     0.279 C 
ATOM     21  N   UNL d   1     -43.086  13.105  21.528  0.00  0.00    -0.206 NA
ATOM     22  O   UNL d   1     -43.313  11.786  21.887  0.00  0.00    -0.265 OA
BRANCH  21  23
ATOM     23  C   UNL d   1     -42.341  12.918  21.305  0.00  0.00     0.102 C 
BRANCH  23  24
ATOM     24  C   UNL d   1     -41.799  13.507  21.107  0.00  0.00     0.019 A 
ATOM     25  C   UNL d   1     -41.189  13.684  21.629  0.00  0.00     0.002 A 
ATOM     26  C   UNL d   1     -40.645  14.272  21.438  0.00  0.00     0.000 A 
ATOM     27  C   UNL d   1     -40.713  14.688  20.715  0.00  0.00     0.000 A 
ATOM     28  C   UNL d   1     -41.329  14.502  20.200  0.00  0.00     0.000 A 
ATOM     29  C   UNL d   1     -41.875  13.910  20.395  0.00  0.00     0.002 A 
ENDBRANCH  23  24
ENDBRANCH  21  23
ENDBRANCH   2  20
TORSDOF 5
ENDMDL
MODEL 3
REMARK VINA RESULT:      -6.7      1.175      1.742
REMARK  5 active torsions:
REMARK  status: ('A' for Active; 'I' for Inactive)
REMARK    1  A    between atoms: N_2  and  S_1 
REMARK    2  A    between atoms: C_4  and  S_1 
REMARK    3  A    between atoms: C_5  and  C_9 
REMARK       I    between atoms: N_8  and  C_5 
REMARK    4  A    between atoms: C_17  and  N_8 
REMARK    5  A    between atoms: C_18  and  C_17 
ROOT
ATOM      1  C   UNL d   1     -47.551  13.556  22.913  0.00  0.00     0.104 A 
ATOM      2  C   UNL d   1     -46.152  12.790  22.870  0.00  0.00     0.058 A 
ATOM      3  C   UNL d   1     -46.900  13.937  22.641  0.00  0.00     0.013 A 
ATOM      4  C   UNL d   1     -47.509  12.782  23.168  0.00  0.00     0.013 A 
ATOM      5  C   UNL d   1     -46.198  13.552  22.620  0.00  0.00     0.005 A 
ATOM      6  C   UNL d   1     -46.796  12.409  23.140  0.00  0.00     0.005 A 
ENDROOT
BRANCH   1   7
ATOM      7  S   UNL d   1     -48.260  13.934  22.938  0.00  0.00     0.271 S 
ATOM      8  O   UNL d   1     -48.541  13.402  23.455  0.00  0.00    -0.200 OA
ATOM      9  O   UNL d   1     -47.864  14.531  22.324  0.00  0.00    -0.200 OA
BRANCH   7  10
ATOM     10  N   UNL d   1     -48.999  14.405  22.907  0.00  0.00    -0.231 N 
ATOM     11  C   UNL d   1     -49.658  14.126  22.399  0.00  0.00     0.075 A 
ATOM     12  C   UNL d   1     -50.398  14.593  22.364  0.00  0.00     0.017 A 
ATOM     13  C   UNL d   1     -49.595  13.403  21.931  0.00  0.00     0.018 A 
ATOM     14  C   UNL d   1     -51.064  14.332  21.864  0.00  0.00     0.002 A 
ATOM     15  C   UNL d   1     -50.480  15.334  22.834  0.00  0.00     0.003 A 
ATOM     16  C   UNL d   1     -50.990  13.604  21.399  0.00  0.00     0.000 A 
ATOM     17  C   UNL d   1     -50.251  13.133  21.430  0.00  0.00     0.002 A 
ATOM     18  C   UNL d   1     -49.818  15.601  23.337  0.00  0.00     0.020 A 
ATOM     19  C   UNL d   1     -49.073  15.132  23.372  0.00  0.00     0.092 A 
ENDBRANCH   7  10
ENDBRANCH   1   7
BRANCH   2  20
ATOM     20  C   UNL d   1     -45.443  12.405  22.847  0.00  0.00     0.279 C 
ATOM     21  N   UNL d   1     -44.894  12.604  22.289  0.00  0.00    -0.206 NA
ATOM     22  O   UNL d   1     -45.277  11.826  23.371  0.00  0.00    -0.265 OA
BRANCH  21  23
ATOM     23  C   UNL d   1     -44.191  12.224  22.264  0.00  0.00     0.102 C 
BRANCH  23  24
ATOM     24  C   UNL d   1     -43.561  12.533  21.829  0.00  0.00     0.019 A 
ATOM     25  C   UNL d   1     -42.807  12.526  22.155  0.00  0.00     0.002 A 
ATOM     26  C   UNL d   1     -42.174  12.833  21.727  0.00  0.00     0.000 A 
ATOM     27  C   UNL d   1     -42.298  13.150  20.962  0.00  0.00     0.000 A 
ATOM     28  C   UNL d   1     -43.060  13.151  20.646  0.00  0.00     0.000 A 
ATOM     29  C   UNL d   1     -43.695  12.842  21.079  0.00  0.00     0.002 A 
ENDBRANCH  23  24
ENDBRANCH  21  23
ENDBRANCH   2  20
TORSDOF 5
ENDMDL
MODEL 4
REMARK VINA RESULT:      -5.9      8.439     10.229
REMARK  5 active torsions:
REMARK  status: ('A' for Active; 'I' for Inactive)
REMARK    1  A    between atoms: N_2  and  S_1 
REMARK    2  A    between atoms: C_4  and  S_1 
REMARK    3  A    between atoms: C_5  and  C_9 
REMARK       I    between atoms: N_8  and  C_5 
REMARK    4  A    between atoms: C_17  and  N_8 
REMARK    5  A    between atoms: C_18  and  C_17 
ROOT
ATOM      1  C   UNL d   1     -38.916  15.273  18.223  0.00  0.00     0.104 A 
ATOM      2  C   UNL d   1     -39.386  15.327  19.747  0.00  0.00     0.058 A 
ATOM      3  C   UNL d   1     -38.414  15.552  18.782  0.00  0.00     0.013 A 
ATOM      4  C   UNL d   1     -39.665  15.016  18.422  0.00  0.00     0.013 A 
ATOM      5  C   UNL d   1     -38.650  15.579  19.546  0.00  0.00     0.005 A 
ATOM      6  C   UNL d   1     -39.888  15.049  19.196  0.00  0.00     0.005 A 
ENDROOT
BRANCH   1   7
ATOM      7  S   UNL d   1     -38.689  15.242  17.453  0.00  0.00     0.271 S 
ATOM      8  O   UNL d   1     -37.940  15.407  17.652  0.00  0.00    -0.200 OA
ATOM      9  O   UNL d   1     -39.597  15.049  17.285  0.00  0.00    -0.200 OA
BRANCH   7  10
ATOM     10  N   UNL d   1     -38.527  15.189  16.593  0.00  0.00    -0.231 N 
ATOM     11  C   UNL d   1     -38.332  14.407  16.245  0.00  0.00     0.075 A 
ATOM     12  C   UNL d   1     -38.169  14.349  15.388  0.00  0.00     0.017 A 
ATOM     13  C   UNL d   1     -38.296  13.693  16.729  0.00  0.00     0.018 A 
ATOM     14  C   UNL d   1     -37.973  13.580  15.024  0.00  0.00     0.002 A 
ATOM     15  C   UNL d   1     -38.201  15.068  14.878  0.00  0.00     0.003 A 
ATOM     16  C   UNL d   1     -37.940  12.869  15.519  0.00  0.00     0.000 A 
ATOM     17  C   UNL d   1     -38.102  12.922  16.379  0.00  0.00     0.002 A 
ATOM     18  C   UNL d   1     -38.397  15.840  15.235  0.00  0.00     0.020 A 
ATOM     19  C   UNL d   1     -38.560  15.900  16.098  0.00  0.00     0.092 A 
ENDBRANCH   7  10
ENDBRANCH   1   7
BRANCH   2  20
ATOM     20  C   UNL d   1     -39.622  15.355  20.519  0.00  0.00     0.279 C 
ATOM     21  N   UNL d   1     -39.297  14.848  21.057  0.00  0.00    -0.206 NA
ATOM     22  O   UNL d   1     -40.173  15.881  20.757  0.00  0.00    -0.265 OA
BRANCH  21  23
ATOM     23  C   UNL d   1     -39.528  14.874  21.823  0.00  0.00     0.102 C 
BRANCH  23  24
ATOM     24  C   UNL d   1     -39.150  14.412  22.392  0.00  0.00     0.019 A 
ATOM     25  C   UNL d   1     -38.829  14.775  23.055  0.00  0.00     0.002 A 
ATOM     26  C   UNL d   1     -38.450  14.321  23.628  0.00  0.00     0.000 A 
ATOM     27  C   UNL d   1     -38.391  13.491  23.534  0.00  0.00     0.000 A 
ATOM     28  C   UNL d   1     -38.717  13.138  22.864  0.00  0.00     0.000 A 
ATOM     29  C   UNL d   1     -39.098  13.598  22.290  0.00  0.00     0.002 A 
ENDBRANCH  23  24
ENDBRANCH  21  23
ENDBRANCH   2  20
TORSDOF 5
ENDMDL
MODEL 5
REMARK VINA RESULT:      -5.3      4.652      7.493
REMARK  5 active torsions:
REMARK  status: ('A' for Active; 'I' for Inactive)
REMARK    1  A    between atoms: N_2  and  S_1 
REMARK    2  A    between atoms: C_4  and  S_1 
REMARK    3  A    between atoms: C_5  and  C_9 
REMARK       I    between atoms: N_8  and  C_5 
REMARK    4  A    between atoms: C_17  and  N_8 
REMARK    5  A    between atoms: C_18  and  C_17 
ROOT
ATOM      1  C   UNL d   1     -41.547  14.074  20.973  0.00  0.00     0.104 A 
ATOM      2  C   UNL d   1     -42.802  13.196  21.421  0.00  0.00     0.058 A 
ATOM      3  C   UNL d   1     -41.428  13.363  21.325  0.00  0.00     0.013 A 
ATOM      4  C   UNL d   1     -42.302  14.355  20.840  0.00  0.00     0.013 A 
ATOM      5  C   UNL d   1     -42.057  12.923  21.549  0.00  0.00     0.005 A 
ATOM      6  C   UNL d   1     -42.926  13.900  21.072  0.00  0.00     0.005 A 
ENDROOT
BRANCH   1   7
ATOM      7  S   UNL d   1     -40.922  14.523  20.743  0.00  0.00     0.271 S 
ATOM      8  O   UNL d   1     -41.406  15.046  20.395  0.00  0.00    -0.200 OA
ATOM      9  O   UNL d   1     -40.403  13.864  21.177  0.00  0.00    -0.200 OA
BRANCH   7  10
ATOM     10  N   UNL d   1     -40.187  14.952  20.534  0.00  0.00    -0.231 N 
ATOM     11  C   UNL d   1     -39.864  14.869  19.722  0.00  0.00     0.075 A 
ATOM     12  C   UNL d   1     -39.131  15.295  19.507  0.00  0.00     0.017 A 
ATOM     13  C   UNL d   1     -40.254  14.377  19.128  0.00  0.00     0.018 A 
ATOM     14  C   UNL d   1     -38.795  15.225  18.704  0.00  0.00     0.002 A 
ATOM     15  C   UNL d   1     -38.720  15.802  20.100  0.00  0.00     0.003 A 
ATOM     16  C   UNL d   1     -39.194  14.728  18.116  0.00  0.00     0.000 A 
ATOM     17  C   UNL d   1     -39.929  14.299  18.326  0.00  0.00     0.002 A 
ATOM     18  C   UNL d   1     -39.050  15.877  20.904  0.00  0.00     0.020 A 
ATOM     19  C   UNL d   1     -39.788  15.448  21.122  0.00  0.00     0.092 A 
ENDBRANCH   7  10
ENDBRANCH   1   7
BRANCH   2  20
ATOM     20  C   UNL d   1     -43.436  12.750  21.649  0.00  0.00     0.279 C 
ATOM     21  N   UNL d   1     -44.140  13.107  21.817  0.00  0.00    -0.206 NA
ATOM     22  O   UNL d   1     -43.373  11.956  21.711  0.00  0.00    -0.265 OA
BRANCH  21  23
ATOM     23  C   UNL d   1     -44.770  12.668  22.043  0.00  0.00     0.102 C 
BRANCH  23  24
ATOM     24  C   UNL d   1     -45.418  13.021  22.409  0.00  0.00     0.019 A 
ATOM     25  C   UNL d   1     -45.859  12.587  22.950  0.00  0.00     0.002 A 
ATOM     26  C   UNL d   1     -46.509  12.932  23.320  0.00  0.00     0.000 A 
ATOM     27  C   UNL d   1     -46.719  13.724  23.146  0.00  0.00     0.000 A 
ATOM     28  C   UNL d   1     -46.269  14.149  22.602  0.00  0.00     0.000 A 
ATOM     29  C   UNL d   1     -45.616  13.799  22.231  0.00  0.00     0.002 A 
ENDBRANCH  23  24
ENDBRANCH  21  23
ENDBRANCH   2  20
TORSDOF 5
ENDMDL
