MODEL 1
REMARK VINA RESULT:      -7.1      0.000      0.000
REMARK  5 active torsions:
REMARK  status: ('A' for Active; 'I' for Inactive)
REMARK    1  A    between atoms: C_11  and  N_1 
REMARK    2  A    between atoms: S_10  and  C_2 
REMARK    3  A    between atoms: S_3  and  C_12 
REMARK    4  A    between atoms: C_13  and  C_11 
REMARK    5  A    between atoms: C_12  and  C_13 
ROOT
ATOM      1  N   UNL d   1     -48.944  13.647  22.874  0.00  0.00    -0.295 N 
ATOM      2  C   UNL d   1     -49.400  14.297  23.077  0.00  0.00     0.121 A 
ATOM      3  S   UNL d   1     -50.101  14.036  23.418  0.00  0.00    -0.062 SA
ATOM      4  C   UNL d   1     -49.363  12.970  23.089  0.00  0.00     0.071 A 
ATOM      5  C   UNL d   1     -50.086  13.213  23.430  0.00  0.00     0.047 A 
ATOM      6  C   UNL d   1     -49.186  12.167  23.023  0.00  0.00     0.018 A 
ATOM      7  C   UNL d   1     -50.618  12.648  23.697  0.00  0.00     0.008 A 
ATOM      8  C   UNL d   1     -49.729  11.602  23.296  0.00  0.00     0.002 A 
ATOM      9  C   UNL d   1     -50.435  11.839  23.628  0.00  0.00     0.001 A 
ENDROOT
BRANCH   1  10
ATOM     10  C   UNL d   1     -48.212  13.666  22.523  0.00  0.00     0.082 C 
BRANCH  10  11
ATOM     11  C   UNL d   1     -47.526  13.502  22.968  0.00  0.00     0.034 C 
BRANCH  11  12
ATOM     12  C   UNL d   1     -46.784  13.694  22.676  0.00  0.00     0.119 C 
BRANCH  12  13
ATOM     13  S   UNL d   1     -46.123  13.260  22.917  0.00  0.00     0.140 S 
ATOM     14  O   UNL d   1     -45.475  12.833  23.149  0.00  0.00    -0.591 OA
ATOM     15  O   UNL d   1     -46.158  13.619  23.658  0.00  0.00    -0.591 OA
ATOM     16  O   UNL d   1     -46.088  12.900  22.173  0.00  0.00    -0.591 OA
ENDBRANCH  12  13
ENDBRANCH  11  12
ENDBRANCH  10  11
ENDBRANCH   1  10
BRANCH   2  17
ATOM     17  S   UNL d   1     -49.192  15.084  22.959  0.00  0.00    -0.089 SA
ATOM     18  C   UNL d   1     -49.697  15.682  23.177  0.00  0.00     0.076 C 
ENDBRANCH   2  17
TORSDOF 5
ENDMDL
MODEL 2
REMARK VINA RESULT:      -7.0      0.780      2.106
REMARK  5 active torsions:
REMARK  status: ('A' for Active; 'I' for Inactive)
REMARK    1  A    between atoms: C_11  and  N_1 
REMARK    2  A    between atoms: S_10  and  C_2 
REMARK    3  A    between atoms: S_3  and  C_12 
REMARK    4  A    between atoms: C_13  and  C_11 
REMARK    5  A    between atoms: C_12  and  C_13 
ROOT
ATOM      1  N   UNL d   1     -49.066  13.349  22.978  0.00  0.00    -0.295 N 
ATOM      2  C   UNL d   1     -49.627  12.890  23.361  0.00  0.00     0.121 A 
ATOM      3  S   UNL d   1     -50.230  13.378  23.633  0.00  0.00    -0.062 SA
ATOM      4  C   UNL d   1     -49.319  14.134  23.010  0.00  0.00     0.071 A 
ATOM      5  C   UNL d   1     -50.047  14.152  23.419  0.00  0.00     0.047 A 
ATOM      6  C   UNL d   1     -48.988  14.833  22.723  0.00  0.00     0.018 A 
ATOM      7  C   UNL d   1     -50.429  14.869  23.534  0.00  0.00     0.008 A 
ATOM      8  C   UNL d   1     -49.381  15.553  22.843  0.00  0.00     0.002 A 
ATOM      9  C   UNL d   1     -50.091  15.571  23.242  0.00  0.00     0.001 A 
ENDROOT
BRANCH   1  10
ATOM     10  C   UNL d   1     -48.383  13.080  22.629  0.00  0.00     0.082 C 
BRANCH  10  11
ATOM     11  C   UNL d   1     -47.649  13.170  23.014  0.00  0.00     0.034 C 
BRANCH  11  12
ATOM     12  C   UNL d   1     -46.986  12.769  22.744  0.00  0.00     0.119 C 
BRANCH  12  13
ATOM     13  S   UNL d   1     -46.231  13.049  22.934  0.00  0.00     0.140 S 
ATOM     14  O   UNL d   1     -45.493  13.321  23.124  0.00  0.00    -0.591 OA
ATOM     15  O   UNL d   1     -46.167  13.383  22.184  0.00  0.00    -0.591 OA
ATOM     16  O   UNL d   1     -46.296  12.713  23.688  0.00  0.00    -0.591 OA
ENDBRANCH  12  13
ENDBRANCH  11  12
ENDBRANCH  10  11
ENDBRANCH   1  10
BRANCH   2  17
ATOM     17  S   UNL d   1     -49.593  12.075  23.458  0.00  0.00    -0.089 SA
ATOM     18  C   UNL d   1     -50.249  11.660  23.698  0.00  0.00     0.076 C 
ENDBRANCH   2  17
TORSDOF 5
ENDMDL
MODEL 3
REMARK VINA RESULT:      -7.0      2.083      3.073
REMARK  5 active torsions:
REMARK  status: ('A' for Active; 'I' for Inactive)
REMARK    1  A    between atoms: C_11  and  N_1 
REMARK    2  A    between atoms: S_10  and  C_2 
REMARK    3  A    between atoms: S_3  and  C_12 
REMARK    4  A    between atoms: C_13  and  C_11 
REMARK    5  A    between atoms: C_12  and  C_13 
ROOT
ATOM      1  N   UNL d   1     -48.152  13.419  22.785  0.00  0.00    -0.295 N 
ATOM      2  C   UNL d   1     -47.345  13.405  22.930  0.00  0.00     0.121 A 
ATOM      3  S   UNL d   1     -47.150  12.694  23.294  0.00  0.00    -0.062 SA
ATOM      4  C   UNL d   1     -48.467  12.708  23.061  0.00  0.00     0.071 A 
ATOM      5  C   UNL d   1     -47.842  12.255  23.378  0.00  0.00     0.047 A 
ATOM      6  C   UNL d   1     -49.237  12.411  23.066  0.00  0.00     0.018 A 
ATOM      7  C   UNL d   1     -47.998  11.514  23.695  0.00  0.00     0.008 A 
ATOM      8  C   UNL d   1     -49.387  11.661  23.388  0.00  0.00     0.002 A 
ATOM      9  C   UNL d   1     -48.776  11.219  23.698  0.00  0.00     0.001 A 
ENDROOT
BRANCH   1  10
ATOM     10  C   UNL d   1     -48.566  14.022  22.434  0.00  0.00     0.082 C 
BRANCH  10  11
ATOM     11  C   UNL d   1     -49.034  14.537  22.895  0.00  0.00     0.034 C 
BRANCH  11  12
ATOM     12  C   UNL d   1     -49.392  15.192  22.553  0.00  0.00     0.119 C 
BRANCH  12  13
ATOM     13  S   UNL d   1     -50.036  15.549  22.928  0.00  0.00     0.140 S 
ATOM     14  O   UNL d   1     -50.670  15.898  23.290  0.00  0.00    -0.591 OA
ATOM     15  O   UNL d   1     -49.551  15.765  23.558  0.00  0.00    -0.591 OA
ATOM     16  O   UNL d   1     -50.524  15.333  22.295  0.00  0.00    -0.591 OA
ENDBRANCH  12  13
ENDBRANCH  11  12
ENDBRANCH  10  11
ENDBRANCH   1  10
BRANCH   2  17
ATOM     17  S   UNL d   1     -46.815  14.005  22.743  0.00  0.00    -0.089 SA
ATOM     18  C   UNL d   1     -46.025  13.843  22.644  0.00  0.00     0.076 C 
ENDBRANCH   2  17
TORSDOF 5
ENDMDL
MODEL 4
REMARK VINA RESULT:      -6.9      2.190      3.510
REMARK  5 active torsions:
REMARK  status: ('A' for Active; 'I' for Inactive)
REMARK    1  A    between atoms: C_11  and  N_1 
REMARK    2  A    between atoms: S_10  and  C_2 
REMARK    3  A    between atoms: S_3  and  C_12 
REMARK    4  A    between atoms: C_13  and  C_11 
REMARK    5  A    between atoms: C_12  and  C_13 
ROOT
ATOM      1  N   UNL d   1     -48.568  13.085  22.872  0.00  0.00    -0.295 N 
ATOM      2  C   UNL d   1     -48.825  12.405  23.252  0.00  0.00     0.121 A 
ATOM      3  S   UNL d   1     -48.171  11.993  23.534  0.00  0.00    -0.062 SA
ATOM      4  C   UNL d   1     -47.745  13.099  22.915  0.00  0.00     0.071 A 
ATOM      5  C   UNL d   1     -47.496  12.418  23.328  0.00  0.00     0.047 A 
ATOM      6  C   UNL d   1     -47.187  13.639  22.635  0.00  0.00     0.018 A 
ATOM      7  C   UNL d   1     -46.695  12.289  23.453  0.00  0.00     0.008 A 
ATOM      8  C   UNL d   1     -46.379  13.502  22.766  0.00  0.00     0.002 A 
ATOM      9  C   UNL d   1     -46.137  12.836  23.169  0.00  0.00     0.001 A 
ENDROOT
BRANCH   1  10
ATOM     10  C   UNL d   1     -49.040  13.642  22.517  0.00  0.00     0.082 C 
BRANCH  10  11
ATOM     11  C   UNL d   1     -49.349  14.277  22.960  0.00  0.00     0.034 C 
BRANCH  11  12
ATOM     12  C   UNL d   1     -49.648  14.942  22.582  0.00  0.00     0.119 C 
BRANCH  12  13
ATOM     13  S   UNL d   1     -50.180  15.435  22.979  0.00  0.00     0.140 S 
ATOM     14  O   UNL d   1     -50.705  15.916  23.364  0.00  0.00    -0.591 OA
ATOM     15  O   UNL d   1     -49.570  15.705  23.462  0.00  0.00    -0.591 OA
ATOM     16  O   UNL d   1     -50.794  15.164  22.494  0.00  0.00    -0.591 OA
ENDBRANCH  12  13
ENDBRANCH  11  12
ENDBRANCH  10  11
ENDBRANCH   1  10
BRANCH   2  17
ATOM     17  S   UNL d   1     -49.609  12.172  23.339  0.00  0.00    -0.089 SA
ATOM     18  C   UNL d   1     -49.792  11.458  23.680  0.00  0.00     0.076 C 
ENDBRANCH   2  17
TORSDOF 5
ENDMDL
MODEL 5
REMARK VINA RESULT:      -6.5      2.143      3.323
REMARK  5 active torsions:
REMARK  status: ('A' for Active; 'I' for Inactive)
REMARK    1  A    between atoms: C_11  and  N_1 
REMARK    2  A    between atoms: S_10  and  C_2 
REMARK    3  A    between atoms: S_3  and  C_12 
REMARK    4  A    between atoms: C_13  and  C_11 
REMARK    5  A    between atoms: C_12  and  C_13 
ROOT
ATOM      1  N   UNL d   1     -48.265  13.618  22.405  0.00  0.00    -0.295 N 
ATOM      2  C   UNL d   1     -48.417  14.417  22.514  0.00  0.00     0.121 A 
ATOM      3  S   UNL d   1     -47.714  14.801  22.699  0.00  0.00    -0.062 SA
ATOM      4  C   UNL d   1     -47.457  13.500  22.523  0.00  0.00     0.071 A 
ATOM      5  C   UNL d   1     -47.113  14.238  22.707  0.00  0.00     0.047 A 
ATOM      6  C   UNL d   1     -46.988  12.821  22.489  0.00  0.00     0.018 A 
ATOM      7  C   UNL d   1     -46.307  14.284  22.854  0.00  0.00     0.008 A 
ATOM      8  C   UNL d   1     -46.174  12.877  22.638  0.00  0.00     0.002 A 
ATOM      9  C   UNL d   1     -45.838  13.597  22.818  0.00  0.00     0.001 A 
ENDROOT
BRANCH   1  10
ATOM     10  C   UNL d   1     -48.810  13.048  22.215  0.00  0.00     0.082 C 
BRANCH  10  11
ATOM     11  C   UNL d   1     -49.250  12.668  22.813  0.00  0.00     0.034 C 
BRANCH  11  12
ATOM     12  C   UNL d   1     -49.685  11.993  22.645  0.00  0.00     0.119 C 
BRANCH  12  13
ATOM     13  S   UNL d   1     -50.261  11.733  23.178  0.00  0.00     0.140 S 
ATOM     14  O   UNL d   1     -50.829  11.481  23.696  0.00  0.00    -0.591 OA
ATOM     15  O   UNL d   1     -49.688  11.310  23.591  0.00  0.00    -0.591 OA
ATOM     16  O   UNL d   1     -50.838  12.158  22.762  0.00  0.00    -0.591 OA
ENDBRANCH  12  13
ENDBRANCH  11  12
ENDBRANCH  10  11
ENDBRANCH   1  10
BRANCH   2  17
ATOM     17  S   UNL d   1     -49.154  14.776  22.448  0.00  0.00    -0.089 SA
ATOM     18  C   UNL d   1     -49.251  15.557  22.651  0.00  0.00     0.076 C 
ENDBRANCH   2  17
TORSDOF 5
ENDMDL
MODEL 6
REMARK VINA RESULT:      -5.5      1.622      2.321
REMARK  5 active torsions:
REMARK  status: ('A' for Active; 'I' for Inactive)
REMARK    1  A    between atoms: C_11  and  N_1 
REMARK    2  A    between atoms: S_10  and  C_2 
REMARK    3  A    between atoms: S_3  and  C_12 
REMARK    4  A    between atoms: C_13  and  C_11 
REMARK    5  A    between atoms: C_12  and  C_13 
ROOT
ATOM      1  N   UNL d   1     -48.822  14.023  23.296  0.00  0.00    -0.295 N 
ATOM      2  C   UNL d   1     -48.359  14.549  22.870  0.00  0.00     0.121 A 
ATOM      3  S   UNL d   1     -48.842  15.134  22.553  0.00  0.00    -0.062 SA
ATOM      4  C   UNL d   1     -49.604  14.280  23.245  0.00  0.00     0.071 A 
ATOM      5  C   UNL d   1     -49.617  14.974  22.781  0.00  0.00     0.047 A 
ATOM      6  C   UNL d   1     -50.306  13.978  23.558  0.00  0.00     0.018 A 
ATOM      7  C   UNL d   1     -50.331  15.353  22.639  0.00  0.00     0.008 A 
ATOM      8  C   UNL d   1     -51.023  14.367  23.409  0.00  0.00     0.002 A 
ATOM      9  C   UNL d   1     -51.036  15.044  22.956  0.00  0.00     0.001 A 
ENDROOT
BRANCH   1  10
ATOM     10  C   UNL d   1     -48.558  13.367  23.695  0.00  0.00     0.082 C 
BRANCH  10  11
ATOM     11  C   UNL d   1     -48.409  12.655  23.286  0.00  0.00     0.034 C 
BRANCH  11  12
ATOM     12  C   UNL d   1     -48.298  11.954  23.698  0.00  0.00     0.119 C 
BRANCH  12  13
ATOM     13  S   UNL d   1     -47.942  11.310  23.322  0.00  0.00     0.140 S 
ATOM     14  O   UNL d   1     -47.598  10.678  22.952  0.00  0.00    -0.591 OA
ATOM     15  O   UNL d   1     -47.230  11.484  23.698  0.00  0.00    -0.591 OA
ATOM     16  O   UNL d   1     -48.657  11.134  22.944  0.00  0.00    -0.591 OA
ENDBRANCH  12  13
ENDBRANCH  11  12
ENDBRANCH  10  11
ENDBRANCH   1  10
BRANCH   2  17
ATOM     17  S   UNL d   1     -47.544  14.501  22.776  0.00  0.00    -0.089 SA
ATOM     18  C   UNL d   1     -47.132  15.109  22.427  0.00  0.00     0.076 C 
ENDBRANCH   2  17
TORSDOF 5
ENDMDL
MODEL 7
REMARK VINA RESULT:      -5.3      8.752     10.218
REMARK  5 active torsions:
REMARK  status: ('A' for Active; 'I' for Inactive)
REMARK    1  A    between atoms: C_11  and  N_1 
REMARK    2  A    between atoms: S_10  and  C_2 
REMARK    3  A    between atoms: S_3  and  C_12 
REMARK    4  A    between atoms: C_13  and  C_11 
REMARK    5  A    between atoms: C_12  and  C_13 
ROOT
ATOM      1  N   UNL d   1     -40.183  14.447  18.008  0.00  0.00    -0.295 N 
ATOM      2  C   UNL d   1     -40.360  15.018  17.446  0.00  0.00     0.121 A 
ATOM      3  S   UNL d   1     -39.843  14.938  16.812  0.00  0.00    -0.062 SA
ATOM      4  C   UNL d   1     -39.548  14.004  17.723  0.00  0.00     0.071 A 
ATOM      5  C   UNL d   1     -39.336  14.310  16.976  0.00  0.00     0.047 A 
ATOM      6  C   UNL d   1     -39.135  13.364  18.041  0.00  0.00     0.018 A 
ATOM      7  C   UNL d   1     -38.714  13.971  16.561  0.00  0.00     0.008 A 
ATOM      8  C   UNL d   1     -38.508  13.027  17.615  0.00  0.00     0.002 A 
ATOM      9  C   UNL d   1     -38.301  13.326  16.886  0.00  0.00     0.001 A 
ENDROOT
BRANCH   1  10
ATOM     10  C   UNL d   1     -40.564  14.338  18.716  0.00  0.00     0.082 C 
BRANCH  10  11
ATOM     11  C   UNL d   1     -40.313  14.747  19.398  0.00  0.00     0.034 C 
BRANCH  11  12
ATOM     12  C   UNL d   1     -40.604  14.543  20.138  0.00  0.00     0.119 C 
BRANCH  12  13
ATOM     13  S   UNL d   1     -40.463  15.036  20.786  0.00  0.00     0.140 S 
ATOM     14  O   UNL d   1     -40.330  15.522  21.420  0.00  0.00    -0.591 OA
ATOM     15  O   UNL d   1     -39.697  14.740  20.845  0.00  0.00    -0.591 OA
ATOM     16  O   UNL d   1     -41.233  15.335  20.726  0.00  0.00    -0.591 OA
ENDBRANCH  12  13
ENDBRANCH  11  12
ENDBRANCH  10  11
ENDBRANCH   1  10
BRANCH   2  17
ATOM     17  S   UNL d   1     -40.957  15.580  17.507  0.00  0.00    -0.089 SA
ATOM     18  C   UNL d   1     -41.272  15.921  16.840  0.00  0.00     0.076 C 
ENDBRANCH   2  17
TORSDOF 5
ENDMDL
