MODEL 1
REMARK VINA RESULT:      62.4      0.000      0.000
REMARK  3 active torsions:
REMARK  status: ('A' for Active; 'I' for Inactive)
REMARK    1  A    between atoms: N_2  and  S_1 
REMARK    2  A    between atoms: C_4  and  S_1 
REMARK    3  A    between atoms: C_11  and  C_3 
ROOT
ATOM      1  N   UNL d   1     -53.106  24.012  34.015  0.00  0.00    -0.213 N 
ATOM      2  C   UNL d   1     -53.499  23.910  34.738  0.00  0.00     0.157 A 
ATOM      3  N   UNL d   1     -54.135  23.400  34.604  0.00  0.00    -0.224 NA
ATOM      4  C   UNL d   1     -53.500  23.566  33.443  0.00  0.00     0.114 A 
ATOM      5  C   UNL d   1     -54.136  23.189  33.810  0.00  0.00     0.120 A 
ENDROOT
BRANCH   1   6
ATOM      6  S   UNL d   1     -52.437  24.479  33.890  0.00  0.00     0.273 S 
ATOM      7  O   UNL d   1     -52.920  25.113  33.676  0.00  0.00    -0.200 OA
ATOM      8  O   UNL d   1     -51.958  23.848  34.104  0.00  0.00    -0.200 OA
BRANCH   6   9
ATOM      9  C   UNL d   1     -51.771  24.944  33.766  0.00  0.00     0.104 A 
ATOM     10  C   UNL d   1     -51.847  25.755  33.632  0.00  0.00     0.015 A 
ATOM     11  C   UNL d   1     -51.182  26.230  33.506  0.00  0.00     0.028 A 
ATOM     12  C   UNL d   1     -51.262  27.034  33.373  0.00  0.00     0.002 C 
ATOM     13  C   UNL d   1     -50.430  25.879  33.516  0.00  0.00     0.140 A 
ATOM     14  C   UNL d   1     -50.350  25.075  33.649  0.00  0.00     0.030 A 
ATOM     15  F   UNL d   1     -49.764  26.344  33.392  0.00  0.00    -0.204 F 
ATOM     16  C   UNL d   1     -51.020  24.608  33.774  0.00  0.00     0.015 A 
ENDBRANCH   6   9
ENDBRANCH   1   6
BRANCH   2  17
ATOM     17  C   UNL d   1     -53.293  24.255  35.457  0.00  0.00     0.035 A 
ATOM     18  C   UNL d   1     -53.376  25.070  35.565  0.00  0.00     0.003 A 
ATOM     19  C   UNL d   1     -53.170  25.418  36.284  0.00  0.00     0.000 A 
ATOM     20  C   UNL d   1     -52.881  24.947  36.896  0.00  0.00     0.000 A 
ATOM     21  C   UNL d   1     -52.799  24.131  36.788  0.00  0.00     0.000 A 
ATOM     22  C   UNL d   1     -53.004  23.787  36.069  0.00  0.00     0.003 A 
ENDBRANCH   2  17
TORSDOF 3
ENDMDL
MODEL 2
REMARK VINA RESULT:      62.9      7.278      8.914
REMARK  3 active torsions:
REMARK  status: ('A' for Active; 'I' for Inactive)
REMARK    1  A    between atoms: N_2  and  S_1 
REMARK    2  A    between atoms: C_4  and  S_1 
REMARK    3  A    between atoms: C_11  and  C_3 
ROOT
ATOM      1  N   UNL d   1     -47.046  32.387  34.124  0.00  0.00    -0.213 N 
ATOM      2  C   UNL d   1     -47.668  32.840  33.815  0.00  0.00     0.157 A 
ATOM      3  N   UNL d   1     -47.336  33.404  33.311  0.00  0.00    -0.224 NA
ATOM      4  C   UNL d   1     -46.338  32.672  33.809  0.00  0.00     0.114 A 
ATOM      5  C   UNL d   1     -46.520  33.301  33.307  0.00  0.00     0.120 A 
ENDROOT
BRANCH   1   6
ATOM      6  S   UNL d   1     -47.123  31.759  34.653  0.00  0.00     0.273 S 
ATOM      7  O   UNL d   1     -47.193  31.234  34.020  0.00  0.00    -0.200 OA
ATOM      8  O   UNL d   1     -47.053  32.281  35.283  0.00  0.00    -0.200 OA
BRANCH   6   9
ATOM      9  C   UNL d   1     -47.199  31.133  35.180  0.00  0.00     0.104 A 
ATOM     10  C   UNL d   1     -47.483  30.401  34.922  0.00  0.00     0.015 A 
ATOM     11  C   UNL d   1     -47.563  29.767  35.446  0.00  0.00     0.028 A 
ATOM     12  C   UNL d   1     -47.845  29.043  35.185  0.00  0.00     0.002 C 
ATOM     13  C   UNL d   1     -47.353  29.874  36.242  0.00  0.00     0.140 A 
ATOM     14  C   UNL d   1     -47.071  30.597  36.502  0.00  0.00     0.030 A 
ATOM     15  F   UNL d   1     -47.430  29.248  36.769  0.00  0.00    -0.204 F 
ATOM     16  C   UNL d   1     -46.994  31.226  35.972  0.00  0.00     0.015 A 
ENDBRANCH   6   9
ENDBRANCH   1   6
BRANCH   2  17
ATOM     17  C   UNL d   1     -48.469  32.745  33.981  0.00  0.00     0.035 A 
ATOM     18  C   UNL d   1     -48.917  32.196  33.555  0.00  0.00     0.003 A 
ATOM     19  C   UNL d   1     -49.720  32.099  33.718  0.00  0.00     0.000 A 
ATOM     20  C   UNL d   1     -50.073  32.553  34.310  0.00  0.00     0.000 A 
ATOM     21  C   UNL d   1     -49.624  33.102  34.735  0.00  0.00     0.000 A 
ATOM     22  C   UNL d   1     -48.823  33.197  34.570  0.00  0.00     0.003 A 
ENDBRANCH   2  17
TORSDOF 3
ENDMDL
