MODEL 1
REMARK VINA RESULT:      43.9      0.000      0.000
REMARK  3 active torsions:
REMARK  status: ('A' for Active; 'I' for Inactive)
REMARK    1  A    between atoms: S_11  and  C_7 
REMARK    2  A    between atoms: C_12  and  S_11 
REMARK    3  A    between atoms: C_14  and  C_12 
ROOT
ATOM      1  N   UNL d   1     -52.060  24.949  33.307  0.00  0.00    -0.167 N 
ATOM      2  C   UNL d   1     -51.348  24.544  33.307  0.00  0.00     0.220 A 
ATOM      3  C   UNL d   1     -52.782  24.541  33.307  0.00  0.00     0.301 A 
ATOM      4  S   UNL d   1     -50.741  25.105  33.306  0.00  0.00    -0.019 SA
ATOM      5  N   UNL d   1     -51.906  25.753  33.307  0.00  0.00    -0.147 NA
ATOM      6  N   UNL d   1     -51.341  23.721  33.307  0.00  0.00    -0.121 NA
ATOM      7  C   UNL d   1     -51.088  25.849  33.306  0.00  0.00     0.163 A 
ATOM      8  N   UNL d   1     -52.048  23.303  33.307  0.00  0.00    -0.141 NA
ATOM      9  C   UNL d   1     -52.765  23.711  33.307  0.00  0.00     0.161 A 
ATOM     10  O   UNL d   1     -53.492  24.945  33.307  0.00  0.00    -0.263 OA
ATOM     11  C   UNL d   1     -53.476  23.296  33.307  0.00  0.00     0.028 C 
ENDROOT
BRANCH   7  12
ATOM     12  S   UNL d   1     -50.685  26.569  33.306  0.00  0.00    -0.059 SA
BRANCH  12  13
ATOM     13  C   UNL d   1     -50.297  26.828  33.981  0.00  0.00     0.037 C 
BRANCH  13  14
ATOM     14  C   UNL d   1     -49.920  27.565  33.980  0.00  0.00     0.006 A 
ATOM     15  C   UNL d   1     -49.317  27.719  34.521  0.00  0.00     0.001 A 
ATOM     16  C   UNL d   1     -48.939  28.446  34.527  0.00  0.00     0.000 A 
ATOM     17  C   UNL d   1     -48.342  28.598  35.063  0.00  0.00     0.000 C 
ATOM     18  C   UNL d   1     -49.163  29.032  33.987  0.00  0.00     0.000 A 
ATOM     19  C   UNL d   1     -49.766  28.882  33.444  0.00  0.00     0.000 A 
ATOM     20  C   UNL d   1     -50.145  28.150  33.440  0.00  0.00     0.001 A 
ENDBRANCH  13  14
ENDBRANCH  12  13
ENDBRANCH   7  12
TORSDOF 3
ENDMDL
