MODEL 1
REMARK VINA RESULT:      63.0      0.000      0.000
REMARK  7 active torsions:
REMARK  status: ('A' for Active; 'I' for Inactive)
REMARK    1  A    between atoms: N_2  and  S_1 
REMARK    2  A    between atoms: C_6  and  S_1 
REMARK    3  A    between atoms: C_3  and  N_2 
REMARK       I    between atoms: C_7  and  N_10 
REMARK    4  A    between atoms: C_17  and  C_7 
REMARK    5  A    between atoms: N_10  and  C_18 
REMARK    6  A    between atoms: C_19  and  C_17 
REMARK    7  A    between atoms: O_27  and  C_20 
ROOT
ATOM      1  C   UNL d   1     -50.565  26.771  34.053  0.00  0.00     0.106 A 
ATOM      2  C   UNL d   1     -50.419  26.721  34.871  0.00  0.00     0.015 A 
ATOM      3  C   UNL d   1     -50.061  27.179  33.556  0.00  0.00     0.015 A 
ATOM      4  C   UNL d   1     -49.229  27.510  34.679  0.00  0.00     0.085 A 
ATOM      5  C   UNL d   1     -49.750  27.094  35.165  0.00  0.00     0.020 A 
ATOM      6  C   UNL d   1     -49.391  27.549  33.874  0.00  0.00     0.020 A 
ENDROOT
BRANCH   1   7
ATOM      7  S   UNL d   1     -51.250  26.393  33.732  0.00  0.00     0.300 S 
ATOM      8  O   UNL d   1     -50.734  25.867  33.307  0.00  0.00    -0.198 OA
ATOM      9  O   UNL d   1     -51.734  26.919  34.158  0.00  0.00    -0.198 OA
BRANCH   7  10
ATOM     10  N   UNL d   1     -51.907  26.007  33.405  0.00  0.00     0.034 NA
BRANCH  10  11
ATOM     11  C   UNL d   1     -51.954  25.153  33.496  0.00  0.00     0.760 A 
ATOM     12  N   UNL d   1     -52.675  24.817  33.727  0.00  0.00    -0.059 NA
ATOM     13  C   UNL d   1     -52.724  23.993  33.816  0.00  0.00     0.101 A 
ATOM     14  C   UNL d   1     -53.461  23.620  34.054  0.00  0.00     0.021 C 
ATOM     15  C   UNL d   1     -52.066  23.528  33.675  0.00  0.00     0.040 A 
ATOM     16  C   UNL d   1     -51.374  23.886  33.451  0.00  0.00     0.101 A 
ATOM     17  N   UNL d   1     -51.309  24.695  33.359  0.00  0.00    -0.059 NA
ATOM     18  C   UNL d   1     -50.708  23.384  33.311  0.00  0.00     0.021 C 
ENDBRANCH  10  11
ENDBRANCH   7  10
ENDBRANCH   1   7
BRANCH   4  19
ATOM     19  N   UNL d   1     -48.553  27.888  34.971  0.00  0.00    -0.208 NA
ATOM     20  C   UNL d   1     -48.601  28.370  35.652  0.00  0.00     0.279 C 
ATOM     21  O   UNL d   1     -49.341  28.474  36.049  0.00  0.00    -0.265 OA
BRANCH  20  22
ATOM     22  C   UNL d   1     -47.924  28.741  35.934  0.00  0.00     0.062 C 
BRANCH  22  23
ATOM     23  C   UNL d   1     -47.724  29.536  35.677  0.00  0.00     0.005 A 
ATOM     24  C   UNL d   1     -47.201  29.641  35.046  0.00  0.00     0.002 A 
ATOM     25  C   UNL d   1     -47.010  30.401  34.802  0.00  0.00     0.024 A 
ATOM     26  C   UNL d   1     -47.330  31.064  35.172  0.00  0.00     0.094 A 
ATOM     27  C   UNL d   1     -47.843  30.971  35.790  0.00  0.00     0.024 A 
ATOM     28  C   UNL d   1     -48.043  30.217  36.046  0.00  0.00     0.002 A 
BRANCH  26  29
ATOM     29  O   UNL d   1     -47.108  31.834  34.889  0.00  0.00    -0.328 OA
ATOM     30  C   UNL d   1     -47.611  32.297  34.425  0.00  0.00     0.181 C 
ENDBRANCH  26  29
ENDBRANCH  22  23
ENDBRANCH  20  22
ENDBRANCH   4  19
TORSDOF 7
ENDMDL
