MODEL 1
REMARK VINA RESULT:      -2.2      0.000      0.000
REMARK  5 active torsions:
REMARK  status: ('A' for Active; 'I' for Inactive)
REMARK    1  A    between atoms: C_6  and  N_1 
REMARK    2  A    between atoms: C_7  and  C_2 
REMARK    3  A    between atoms: C_12  and  C_6 
REMARK    4  A    between atoms: C_11  and  C_7 
REMARK       I    between atoms: C_8  and  N_10 
REMARK    5  A    between atoms: N_10  and  C_11 
ROOT
ATOM      1  N   UNL d   1      30.608  16.336 -24.542  0.00  0.00    -0.289 N 
ATOM      2  C   UNL d   1      30.822  17.103 -24.786  0.00  0.00     0.149 A 
ATOM      3  N   UNL d   1      30.179  17.604 -24.649  0.00  0.00    -0.227 NA
ATOM      4  C   UNL d   1      29.831  16.366 -24.254  0.00  0.00     0.083 A 
ATOM      5  C   UNL d   1      29.565  17.153 -24.321  0.00  0.00     0.099 A 
ATOM      6  C   UNL d   1      29.329  15.786 -23.941  0.00  0.00     0.019 A 
ATOM      7  C   UNL d   1      28.799  17.352 -24.074  0.00  0.00     0.021 A 
ATOM      8  C   UNL d   1      28.570  15.987 -23.697  0.00  0.00     0.002 A 
ATOM      9  C   UNL d   1      28.306  16.766 -23.763  0.00  0.00     0.002 A 
ENDROOT
BRANCH   1  10
ATOM     10  C   UNL d   1      31.083  15.661 -24.578  0.00  0.00     0.082 C 
BRANCH  10  11
ATOM     11  C   UNL d   1      31.741  15.591 -24.088  0.00  0.00     0.018 A 
ATOM     12  C   UNL d   1      31.640  15.591 -23.271  0.00  0.00     0.002 A 
ATOM     13  C   UNL d   1      32.300  15.521 -22.770  0.00  0.00     0.000 A 
ATOM     14  C   UNL d   1      33.044  15.453 -23.105  0.00  0.00     0.000 A 
ATOM     15  C   UNL d   1      33.143  15.453 -23.926  0.00  0.00     0.000 A 
ATOM     16  C   UNL d   1      32.486  15.522 -24.417  0.00  0.00     0.002 A 
ENDBRANCH  10  11
ENDBRANCH   1  10
BRANCH   2  17
ATOM     17  C   UNL d   1      31.319  17.681 -25.097  0.00  0.00     0.058 C 
BRANCH  17  18
ATOM     18  C   UNL d   1      31.514  18.340 -24.645  0.00  0.00     0.105 C 
BRANCH  18  19
ATOM     19  N   UNL d   1      32.103  18.853 -24.902  0.00  0.00    -0.206 NA
ATOM     20  C   UNL d   1      32.604  19.211 -24.361  0.00  0.00     0.280 C 
ATOM     21  O   UNL d   1      32.516  19.053 -23.556  0.00  0.00    -0.265 OA
ATOM     22  C   UNL d   1      33.195  19.726 -24.618  0.00  0.00     0.068 C 
ENDBRANCH  18  19
ENDBRANCH  17  18
ENDBRANCH   2  17
TORSDOF 5
ENDMDL
MODEL 2
REMARK VINA RESULT:      -1.0      1.429      3.500
REMARK  5 active torsions:
REMARK  status: ('A' for Active; 'I' for Inactive)
REMARK    1  A    between atoms: C_6  and  N_1 
REMARK    2  A    between atoms: C_7  and  C_2 
REMARK    3  A    between atoms: C_12  and  C_6 
REMARK    4  A    between atoms: C_11  and  C_7 
REMARK       I    between atoms: C_8  and  N_10 
REMARK    5  A    between atoms: N_10  and  C_11 
ROOT
ATOM      1  N   UNL d   1      32.446  17.329 -24.515  0.00  0.00    -0.289 N 
ATOM      2  C   UNL d   1      31.636  17.351 -24.708  0.00  0.00     0.149 A 
ATOM      3  N   UNL d   1      31.256  16.753 -24.280  0.00  0.00    -0.227 NA
ATOM      4  C   UNL d   1      32.563  16.717 -23.968  0.00  0.00     0.083 A 
ATOM      5  C   UNL d   1      31.825  16.360 -23.822  0.00  0.00     0.099 A 
ATOM      6  C   UNL d   1      33.241  16.436 -23.583  0.00  0.00     0.019 A 
ATOM      7  C   UNL d   1      31.771  15.725 -23.292  0.00  0.00     0.021 A 
ATOM      8  C   UNL d   1      33.184  15.806 -23.057  0.00  0.00     0.002 A 
ATOM      9  C   UNL d   1      32.453  15.453 -22.913  0.00  0.00     0.002 A 
ENDROOT
BRANCH   1  10
ATOM     10  C   UNL d   1      33.032  17.827 -24.815  0.00  0.00     0.082 C 
BRANCH  10  11
ATOM     11  C   UNL d   1      33.092  18.604 -24.548  0.00  0.00     0.018 A 
ATOM     12  C   UNL d   1      33.176  18.751 -23.742  0.00  0.00     0.002 A 
ATOM     13  C   UNL d   1      33.237  19.532 -23.466  0.00  0.00     0.000 A 
ATOM     14  C   UNL d   1      33.211  20.145 -24.008  0.00  0.00     0.000 A 
ATOM     15  C   UNL d   1      33.127  19.996 -24.817  0.00  0.00     0.000 A 
ATOM     16  C   UNL d   1      33.068  19.220 -25.085  0.00  0.00     0.002 A 
ENDBRANCH  10  11
ENDBRANCH   1  10
BRANCH   2  17
ATOM     17  C   UNL d   1      30.962  17.628 -25.089  0.00  0.00     0.058 C 
BRANCH  17  18
ATOM     18  C   UNL d   1      30.221  17.506 -24.752  0.00  0.00     0.105 C 
BRANCH  18  19
ATOM     19  N   UNL d   1      29.626  18.064 -24.856  0.00  0.00    -0.206 NA
ATOM     20  C   UNL d   1      28.845  17.870 -24.700  0.00  0.00     0.280 C 
ATOM     21  O   UNL d   1      28.658  17.111 -24.438  0.00  0.00    -0.265 OA
ATOM     22  C   UNL d   1      28.248  18.430 -24.804  0.00  0.00     0.068 C 
ENDBRANCH  18  19
ENDBRANCH  17  18
ENDBRANCH   2  17
TORSDOF 5
ENDMDL
MODEL 3
REMARK VINA RESULT:       0.1      3.301      6.101
REMARK  5 active torsions:
REMARK  status: ('A' for Active; 'I' for Inactive)
REMARK    1  A    between atoms: C_6  and  N_1 
REMARK    2  A    between atoms: C_7  and  C_2 
REMARK    3  A    between atoms: C_12  and  C_6 
REMARK    4  A    between atoms: C_11  and  C_7 
REMARK       I    between atoms: C_8  and  N_10 
REMARK    5  A    between atoms: N_10  and  C_11 
ROOT
ATOM      1  N   UNL d   1      32.958  21.961 -22.481  0.00  0.00    -0.289 N 
ATOM      2  C   UNL d   1      33.022  21.158 -22.691  0.00  0.00     0.149 A 
ATOM      3  N   UNL d   1      32.664  20.709 -22.096  0.00  0.00    -0.227 NA
ATOM      4  C   UNL d   1      32.560  22.005 -21.755  0.00  0.00     0.083 A 
ATOM      5  C   UNL d   1      32.378  21.228 -21.516  0.00  0.00     0.099 A 
ATOM      6  C   UNL d   1      32.338  22.646 -21.278  0.00  0.00     0.019 A 
ATOM      7  C   UNL d   1      31.975  21.099 -20.803  0.00  0.00     0.021 A 
ATOM      8  C   UNL d   1      31.939  22.515 -20.572  0.00  0.00     0.002 A 
ATOM      9  C   UNL d   1      31.759  21.745 -20.335  0.00  0.00     0.002 A 
ENDROOT
BRANCH   1  10
ATOM     10  C   UNL d   1      33.240  22.604 -22.916  0.00  0.00     0.082 C 
BRANCH  10  11
ATOM     11  C   UNL d   1      32.864  22.829 -23.613  0.00  0.00     0.018 A 
ATOM     12  C   UNL d   1      33.098  22.496 -24.328  0.00  0.00     0.002 A 
ATOM     13  C   UNL d   1      32.722  22.719 -25.034  0.00  0.00     0.000 A 
ATOM     14  C   UNL d   1      32.120  23.273 -25.003  0.00  0.00     0.000 A 
ATOM     15  C   UNL d   1      31.885  23.607 -24.284  0.00  0.00     0.000 A 
ATOM     16  C   UNL d   1      32.261  23.382 -23.587  0.00  0.00     0.002 A 
ENDBRANCH  10  11
ENDBRANCH   1  10
BRANCH   2  17
ATOM     17  C   UNL d   1      33.241  20.520 -23.162  0.00  0.00     0.058 C 
BRANCH  17  18
ATOM     18  C   UNL d   1      32.720  19.893 -23.271  0.00  0.00     0.105 C 
BRANCH  18  19
ATOM     19  N   UNL d   1      32.818  19.385 -23.910  0.00  0.00    -0.206 NA
ATOM     20  C   UNL d   1      32.607  18.595 -23.847  0.00  0.00     0.280 C 
ATOM     21  O   UNL d   1      32.294  18.312 -23.138  0.00  0.00    -0.265 OA
ATOM     22  C   UNL d   1      32.705  18.084 -24.487  0.00  0.00     0.068 C 
ENDBRANCH  18  19
ENDBRANCH  17  18
ENDBRANCH   2  17
TORSDOF 5
ENDMDL
