MODEL 1
REMARK VINA RESULT:      -5.8      0.000      0.000
REMARK  9 active torsions:
REMARK  status: ('A' for Active; 'I' for Inactive)
REMARK    1  A    between atoms: C_7  and  C_1 
REMARK    2  A    between atoms: N_6  and  C_2 
REMARK    3  A    between atoms: C_9  and  C_3 
REMARK       I    between atoms: C_8  and  N_6 
REMARK    4  A    between atoms: O_22  and  C_7 
REMARK    5  A    between atoms: C_11  and  C_8 
REMARK    6  A    between atoms: N_10  and  C_15 
REMARK    7  A    between atoms: C_15  and  C_11 
REMARK    8  A    between atoms: C_21  and  C_12 
REMARK    9  A    between atoms: C_29  and  O_22 
ROOT
ATOM      1  C   UNL d   1      49.445  34.762  52.287  0.00  0.00     0.088 A 
ATOM      2  C   UNL d   1      48.889  34.936  51.676  0.00  0.00     0.119 A 
ATOM      3  C   UNL d   1      50.069  34.382  51.939  0.00  0.00     0.014 A 
ATOM      4  S   UNL d   1      49.154  34.678  50.986  0.00  0.00    -0.067 SA
ATOM      5  C   UNL d   1      49.911  34.318  51.133  0.00  0.00     0.037 A 
ENDROOT
BRANCH   3   6
ATOM      6  C   UNL d   1      50.692  34.143  52.379  0.00  0.00     0.001 A 
ATOM      7  C   UNL d   1      50.664  33.486  52.841  0.00  0.00     0.000 A 
ATOM      8  C   UNL d   1      51.329  33.247  53.301  0.00  0.00     0.000 A 
ATOM      9  C   UNL d   1      51.981  33.661  53.282  0.00  0.00     0.000 A 
ATOM     10  C   UNL d   1      52.052  34.339  52.823  0.00  0.00     0.000 A 
ATOM     11  C   UNL d   1      51.406  34.614  52.346  0.00  0.00     0.000 A 
BRANCH   9  12
ATOM     12  C   UNL d   1      52.618  33.417  53.733  0.00  0.00     0.000 A 
ATOM     13  C   UNL d   1      53.004  32.717  53.536  0.00  0.00     0.000 A 
ATOM     14  C   UNL d   1      53.646  32.468  53.987  0.00  0.00     0.000 A 
ATOM     15  C   UNL d   1      53.890  32.908  54.613  0.00  0.00     0.000 A 
ATOM     16  C   UNL d   1      53.503  33.616  54.817  0.00  0.00     0.000 A 
ATOM     17  C   UNL d   1      52.858  33.863  54.360  0.00  0.00     0.000 A 
ENDBRANCH   9  12
ENDBRANCH   3   6
BRANCH   1  18
ATOM     18  C   UNL d   1      49.369  34.951  53.129  0.00  0.00     0.302 C 
ATOM     19  O   UNL d   1      49.350  34.328  53.690  0.00  0.00    -0.259 OA
BRANCH  18  20
ATOM     20  O   UNL d   1      49.317  35.742  53.366  0.00  0.00    -0.271 OA
BRANCH  20  21
ATOM     21  C   UNL d   1      48.958  35.937  54.122  0.00  0.00     0.126 C 
ATOM     22  C   UNL d   1      48.752  36.702  54.269  0.00  0.00     0.029 C 
ENDBRANCH  20  21
ENDBRANCH  18  20
ENDBRANCH   1  18
BRANCH   2  23
ATOM     23  N   UNL d   1      48.127  35.336  51.742  0.00  0.00    -0.201 NA
ATOM     24  C   UNL d   1      47.511  35.108  51.248  0.00  0.00     0.281 C 
ATOM     25  O   UNL d   1      47.620  34.479  50.672  0.00  0.00    -0.265 OA
BRANCH  24  26
ATOM     26  C   UNL d   1      46.765  35.477  51.290  0.00  0.00     0.082 C 
BRANCH  26  27
ATOM     27  C   UNL d   1      46.164  35.164  51.784  0.00  0.00     0.085 C 
BRANCH  27  28
ATOM     28  N   UNL d   1      45.553  35.638  52.068  0.00  0.00    -0.299 N 
ATOM     29  C   UNL d   1      45.102  36.119  51.531  0.00  0.00     0.107 A 
ATOM     30  C   UNL d   1      44.491  36.592  51.821  0.00  0.00     0.142 A 
ATOM     31  O   UNL d   1      44.329  36.590  52.624  0.00  0.00    -0.300 OA
ATOM     32  C   UNL d   1      44.759  36.120  53.202  0.00  0.00     0.142 A 
ATOM     33  C   UNL d   1      45.368  35.650  52.905  0.00  0.00     0.107 A 
ENDBRANCH  27  28
ENDBRANCH  26  27
ENDBRANCH  24  26
ENDBRANCH   2  23
TORSDOF 9
ENDMDL
MODEL 2
REMARK VINA RESULT:      -4.9      2.724      6.473
REMARK  9 active torsions:
REMARK  status: ('A' for Active; 'I' for Inactive)
REMARK    1  A    between atoms: C_7  and  C_1 
REMARK    2  A    between atoms: N_6  and  C_2 
REMARK    3  A    between atoms: C_9  and  C_3 
REMARK       I    between atoms: C_8  and  N_6 
REMARK    4  A    between atoms: O_22  and  C_7 
REMARK    5  A    between atoms: C_11  and  C_8 
REMARK    6  A    between atoms: N_10  and  C_15 
REMARK    7  A    between atoms: C_15  and  C_11 
REMARK    8  A    between atoms: C_21  and  C_12 
REMARK    9  A    between atoms: C_29  and  O_22 
ROOT
ATOM      1  C   UNL d   1      51.574  33.775  52.945  0.00  0.00     0.088 A 
ATOM      2  C   UNL d   1      52.072  33.096  53.005  0.00  0.00     0.119 A 
ATOM      3  C   UNL d   1      50.821  33.506  52.813  0.00  0.00     0.014 A 
ATOM      4  S   UNL d   1      51.652  32.441  52.914  0.00  0.00    -0.067 SA
ATOM      5  C   UNL d   1      50.845  32.683  52.790  0.00  0.00     0.037 A 
ENDROOT
BRANCH   3   6
ATOM      6  C   UNL d   1      50.217  34.023  52.730  0.00  0.00     0.001 A 
ATOM      7  C   UNL d   1      49.832  34.336  53.362  0.00  0.00     0.000 A 
ATOM      8  C   UNL d   1      49.197  34.881  53.260  0.00  0.00     0.000 A 
ATOM      9  C   UNL d   1      48.975  35.088  52.550  0.00  0.00     0.000 A 
ATOM     10  C   UNL d   1      49.343  34.791  51.876  0.00  0.00     0.000 A 
ATOM     11  C   UNL d   1      49.986  34.241  51.936  0.00  0.00     0.000 A 
BRANCH   9  12
ATOM     12  C   UNL d   1      48.358  35.618  52.465  0.00  0.00     0.000 A 
ATOM     13  C   UNL d   1      47.880  35.572  51.797  0.00  0.00     0.000 A 
ATOM     14  C   UNL d   1      47.257  36.103  51.708  0.00  0.00     0.000 A 
ATOM     15  C   UNL d   1      47.122  36.659  52.272  0.00  0.00     0.000 A 
ATOM     16  C   UNL d   1      47.602  36.709  52.949  0.00  0.00     0.000 A 
ATOM     17  C   UNL d   1      48.227  36.173  53.035  0.00  0.00     0.000 A 
ENDBRANCH   9  12
ENDBRANCH   3   6
BRANCH   1  18
ATOM     18  C   UNL d   1      51.814  34.604  53.012  0.00  0.00     0.302 C 
ATOM     19  O   UNL d   1      51.952  35.049  52.314  0.00  0.00    -0.259 OA
BRANCH  18  20
ATOM     20  O   UNL d   1      51.903  34.943  53.761  0.00  0.00    -0.271 OA
BRANCH  20  21
ATOM     21  C   UNL d   1      52.487  35.562  53.881  0.00  0.00     0.126 C 
ATOM     22  C   UNL d   1      52.559  35.893  54.613  0.00  0.00     0.029 C 
ENDBRANCH  20  21
ENDBRANCH  18  20
ENDBRANCH   1  18
BRANCH   2  23
ATOM     23  N   UNL d   1      52.924  33.065  53.144  0.00  0.00    -0.201 NA
ATOM     24  C   UNL d   1      53.268  32.353  53.367  0.00  0.00     0.281 C 
ATOM     25  O   UNL d   1      52.789  31.645  53.462  0.00  0.00    -0.265 OA
BRANCH  24  26
ATOM     26  C   UNL d   1      54.087  32.295  53.507  0.00  0.00     0.082 C 
BRANCH  26  27
ATOM     27  C   UNL d   1      54.378  32.219  54.290  0.00  0.00     0.085 C 
BRANCH  27  28
ATOM     28  N   UNL d   1      54.768  32.842  54.663  0.00  0.00    -0.299 N 
ATOM     29  C   UNL d   1      54.570  33.050  55.464  0.00  0.00     0.107 A 
ATOM     30  C   UNL d   1      54.963  33.674  55.833  0.00  0.00     0.142 A 
ATOM     31  O   UNL d   1      55.540  34.085  55.420  0.00  0.00    -0.300 OA
ATOM     32  C   UNL d   1      55.772  33.909  54.611  0.00  0.00     0.142 A 
ATOM     33  C   UNL d   1      55.374  33.284  54.248  0.00  0.00     0.107 A 
ENDBRANCH  27  28
ENDBRANCH  26  27
ENDBRANCH  24  26
ENDBRANCH   2  23
TORSDOF 9
ENDMDL
MODEL 3
REMARK VINA RESULT:      -3.9      1.612      2.295
REMARK  9 active torsions:
REMARK  status: ('A' for Active; 'I' for Inactive)
REMARK    1  A    between atoms: C_7  and  C_1 
REMARK    2  A    between atoms: N_6  and  C_2 
REMARK    3  A    between atoms: C_9  and  C_3 
REMARK       I    between atoms: C_8  and  N_6 
REMARK    4  A    between atoms: O_22  and  C_7 
REMARK    5  A    between atoms: C_11  and  C_8 
REMARK    6  A    between atoms: N_10  and  C_15 
REMARK    7  A    between atoms: C_15  and  C_11 
REMARK    8  A    between atoms: C_21  and  C_12 
REMARK    9  A    between atoms: C_29  and  O_22 
ROOT
ATOM      1  C   UNL d   1      50.527  34.308  52.980  0.00  0.00     0.088 A 
ATOM      2  C   UNL d   1      49.889  34.756  52.657  0.00  0.00     0.119 A 
ATOM      3  C   UNL d   1      50.678  33.703  52.462  0.00  0.00     0.014 A 
ATOM      4  S   UNL d   1      49.656  34.447  51.976  0.00  0.00    -0.067 SA
ATOM      5  C   UNL d   1      50.150  33.769  51.833  0.00  0.00     0.037 A 
ENDROOT
BRANCH   3   6
ATOM      6  C   UNL d   1      51.260  33.176  52.617  0.00  0.00     0.001 A 
ATOM      7  C   UNL d   1      51.999  33.254  52.314  0.00  0.00     0.000 A 
ATOM      8  C   UNL d   1      52.603  32.691  52.485  0.00  0.00     0.000 A 
ATOM      9  C   UNL d   1      52.450  32.087  52.941  0.00  0.00     0.000 A 
ATOM     10  C   UNL d   1      51.706  31.970  53.272  0.00  0.00     0.000 A 
ATOM     11  C   UNL d   1      51.071  32.514  53.124  0.00  0.00     0.000 A 
BRANCH   9  12
ATOM     12  C   UNL d   1      53.045  31.548  53.099  0.00  0.00     0.000 A 
ATOM     13  C   UNL d   1      53.013  30.804  52.749  0.00  0.00     0.000 A 
ATOM     14  C   UNL d   1      53.611  30.258  52.906  0.00  0.00     0.000 A 
ATOM     15  C   UNL d   1      54.216  30.458  53.396  0.00  0.00     0.000 A 
ATOM     16  C   UNL d   1      54.251  31.209  53.751  0.00  0.00     0.000 A 
ATOM     17  C   UNL d   1      53.649  31.754  53.591  0.00  0.00     0.000 A 
ENDBRANCH   9  12
ENDBRANCH   3   6
BRANCH   1  18
ATOM     18  C   UNL d   1      50.946  34.459  53.723  0.00  0.00     0.302 C 
ATOM     19  O   UNL d   1      50.667  34.107  54.431  0.00  0.00    -0.259 OA
BRANCH  18  20
ATOM     20  O   UNL d   1      51.614  34.948  53.721  0.00  0.00    -0.271 OA
BRANCH  20  21
ATOM     21  C   UNL d   1      51.898  35.281  54.460  0.00  0.00     0.126 C 
ATOM     22  C   UNL d   1      52.634  35.610  54.481  0.00  0.00     0.029 C 
ENDBRANCH  20  21
ENDBRANCH  18  20
ENDBRANCH   1  18
BRANCH   2  23
ATOM     23  N   UNL d   1      49.508  35.459  52.983  0.00  0.00    -0.201 NA
ATOM     24  C   UNL d   1      48.719  35.606  52.805  0.00  0.00     0.281 C 
ATOM     25  O   UNL d   1      48.275  35.068  52.302  0.00  0.00    -0.265 OA
BRANCH  24  26
ATOM     26  C   UNL d   1      48.326  36.276  53.106  0.00  0.00     0.082 C 
BRANCH  26  27
ATOM     27  C   UNL d   1      47.489  36.318  53.092  0.00  0.00     0.085 C 
BRANCH  27  28
ATOM     28  N   UNL d   1      47.053  36.396  53.787  0.00  0.00    -0.299 N 
ATOM     29  C   UNL d   1      47.438  36.633  54.507  0.00  0.00     0.107 A 
ATOM     30  C   UNL d   1      46.995  36.709  55.200  0.00  0.00     0.142 A 
ATOM     31  O   UNL d   1      46.191  36.555  55.182  0.00  0.00    -0.300 OA
ATOM     32  C   UNL d   1      45.762  36.314  54.477  0.00  0.00     0.142 A 
ATOM     33  C   UNL d   1      46.210  36.240  53.788  0.00  0.00     0.107 A 
ENDBRANCH  27  28
ENDBRANCH  26  27
ENDBRANCH  24  26
ENDBRANCH   2  23
TORSDOF 9
ENDMDL
MODEL 4
REMARK VINA RESULT:      -3.3      1.651      6.331
REMARK  9 active torsions:
REMARK  status: ('A' for Active; 'I' for Inactive)
REMARK    1  A    between atoms: C_7  and  C_1 
REMARK    2  A    between atoms: N_6  and  C_2 
REMARK    3  A    between atoms: C_9  and  C_3 
REMARK       I    between atoms: C_8  and  N_6 
REMARK    4  A    between atoms: O_22  and  C_7 
REMARK    5  A    between atoms: C_11  and  C_8 
REMARK    6  A    between atoms: N_10  and  C_15 
REMARK    7  A    between atoms: C_15  and  C_11 
REMARK    8  A    between atoms: C_21  and  C_12 
REMARK    9  A    between atoms: C_29  and  O_22 
ROOT
ATOM      1  C   UNL d   1      49.301  34.873  52.382  0.00  0.00     0.088 A 
ATOM      2  C   UNL d   1      50.079  34.563  52.275  0.00  0.00     0.119 A 
ATOM      3  C   UNL d   1      48.930  34.833  51.663  0.00  0.00     0.014 A 
ATOM      4  S   UNL d   1      50.184  34.341  51.532  0.00  0.00    -0.067 SA
ATOM      5  C   UNL d   1      49.457  34.507  51.122  0.00  0.00     0.037 A 
ENDROOT
BRANCH   3   6
ATOM      6  C   UNL d   1      48.176  35.089  51.584  0.00  0.00     0.001 A 
ATOM      7  C   UNL d   1      47.989  35.870  51.560  0.00  0.00     0.000 A 
ATOM      8  C   UNL d   1      47.190  36.125  51.476  0.00  0.00     0.000 A 
ATOM      9  C   UNL d   1      46.622  35.606  51.422  0.00  0.00     0.000 A 
ATOM     10  C   UNL d   1      46.769  34.796  51.442  0.00  0.00     0.000 A 
ATOM     11  C   UNL d   1      47.560  34.498  51.525  0.00  0.00     0.000 A 
BRANCH   9  12
ATOM     12  C   UNL d   1      45.851  35.867  51.341  0.00  0.00     0.000 A 
ATOM     13  C   UNL d   1      45.375  35.535  50.758  0.00  0.00     0.000 A 
ATOM     14  C   UNL d   1      44.598  35.796  50.674  0.00  0.00     0.000 A 
ATOM     15  C   UNL d   1      44.314  36.370  51.159  0.00  0.00     0.000 A 
ATOM     16  C   UNL d   1      44.792  36.709  51.749  0.00  0.00     0.000 A 
ATOM     17  C   UNL d   1      45.572  36.444  51.830  0.00  0.00     0.000 A 
ENDBRANCH   9  12
ENDBRANCH   3   6
BRANCH   1  18
ATOM     18  C   UNL d   1      48.958  35.179  53.116  0.00  0.00     0.302 C 
ATOM     19  O   UNL d   1      48.454  34.687  53.570  0.00  0.00    -0.259 OA
BRANCH  18  20
ATOM     20  O   UNL d   1      49.134  35.951  53.356  0.00  0.00    -0.271 OA
BRANCH  20  21
ATOM     21  C   UNL d   1      49.070  36.163  54.187  0.00  0.00     0.126 C 
ATOM     22  C   UNL d   1      48.518  36.706  54.409  0.00  0.00     0.029 C 
ENDBRANCH  20  21
ENDBRANCH  18  20
ENDBRANCH   1  18
BRANCH   2  23
ATOM     23  N   UNL d   1      50.707  34.477  52.862  0.00  0.00    -0.201 NA
ATOM     24  C   UNL d   1      51.475  34.333  52.607  0.00  0.00     0.281 C 
ATOM     25  O   UNL d   1      51.655  34.268  51.769  0.00  0.00    -0.265 OA
BRANCH  24  26
ATOM     26  C   UNL d   1      52.101  34.246  53.151  0.00  0.00     0.082 C 
BRANCH  26  27
ATOM     27  C   UNL d   1      52.702  33.677  53.017  0.00  0.00     0.085 C 
BRANCH  27  28
ATOM     28  N   UNL d   1      53.222  33.455  53.616  0.00  0.00    -0.299 N 
ATOM     29  C   UNL d   1      53.476  34.026  54.193  0.00  0.00     0.107 A 
ATOM     30  C   UNL d   1      53.997  33.798  54.791  0.00  0.00     0.142 A 
ATOM     31  O   UNL d   1      54.263  33.024  54.818  0.00  0.00    -0.300 OA
ATOM     32  C   UNL d   1      54.033  32.415  54.256  0.00  0.00     0.142 A 
ATOM     33  C   UNL d   1      53.512  32.649  53.661  0.00  0.00     0.107 A 
ENDBRANCH  27  28
ENDBRANCH  26  27
ENDBRANCH  24  26
ENDBRANCH   2  23
TORSDOF 9
ENDMDL
