MODEL 1
REMARK VINA RESULT:      56.2      0.000      0.000
REMARK  4 active torsions:
REMARK  status: ('A' for Active; 'I' for Inactive)
REMARK    1  A    between atoms: C_17  and  N_3 
REMARK    2  A    between atoms: C_9  and  C_5 
REMARK    3  A    between atoms: O_21  and  C_12 
REMARK    4  A    between atoms: C_19  and  C_17 
ROOT
ATOM      1  C   UNL d   1      14.561  14.057  -1.811  0.00  0.00     0.083 A 
ATOM      2  C   UNL d   1      14.973  14.168  -1.110  0.00  0.00     0.161 A 
ATOM      3  N   UNL d   1      14.705  12.846  -1.206  0.00  0.00    -0.272 N 
ATOM      4  C   UNL d   1      15.063  13.435  -0.737  0.00  0.00     0.288 A 
ATOM      5  C   UNL d   1      14.390  13.223  -1.877  0.00  0.00     0.072 A 
ATOM      6  C   UNL d   1      14.386  14.693  -2.307  0.00  0.00     0.201 A 
ATOM      7  O   UNL d   1      15.216  14.939  -0.899  0.00  0.00    -0.302 OA
ATOM      8  C   UNL d   1      14.629  15.456  -2.095  0.00  0.00     0.062 A 
ATOM      9  C   UNL d   1      15.047  15.580  -1.385  0.00  0.00     0.103 A 
ATOM     10  O   UNL d   1      15.446  13.299  -0.015  0.00  0.00    -0.264 OA
ATOM     11  O   UNL d   1      13.972  14.571  -3.010  0.00  0.00    -0.286 OA
ATOM     12  C   UNL d   1      14.456  16.100  -2.589  0.00  0.00     0.005 A 
ATOM     13  C   UNL d   1      15.288  16.346  -1.177  0.00  0.00     0.025 A 
ATOM     14  C   UNL d   1      14.700  16.860  -2.373  0.00  0.00     0.000 A 
ATOM     15  C   UNL d   1      15.115  16.983  -1.670  0.00  0.00     0.002 A 
ENDROOT
BRANCH   5  16
ATOM     16  C   UNL d   1      13.985  12.862  -2.494  0.00  0.00     0.019 A 
ATOM     17  C   UNL d   1      14.131  13.087  -3.267  0.00  0.00     0.029 A 
ATOM     18  C   UNL d   1      13.732  12.733  -3.893  0.00  0.00     0.133 A 
ATOM     19  C   UNL d   1      13.177  12.143  -3.736  0.00  0.00     0.218 A 
ATOM     20  C   UNL d   1      13.027  11.912  -2.951  0.00  0.00     0.044 A 
ATOM     21  O   UNL d   1      12.770  11.779  -4.355  0.00  0.00    -0.284 OA
ATOM     22  C   UNL d   1      13.431  12.273  -2.340  0.00  0.00     0.005 A 
BRANCH  18  23
ATOM     23  O   UNL d   1      13.878  12.958  -4.666  0.00  0.00    -0.325 OA
ATOM     24  C   UNL d   1      13.718  12.435  -5.288  0.00  0.00     0.181 C 
ENDBRANCH  18  23
ENDBRANCH   5  16
BRANCH   3  25
ATOM     25  C   UNL d   1      14.666  12.040  -1.042  0.00  0.00     0.083 C 
BRANCH  25  26
ATOM     26  C   UNL d   1      14.455  11.780  -0.290  0.00  0.00     0.019 C 
ATOM     27  C   UNL d   1      13.686  11.893  -0.015  0.00  0.00     0.002 C 
ENDBRANCH  25  26
ENDBRANCH   3  25
TORSDOF 4
ENDMDL
