MODEL 1
REMARK VINA RESULT:     -10.5      0.000      0.000
REMARK  1 active torsions:
REMARK  status: ('A' for Active; 'I' for Inactive)
REMARK    1  A    between atoms: C_7  and  N_1 
ROOT
ATOM      1  N   UNL d   1     -48.405  13.812  23.022  0.00  0.00    -0.242 N 
ATOM      2  C   UNL d   1     -48.525  13.073  23.299  0.00  0.00     0.267 A 
ATOM      3  C   UNL d   1     -47.648  14.108  22.777  0.00  0.00     0.267 A 
ATOM      4  C   UNL d   1     -47.865  12.568  23.346  0.00  0.00     0.057 A 
ATOM      5  C   UNL d   1     -47.028  13.576  22.842  0.00  0.00     0.057 A 
ATOM      6  C   UNL d   1     -47.153  12.814  23.127  0.00  0.00     0.009 A 
ATOM      7  O   UNL d   1     -47.524  14.869  22.493  0.00  0.00    -0.267 OA
ATOM      8  O   UNL d   1     -49.272  12.811  23.530  0.00  0.00    -0.267 OA
ATOM      9  C   UNL d   1     -46.494  12.304  23.177  0.00  0.00     0.000 A 
ATOM     10  C   UNL d   1     -46.280  13.837  22.610  0.00  0.00     0.005 A 
ATOM     11  C   UNL d   1     -47.992  11.794  23.636  0.00  0.00     0.005 A 
ATOM     12  C   UNL d   1     -45.645  13.339  22.660  0.00  0.00     0.000 A 
ATOM     13  C   UNL d   1     -47.371  11.270  23.698  0.00  0.00     0.000 A 
ATOM     14  C   UNL d   1     -45.770  12.578  22.945  0.00  0.00     0.000 A 
ATOM     15  C   UNL d   1     -46.604  11.556  23.454  0.00  0.00     0.000 A 
ENDROOT
BRANCH   1  16
ATOM     16  C   UNL d   1     -49.064  14.316  22.975  0.00  0.00     0.070 A 
ATOM     17  C   UNL d   1     -49.529  14.357  22.282  0.00  0.00     0.021 A 
ATOM     18  C   UNL d   1     -50.165  14.848  22.248  0.00  0.00     0.043 A 
ATOM     19  C   UNL d   1     -50.392  15.349  22.918  0.00  0.00     0.196 A 
ATOM     20  C   UNL d   1     -49.939  15.317  23.611  0.00  0.00     0.043 A 
ATOM     21  O   UNL d   1     -51.064  15.890  22.930  0.00  0.00    -0.287 OA
ATOM     22  C   UNL d   1     -49.274  14.795  23.631  0.00  0.00     0.021 A 
ENDBRANCH   1  16
TORSDOF 1
ENDMDL
MODEL 2
REMARK VINA RESULT:     -10.1      1.248      3.978
REMARK  1 active torsions:
REMARK  status: ('A' for Active; 'I' for Inactive)
REMARK    1  A    between atoms: C_7  and  N_1 
ROOT
ATOM      1  N   UNL d   1     -48.212  13.349  22.569  0.00  0.00    -0.242 N 
ATOM      2  C   UNL d   1     -48.380  14.075  22.856  0.00  0.00     0.267 A 
ATOM      3  C   UNL d   1     -48.760  12.878  22.125  0.00  0.00     0.267 A 
ATOM      4  C   UNL d   1     -49.139  14.381  22.706  0.00  0.00     0.057 A 
ATOM      5  C   UNL d   1     -49.494  13.220  22.002  0.00  0.00     0.057 A 
ATOM      6  C   UNL d   1     -49.666  13.968  22.297  0.00  0.00     0.009 A 
ATOM      7  O   UNL d   1     -48.588  12.130  21.830  0.00  0.00    -0.267 OA
ATOM      8  O   UNL d   1     -47.827  14.511  23.285  0.00  0.00    -0.267 OA
ATOM      9  C   UNL d   1     -50.427  14.281  22.150  0.00  0.00     0.000 A 
ATOM     10  C   UNL d   1     -50.048  12.783  21.572  0.00  0.00     0.005 A 
ATOM     11  C   UNL d   1     -49.313  15.142  23.006  0.00  0.00     0.005 A 
ATOM     12  C   UNL d   1     -50.783  13.090  21.431  0.00  0.00     0.000 A 
ATOM     13  C   UNL d   1     -50.046  15.477  22.880  0.00  0.00     0.000 A 
ATOM     14  C   UNL d   1     -50.954  13.838  21.727  0.00  0.00     0.000 A 
ATOM     15  C   UNL d   1     -50.606  15.012  22.434  0.00  0.00     0.000 A 
ENDROOT
BRANCH   1  16
ATOM     16  C   UNL d   1     -47.454  13.043  22.720  0.00  0.00     0.070 A 
ATOM     17  C   UNL d   1     -47.316  12.516  23.352  0.00  0.00     0.021 A 
ATOM     18  C   UNL d   1     -46.578  12.227  23.487  0.00  0.00     0.043 A 
ATOM     19  C   UNL d   1     -45.903  12.446  22.991  0.00  0.00     0.196 A 
ATOM     20  C   UNL d   1     -46.026  12.968  22.360  0.00  0.00     0.043 A 
ATOM     21  O   UNL d   1     -45.095  12.163  23.096  0.00  0.00    -0.287 OA
ATOM     22  C   UNL d   1     -46.808  13.264  22.230  0.00  0.00     0.021 A 
ENDBRANCH   1  16
TORSDOF 1
ENDMDL
MODEL 3
REMARK VINA RESULT:     -10.0      1.244      3.769
REMARK  1 active torsions:
REMARK  status: ('A' for Active; 'I' for Inactive)
REMARK    1  A    between atoms: C_7  and  N_1 
ROOT
ATOM      1  N   UNL d   1     -48.193  13.380  22.573  0.00  0.00    -0.242 N 
ATOM      2  C   UNL d   1     -48.707  12.926  22.164  0.00  0.00     0.267 A 
ATOM      3  C   UNL d   1     -48.375  14.157  22.863  0.00  0.00     0.267 A 
ATOM      4  C   UNL d   1     -49.464  13.239  22.018  0.00  0.00     0.057 A 
ATOM      5  C   UNL d   1     -49.132  14.423  22.695  0.00  0.00     0.057 A 
ATOM      6  C   UNL d   1     -49.661  13.954  22.274  0.00  0.00     0.009 A 
ATOM      7  O   UNL d   1     -47.846  14.625  23.283  0.00  0.00    -0.267 OA
ATOM      8  O   UNL d   1     -48.503  12.174  21.894  0.00  0.00    -0.267 OA
ATOM      9  C   UNL d   1     -50.422  14.263  22.125  0.00  0.00     0.000 A 
ATOM     10  C   UNL d   1     -49.336  15.176  22.966  0.00  0.00     0.005 A 
ATOM     11  C   UNL d   1     -50.001  12.762  21.590  0.00  0.00     0.005 A 
ATOM     12  C   UNL d   1     -50.075  15.471  22.818  0.00  0.00     0.000 A 
ATOM     13  C   UNL d   1     -50.753  13.033  21.427  0.00  0.00     0.000 A 
ATOM     14  C   UNL d   1     -50.603  15.001  22.397  0.00  0.00     0.000 A 
ATOM     15  C   UNL d   1     -50.948  13.814  21.714  0.00  0.00     0.000 A 
ENDROOT
BRANCH   1  16
ATOM     16  C   UNL d   1     -47.437  13.068  22.718  0.00  0.00     0.070 A 
ATOM     17  C   UNL d   1     -47.299  12.547  23.356  0.00  0.00     0.021 A 
ATOM     18  C   UNL d   1     -46.562  12.251  23.487  0.00  0.00     0.043 A 
ATOM     19  C   UNL d   1     -45.890  12.456  22.980  0.00  0.00     0.196 A 
ATOM     20  C   UNL d   1     -46.014  12.972  22.345  0.00  0.00     0.043 A 
ATOM     21  O   UNL d   1     -45.084  12.165  23.081  0.00  0.00    -0.287 OA
ATOM     22  C   UNL d   1     -46.794  13.275  22.220  0.00  0.00     0.021 A 
ENDBRANCH   1  16
TORSDOF 1
ENDMDL
MODEL 4
REMARK VINA RESULT:      -7.9      1.271      4.011
REMARK  1 active torsions:
REMARK  status: ('A' for Active; 'I' for Inactive)
REMARK    1  A    between atoms: C_7  and  N_1 
ROOT
ATOM      1  N   UNL d   1     -47.734  13.208  23.091  0.00  0.00    -0.242 N 
ATOM      2  C   UNL d   1     -47.819  13.981  22.912  0.00  0.00     0.267 A 
ATOM      3  C   UNL d   1     -48.373  12.707  23.338  0.00  0.00     0.267 A 
ATOM      4  C   UNL d   1     -48.582  14.309  22.974  0.00  0.00     0.057 A 
ATOM      5  C   UNL d   1     -49.105  13.072  23.384  0.00  0.00     0.057 A 
ATOM      6  C   UNL d   1     -49.192  13.870  23.200  0.00  0.00     0.009 A 
ATOM      7  O   UNL d   1     -48.286  11.911  23.522  0.00  0.00    -0.267 OA
ATOM      8  O   UNL d   1     -47.180  14.446  22.675  0.00  0.00    -0.267 OA
ATOM      9  C   UNL d   1     -49.955  14.203  23.260  0.00  0.00     0.000 A 
ATOM     10  C   UNL d   1     -49.745  12.608  23.621  0.00  0.00     0.005 A 
ATOM     11  C   UNL d   1     -48.669  15.119  22.787  0.00  0.00     0.005 A 
ATOM     12  C   UNL d   1     -50.482  12.935  23.678  0.00  0.00     0.000 A 
ATOM     13  C   UNL d   1     -49.401  15.476  22.835  0.00  0.00     0.000 A 
ATOM     14  C   UNL d   1     -50.568  13.732  23.494  0.00  0.00     0.000 A 
ATOM     15  C   UNL d   1     -50.052  14.982  23.082  0.00  0.00     0.000 A 
ENDROOT
BRANCH   1  16
ATOM     16  C   UNL d   1     -46.972  12.882  23.029  0.00  0.00     0.070 A 
ATOM     17  C   UNL d   1     -46.577  12.575  23.698  0.00  0.00     0.021 A 
ATOM     18  C   UNL d   1     -45.839  12.262  23.626  0.00  0.00     0.043 A 
ATOM     19  C   UNL d   1     -45.429  12.229  22.863  0.00  0.00     0.196 A 
ATOM     20  C   UNL d   1     -45.811  12.530  22.192  0.00  0.00     0.043 A 
ATOM     21  O   UNL d   1     -44.640  11.903  22.736  0.00  0.00    -0.287 OA
ATOM     22  C   UNL d   1     -46.586  12.856  22.284  0.00  0.00     0.021 A 
ENDBRANCH   1  16
TORSDOF 1
ENDMDL
