MODEL 1
REMARK VINA RESULT:      35.3      0.000      0.000
REMARK  3 active torsions:
REMARK  status: ('A' for Active; 'I' for Inactive)
REMARK    1  A    between atoms: C_4  and  C_1 
REMARK    2  A    between atoms: N_7  and  C_4 
REMARK    3  A    between atoms: C_9  and  N_7 
ROOT
ATOM      1  C   UNL d   1     -51.800  24.011  33.334  0.00  0.00     0.159 C 
ATOM      2  S   UNL d   1     -51.316  23.342  33.310  0.00  0.00    -0.055 SA
ENDROOT
BRANCH   1   3
ATOM      3  C   UNL d   1     -51.460  24.763  33.334  0.00  0.00     0.139 A 
ATOM      4  N   UNL d   1     -51.874  25.478  33.317  0.00  0.00    -0.236 NA
ATOM      5  C   UNL d   1     -51.319  26.092  33.323  0.00  0.00     0.088 A 
ATOM      6  C   UNL d   1     -51.396  26.914  33.313  0.00  0.00     0.020 A 
ATOM      7  C   UNL d   1     -50.563  25.750  33.343  0.00  0.00     0.049 A 
ATOM      8  C   UNL d   1     -50.731  27.391  33.323  0.00  0.00     0.002 A 
ATOM      9  C   UNL d   1     -49.976  27.049  33.343  0.00  0.00     0.001 A 
ATOM     10  C   UNL d   1     -49.894  26.234  33.353  0.00  0.00     0.008 A 
ATOM     11  S   UNL d   1     -50.658  24.928  33.349  0.00  0.00    -0.064 SA
ENDBRANCH   1   3
BRANCH   1  12
ATOM     12  N   UNL d   1     -52.618  23.932  33.358  0.00  0.00    -0.233 NA
BRANCH  12  13
ATOM     13  C   UNL d   1     -52.994  23.745  34.073  0.00  0.00     0.082 A 
ATOM     14  C   UNL d   1     -53.797  23.901  34.168  0.00  0.00     0.020 A 
ATOM     15  C   UNL d   1     -54.177  23.719  34.873  0.00  0.00     0.013 A 
ATOM     16  C   UNL d   1     -53.741  23.374  35.492  0.00  0.00     0.058 A 
ATOM     17  C   UNL d   1     -52.936  23.215  35.399  0.00  0.00     0.013 A 
ATOM     18 CL   UNL d   1     -54.114  23.188  36.200  0.00  0.00    -0.082 Cl
ATOM     19  C   UNL d   1     -52.569  23.404  34.684  0.00  0.00     0.020 A 
ENDBRANCH  12  13
ENDBRANCH   1  12
TORSDOF 3
ENDMDL
