MODEL 1
REMARK VINA RESULT:      -9.0      0.000      0.000
REMARK  7 active torsions:
REMARK  status: ('A' for Active; 'I' for Inactive)
REMARK    1  A    between atoms: C_6  and  N_2 
REMARK    2  A    between atoms: C_7  and  C_3 
REMARK    3  A    between atoms: C_15  and  C_6 
REMARK    4  A    between atoms: C_21  and  C_7 
REMARK    5  A    between atoms: C_8  and  O_14 
REMARK    6  A    between atoms: O_14  and  C_15 
REMARK    7  A    between atoms: C_19  and  C_21 
ROOT
ATOM      1  N   UNL d   1      53.780  31.576  54.571  0.00  0.00    -0.227 NA
ATOM      2  N   UNL d   1      53.281  32.231  53.488  0.00  0.00    -0.287 N 
ATOM      3  C   UNL d   1      53.649  32.329  54.232  0.00  0.00     0.148 A 
ATOM      4  C   UNL d   1      53.184  31.408  53.367  0.00  0.00     0.083 A 
ATOM      5  C   UNL d   1      53.488  31.012  54.026  0.00  0.00     0.099 A 
ATOM      6  C   UNL d   1      52.859  30.971  52.741  0.00  0.00     0.019 A 
ATOM      7  C   UNL d   1      53.469  30.187  54.064  0.00  0.00     0.021 A 
ATOM      8  C   UNL d   1      52.839  30.148  52.778  0.00  0.00     0.002 A 
ATOM      9  C   UNL d   1      53.144  29.756  53.440  0.00  0.00     0.002 A 
ENDROOT
BRANCH   2  10
ATOM     10  C   UNL d   1      53.054  32.826  52.968  0.00  0.00     0.108 C 
BRANCH  10  11
ATOM     11  C   UNL d   1      52.304  33.178  53.033  0.00  0.00     0.142 C 
BRANCH  11  12
ATOM     12  O   UNL d   1      52.135  33.858  52.608  0.00  0.00    -0.304 OA
BRANCH  12  13
ATOM     13  C   UNL d   1      51.355  34.105  52.519  0.00  0.00     0.100 A 
ATOM     14  C   UNL d   1      50.939  34.388  53.174  0.00  0.00     0.025 A 
ATOM     15  C   UNL d   1      50.159  34.635  53.085  0.00  0.00     0.002 A 
ATOM     16  C   UNL d   1      49.790  34.599  52.340  0.00  0.00     0.000 A 
ATOM     17  C   UNL d   1      50.215  34.314  51.688  0.00  0.00     0.002 A 
ATOM     18  C   UNL d   1      49.011  34.847  52.257  0.00  0.00     0.000 C 
ATOM     19  C   UNL d   1      50.999  34.067  51.780  0.00  0.00     0.025 A 
ENDBRANCH  12  13
ENDBRANCH  11  12
ENDBRANCH  10  11
ENDBRANCH   2  10
BRANCH   3  20
ATOM     20  C   UNL d   1      53.973  32.761  54.856  0.00  0.00     0.041 C 
BRANCH  20  21
ATOM     21  C   UNL d   1      54.675  33.179  54.743  0.00  0.00     0.049 C 
BRANCH  21  22
ATOM     22  C   UNL d   1      54.952  33.683  55.335  0.00  0.00     0.234 C 
ATOM     23  O   UNL d   1      55.589  34.184  55.187  0.00  0.00    -0.283 OA
ENDBRANCH  21  22
ENDBRANCH  20  21
ENDBRANCH   3  20
TORSDOF 7
ENDMDL
MODEL 2
REMARK VINA RESULT:      -8.1      1.136      4.103
REMARK  7 active torsions:
REMARK  status: ('A' for Active; 'I' for Inactive)
REMARK    1  A    between atoms: C_6  and  N_2 
REMARK    2  A    between atoms: C_7  and  C_3 
REMARK    3  A    between atoms: C_15  and  C_6 
REMARK    4  A    between atoms: C_21  and  C_7 
REMARK    5  A    between atoms: C_8  and  O_14 
REMARK    6  A    between atoms: O_14  and  C_15 
REMARK    7  A    between atoms: C_19  and  C_21 
ROOT
ATOM      1  N   UNL d   1      52.516  34.239  54.155  0.00  0.00    -0.227 NA
ATOM      2  N   UNL d   1      52.742  33.192  53.315  0.00  0.00    -0.287 N 
ATOM      3  C   UNL d   1      53.002  33.573  54.012  0.00  0.00     0.148 A 
ATOM      4  C   UNL d   1      52.088  33.628  53.024  0.00  0.00     0.083 A 
ATOM      5  C   UNL d   1      51.953  34.264  53.536  0.00  0.00     0.099 A 
ATOM      6  C   UNL d   1      51.601  33.527  52.361  0.00  0.00     0.019 A 
ATOM      7  C   UNL d   1      51.338  34.795  53.390  0.00  0.00     0.021 A 
ATOM      8  C   UNL d   1      50.987  34.057  52.214  0.00  0.00     0.002 A 
ATOM      9  C   UNL d   1      50.855  34.691  52.728  0.00  0.00     0.002 A 
ENDROOT
BRANCH   2  10
ATOM     10  C   UNL d   1      53.062  32.517  52.973  0.00  0.00     0.108 C 
BRANCH  10  11
ATOM     11  C   UNL d   1      52.802  31.763  53.208  0.00  0.00     0.142 C 
BRANCH  11  12
ATOM     12  O   UNL d   1      53.153  31.094  52.889  0.00  0.00    -0.304 OA
BRANCH  12  13
ATOM     13  C   UNL d   1      53.207  30.405  53.336  0.00  0.00     0.100 A 
ATOM     14  C   UNL d   1      53.921  30.214  53.707  0.00  0.00     0.025 A 
ATOM     15  C   UNL d   1      53.975  29.525  54.154  0.00  0.00     0.002 A 
ATOM     16  C   UNL d   1      53.316  29.024  54.233  0.00  0.00     0.000 A 
ATOM     17  C   UNL d   1      52.604  29.223  53.858  0.00  0.00     0.002 A 
ATOM     18  C   UNL d   1      53.376  28.337  54.681  0.00  0.00     0.000 C 
ATOM     19  C   UNL d   1      52.553  29.916  53.409  0.00  0.00     0.025 A 
ENDBRANCH  12  13
ENDBRANCH  11  12
ENDBRANCH  10  11
ENDBRANCH   2  10
BRANCH   3  20
ATOM     20  C   UNL d   1      53.484  33.676  54.673  0.00  0.00     0.041 C 
BRANCH  20  21
ATOM     21  C   UNL d   1      54.299  33.766  54.576  0.00  0.00     0.049 C 
BRANCH  21  22
ATOM     22  C   UNL d   1      54.802  33.671  55.224  0.00  0.00     0.234 C 
ATOM     23  O   UNL d   1      55.523  34.068  55.247  0.00  0.00    -0.283 OA
ENDBRANCH  21  22
ENDBRANCH  20  21
ENDBRANCH   3  20
TORSDOF 7
ENDMDL
MODEL 3
REMARK VINA RESULT:      -8.0      1.175      2.664
REMARK  7 active torsions:
REMARK  status: ('A' for Active; 'I' for Inactive)
REMARK    1  A    between atoms: C_6  and  N_2 
REMARK    2  A    between atoms: C_7  and  C_3 
REMARK    3  A    between atoms: C_15  and  C_6 
REMARK    4  A    between atoms: C_21  and  C_7 
REMARK    5  A    between atoms: C_8  and  O_14 
REMARK    6  A    between atoms: O_14  and  C_15 
REMARK    7  A    between atoms: C_19  and  C_21 
ROOT
ATOM      1  N   UNL d   1      54.105  32.213  53.701  0.00  0.00    -0.227 NA
ATOM      2  N   UNL d   1      52.997  32.970  53.930  0.00  0.00    -0.287 N 
ATOM      3  C   UNL d   1      53.287  32.289  53.542  0.00  0.00     0.148 A 
ATOM      4  C   UNL d   1      53.644  33.318  54.333  0.00  0.00     0.083 A 
ATOM      5  C   UNL d   1      54.316  32.857  54.192  0.00  0.00     0.099 A 
ATOM      6  C   UNL d   1      53.705  33.995  54.808  0.00  0.00     0.019 A 
ATOM      7  C   UNL d   1      55.043  33.066  54.522  0.00  0.00     0.021 A 
ATOM      8  C   UNL d   1      54.431  34.205  55.138  0.00  0.00     0.002 A 
ATOM      9  C   UNL d   1      55.100  33.740  54.995  0.00  0.00     0.002 A 
ENDROOT
BRANCH   2  10
ATOM     10  C   UNL d   1      52.225  33.251  53.921  0.00  0.00     0.108 C 
BRANCH  10  11
ATOM     11  C   UNL d   1      51.916  33.609  53.239  0.00  0.00     0.142 C 
BRANCH  11  12
ATOM     12  O   UNL d   1      51.332  34.181  53.308  0.00  0.00    -0.304 OA
BRANCH  12  13
ATOM     13  C   UNL d   1      50.767  34.267  52.716  0.00  0.00     0.100 A 
ATOM     14  C   UNL d   1      49.984  34.435  52.919  0.00  0.00     0.025 A 
ATOM     15  C   UNL d   1      49.419  34.520  52.327  0.00  0.00     0.002 A 
ATOM     16  C   UNL d   1      49.634  34.439  51.527  0.00  0.00     0.000 A 
ATOM     17  C   UNL d   1      50.423  34.271  51.332  0.00  0.00     0.002 A 
ATOM     18  C   UNL d   1      49.066  34.525  50.939  0.00  0.00     0.000 C 
ATOM     19  C   UNL d   1      50.987  34.185  51.929  0.00  0.00     0.025 A 
ENDBRANCH  12  13
ENDBRANCH  11  12
ENDBRANCH  10  11
ENDBRANCH   2  10
BRANCH   3  20
ATOM     20  C   UNL d   1      53.230  31.615  53.069  0.00  0.00     0.041 C 
BRANCH  20  21
ATOM     21  C   UNL d   1      53.051  30.887  53.414  0.00  0.00     0.049 C 
BRANCH  21  22
ATOM     22  C   UNL d   1      52.856  30.243  52.935  0.00  0.00     0.234 C 
ATOM     23  O   UNL d   1      52.514  29.572  53.267  0.00  0.00    -0.283 OA
ENDBRANCH  21  22
ENDBRANCH  20  21
ENDBRANCH   3  20
TORSDOF 7
ENDMDL
MODEL 4
REMARK VINA RESULT:      -7.8      1.589      4.709
REMARK  7 active torsions:
REMARK  status: ('A' for Active; 'I' for Inactive)
REMARK    1  A    between atoms: C_6  and  N_2 
REMARK    2  A    between atoms: C_7  and  C_3 
REMARK    3  A    between atoms: C_15  and  C_6 
REMARK    4  A    between atoms: C_21  and  C_7 
REMARK    5  A    between atoms: C_8  and  O_14 
REMARK    6  A    between atoms: O_14  and  C_15 
REMARK    7  A    between atoms: C_19  and  C_21 
ROOT
ATOM      1  N   UNL d   1      51.406  34.691  53.526  0.00  0.00    -0.227 NA
ATOM      2  N   UNL d   1      52.218  33.708  53.049  0.00  0.00    -0.287 N 
ATOM      3  C   UNL d   1      51.434  33.998  53.057  0.00  0.00     0.148 A 
ATOM      4  C   UNL d   1      52.678  34.228  53.519  0.00  0.00     0.083 A 
ATOM      5  C   UNL d   1      52.182  34.824  53.807  0.00  0.00     0.099 A 
ATOM      6  C   UNL d   1      53.482  34.233  53.719  0.00  0.00     0.019 A 
ATOM      7  C   UNL d   1      52.484  35.421  54.291  0.00  0.00     0.021 A 
ATOM      8  C   UNL d   1      53.785  34.829  54.202  0.00  0.00     0.002 A 
ATOM      9  C   UNL d   1      53.285  35.423  54.488  0.00  0.00     0.002 A 
ENDROOT
BRANCH   2  10
ATOM     10  C   UNL d   1      52.492  33.040  52.658  0.00  0.00     0.108 C 
BRANCH  10  11
ATOM     11  C   UNL d   1      52.494  32.301  53.037  0.00  0.00     0.142 C 
BRANCH  11  12
ATOM     12  O   UNL d   1      52.771  31.640  52.640  0.00  0.00    -0.304 OA
BRANCH  12  13
ATOM     13  C   UNL d   1      52.921  30.944  53.053  0.00  0.00     0.100 A 
ATOM     14  C   UNL d   1      53.614  30.875  53.500  0.00  0.00     0.025 A 
ATOM     15  C   UNL d   1      53.764  30.180  53.913  0.00  0.00     0.002 A 
ATOM     16  C   UNL d   1      53.223  29.549  53.882  0.00  0.00     0.000 A 
ATOM     17  C   UNL d   1      52.531  29.626  53.432  0.00  0.00     0.002 A 
ATOM     18  C   UNL d   1      53.378  28.856  54.297  0.00  0.00     0.000 C 
ATOM     19  C   UNL d   1      52.383  30.326  53.018  0.00  0.00     0.025 A 
ENDBRANCH  12  13
ENDBRANCH  11  12
ENDBRANCH  10  11
ENDBRANCH   2  10
BRANCH   3  20
ATOM     20  C   UNL d   1      50.633  33.996  52.860  0.00  0.00     0.041 C 
BRANCH  20  21
ATOM     21  C   UNL d   1      50.392  34.272  52.120  0.00  0.00     0.049 C 
BRANCH  21  22
ATOM     22  C   UNL d   1      49.588  34.323  51.943  0.00  0.00     0.234 C 
ATOM     23  O   UNL d   1      49.343  34.454  51.168  0.00  0.00    -0.283 OA
ENDBRANCH  21  22
ENDBRANCH  20  21
ENDBRANCH   3  20
TORSDOF 7
ENDMDL
MODEL 5
REMARK VINA RESULT:      -6.3      1.563      2.132
REMARK  7 active torsions:
REMARK  status: ('A' for Active; 'I' for Inactive)
REMARK    1  A    between atoms: C_6  and  N_2 
REMARK    2  A    between atoms: C_7  and  C_3 
REMARK    3  A    between atoms: C_15  and  C_6 
REMARK    4  A    between atoms: C_21  and  C_7 
REMARK    5  A    between atoms: C_8  and  O_14 
REMARK    6  A    between atoms: O_14  and  C_15 
REMARK    7  A    between atoms: C_19  and  C_21 
ROOT
ATOM      1  N   UNL d   1      53.364  33.795  53.444  0.00  0.00    -0.227 NA
ATOM      2  N   UNL d   1      52.034  33.505  53.429  0.00  0.00    -0.287 N 
ATOM      3  C   UNL d   1      52.595  34.117  53.521  0.00  0.00     0.148 A 
ATOM      4  C   UNL d   1      52.461  32.797  53.294  0.00  0.00     0.083 A 
ATOM      5  C   UNL d   1      53.269  32.976  53.304  0.00  0.00     0.099 A 
ATOM      6  C   UNL d   1      52.217  32.016  53.164  0.00  0.00     0.019 A 
ATOM      7  C   UNL d   1      53.829  32.382  53.185  0.00  0.00     0.021 A 
ATOM      8  C   UNL d   1      52.776  31.422  53.046  0.00  0.00     0.002 A 
ATOM      9  C   UNL d   1      53.583  31.605  53.056  0.00  0.00     0.002 A 
ENDROOT
BRANCH   2  10
ATOM     10  C   UNL d   1      51.216  33.577  53.463  0.00  0.00     0.108 C 
BRANCH  10  11
ATOM     11  C   UNL d   1      50.812  34.046  52.909  0.00  0.00     0.142 C 
BRANCH  11  12
ATOM     12  O   UNL d   1      50.050  33.844  52.683  0.00  0.00    -0.304 OA
BRANCH  12  13
ATOM     13  C   UNL d   1      49.506  34.432  52.498  0.00  0.00     0.100 A 
ATOM     14  C   UNL d   1      49.258  34.959  53.086  0.00  0.00     0.025 A 
ATOM     15  C   UNL d   1      48.713  35.547  52.902  0.00  0.00     0.002 A 
ATOM     16  C   UNL d   1      48.413  35.613  52.129  0.00  0.00     0.000 A 
ATOM     17  C   UNL d   1      48.666  35.081  51.546  0.00  0.00     0.002 A 
ATOM     18  C   UNL d   1      47.868  36.203  51.950  0.00  0.00     0.000 C 
ATOM     19  C   UNL d   1      49.214  34.491  51.734  0.00  0.00     0.025 A 
ENDBRANCH  12  13
ENDBRANCH  11  12
ENDBRANCH  10  11
ENDBRANCH   2  10
BRANCH   3  20
ATOM     20  C   UNL d   1      52.842  34.894  53.650  0.00  0.00     0.041 C 
BRANCH  20  21
ATOM     21  C   UNL d   1      52.921  35.177  54.422  0.00  0.00     0.049 C 
BRANCH  21  22
ATOM     22  C   UNL d   1      53.208  35.940  54.552  0.00  0.00     0.234 C 
ATOM     23  O   UNL d   1      52.742  36.493  54.945  0.00  0.00    -0.283 OA
ENDBRANCH  21  22
ENDBRANCH  20  21
ENDBRANCH   3  20
TORSDOF 7
ENDMDL
