MODEL 1
REMARK VINA RESULT:      36.9      0.000      0.000
REMARK  3 active torsions:
REMARK  status: ('A' for Active; 'I' for Inactive)
REMARK    1  A    between atoms: C_8  and  N_1 
REMARK    2  A    between atoms: N_10  and  C_5 
REMARK    3  A    between atoms: C_15  and  N_10 
ROOT
ATOM      1  N   UNL d   1     -50.934  26.020  33.445  0.00  0.00    -0.212 N 
ATOM      2  C   UNL d   1     -51.733  25.815  33.399  0.00  0.00     0.170 A 
ATOM      3  C   UNL d   1     -51.783  24.992  33.379  0.00  0.00     0.093 A 
ATOM      4  N   UNL d   1     -50.490  25.318  33.454  0.00  0.00    -0.162 NA
ATOM      5  C   UNL d   1     -52.525  24.621  33.332  0.00  0.00     0.169 A 
ATOM      6  C   UNL d   1     -51.022  24.686  33.412  0.00  0.00     0.127 A 
ATOM      7  N   UNL d   1     -52.419  26.280  33.373  0.00  0.00    -0.205 NA
ATOM      8  N   UNL d   1     -53.211  25.086  33.306  0.00  0.00    -0.205 NA
ATOM      9  C   UNL d   1     -53.153  25.909  33.326  0.00  0.00     0.202 A 
ENDROOT
BRANCH   1  10
ATOM     10  C   UNL d   1     -50.629  26.786  33.478  0.00  0.00     0.085 A 
ATOM     11  C   UNL d   1     -49.833  26.907  33.630  0.00  0.00     0.019 A 
ATOM     12  C   UNL d   1     -49.528  27.680  33.662  0.00  0.00     0.002 A 
ATOM     13  C   UNL d   1     -48.732  27.807  33.814  0.00  0.00     0.000 C 
ATOM     14  C   UNL d   1     -50.020  28.320  33.543  0.00  0.00     0.000 A 
ATOM     15  C   UNL d   1     -50.829  28.198  33.388  0.00  0.00     0.002 A 
ATOM     16  C   UNL d   1     -51.134  27.443  33.355  0.00  0.00     0.019 A 
ENDBRANCH   1  10
BRANCH   5  17
ATOM     17  N   UNL d   1     -52.582  23.808  33.311  0.00  0.00    -0.227 NA
BRANCH  17  18
ATOM     18  C   UNL d   1     -53.087  23.419  33.822  0.00  0.00     0.083 C 
ATOM     19  C   UNL d   1     -52.849  23.248  34.595  0.00  0.00     0.021 C 
ATOM     20  C   UNL d   1     -53.843  23.191  33.570  0.00  0.00     0.021 C 
ENDBRANCH  17  18
ENDBRANCH   5  17
TORSDOF 3
ENDMDL
