MODEL 1
REMARK VINA RESULT:      -7.9      0.000      0.000
REMARK  7 active torsions:
REMARK  status: ('A' for Active; 'I' for Inactive)
REMARK    1  A    between atoms: C_14  and  N_3 
REMARK    2  A    between atoms: C_10  and  C_6 
REMARK    3  A    between atoms: C_15  and  C_14 
REMARK    4  A    between atoms: C_20  and  C_15 
REMARK    5  A    between atoms: N_16  and  C_20 
REMARK    6  A    between atoms: C_23  and  N_16 
REMARK    7  A    between atoms: C_24  and  N_16 
ROOT
ATOM      1  C   UNL d   1      52.409  32.850  53.458  0.00  0.00     0.083 A 
ATOM      2  C   UNL d   1      51.790  32.378  53.219  0.00  0.00     0.161 A 
ATOM      3  N   UNL d   1      51.328  33.601  53.361  0.00  0.00    -0.272 N 
ATOM      4  C   UNL d   1      51.122  32.841  53.159  0.00  0.00     0.288 A 
ATOM      5  C   UNL d   1      53.154  32.529  53.565  0.00  0.00     0.201 A 
ATOM      6  C   UNL d   1      52.121  33.608  53.545  0.00  0.00     0.074 A 
ATOM      7  O   UNL d   1      51.917  31.577  53.086  0.00  0.00    -0.302 OA
ATOM      8  C   UNL d   1      53.277  31.724  53.430  0.00  0.00     0.062 A 
ATOM      9  C   UNL d   1      52.658  31.253  53.191  0.00  0.00     0.103 A 
ATOM     10  O   UNL d   1      50.372  32.583  52.932  0.00  0.00    -0.264 OA
ATOM     11  O   UNL d   1      53.790  33.014  53.811  0.00  0.00    -0.286 OA
ATOM     12  C   UNL d   1      54.021  31.404  53.537  0.00  0.00     0.005 A 
ATOM     13  C   UNL d   1      52.779  30.458  53.058  0.00  0.00     0.025 A 
ATOM     14  C   UNL d   1      54.139  30.606  53.402  0.00  0.00     0.000 A 
ATOM     15  C   UNL d   1      53.519  30.135  53.163  0.00  0.00     0.002 A 
ENDROOT
BRANCH   3  16
ATOM     16  C   UNL d   1      50.823  34.257  53.377  0.00  0.00     0.085 C 
BRANCH  16  17
ATOM     17  C   UNL d   1      50.177  34.304  52.845  0.00  0.00     0.038 C 
BRANCH  17  18
ATOM     18  C   UNL d   1      49.700  34.981  52.829  0.00  0.00     0.082 C 
BRANCH  18  19
ATOM     19  N   UNL d   1      49.039  35.011  52.327  0.00  0.00    -0.302 N 
BRANCH  19  20
ATOM     20  C   UNL d   1      48.301  35.248  52.628  0.00  0.00     0.080 C 
ATOM     21  C   UNL d   1      48.225  35.978  53.022  0.00  0.00     0.021 C 
ENDBRANCH  19  20
BRANCH  19  22
ATOM     22  C   UNL d   1      49.115  34.806  51.524  0.00  0.00     0.080 C 
ATOM     23  C   UNL d   1      48.445  34.789  51.029  0.00  0.00     0.021 C 
ENDBRANCH  19  22
ENDBRANCH  18  19
ENDBRANCH  17  18
ENDBRANCH  16  17
ENDBRANCH   3  16
BRANCH   6  24
ATOM     24  C   UNL d   1      52.566  34.271  53.783  0.00  0.00     0.036 A 
ATOM     25  C   UNL d   1      52.649  34.447  54.592  0.00  0.00     0.100 A 
ATOM     26  N   UNL d   1      53.091  35.106  54.829  0.00  0.00    -0.242 NA
ATOM     27  C   UNL d   1      53.455  35.595  54.258  0.00  0.00     0.099 A 
ATOM     28  C   UNL d   1      53.369  35.416  53.448  0.00  0.00     0.021 A 
ATOM     29  C   UNL d   1      52.927  34.756  53.211  0.00  0.00     0.005 A 
ENDBRANCH   6  24
TORSDOF 7
ENDMDL
MODEL 2
REMARK VINA RESULT:      -6.6      1.424      2.917
REMARK  7 active torsions:
REMARK  status: ('A' for Active; 'I' for Inactive)
REMARK    1  A    between atoms: C_14  and  N_3 
REMARK    2  A    between atoms: C_10  and  C_6 
REMARK    3  A    between atoms: C_15  and  C_14 
REMARK    4  A    between atoms: C_20  and  C_15 
REMARK    5  A    between atoms: N_16  and  C_20 
REMARK    6  A    between atoms: C_23  and  N_16 
REMARK    7  A    between atoms: C_24  and  N_16 
ROOT
ATOM      1  C   UNL d   1      53.077  33.358  53.830  0.00  0.00     0.083 A 
ATOM      2  C   UNL d   1      52.963  34.163  53.857  0.00  0.00     0.161 A 
ATOM      3  N   UNL d   1      52.048  33.658  53.059  0.00  0.00    -0.272 N 
ATOM      4  C   UNL d   1      52.327  34.350  53.382  0.00  0.00     0.288 A 
ATOM      5  C   UNL d   1      53.682  33.013  54.258  0.00  0.00     0.201 A 
ATOM      6  C   UNL d   1      52.509  33.046  53.334  0.00  0.00     0.074 A 
ATOM      7  O   UNL d   1      53.459  34.629  54.319  0.00  0.00    -0.302 OA
ATOM      8  C   UNL d   1      54.178  33.484  54.720  0.00  0.00     0.062 A 
ATOM      9  C   UNL d   1      54.063  34.289  54.747  0.00  0.00     0.103 A 
ATOM     10  O   UNL d   1      52.024  35.107  53.253  0.00  0.00    -0.264 OA
ATOM     11  O   UNL d   1      53.800  32.185  54.229  0.00  0.00    -0.286 OA
ATOM     12  C   UNL d   1      54.782  33.139  55.148  0.00  0.00     0.005 A 
ATOM     13  C   UNL d   1      54.553  34.754  55.204  0.00  0.00     0.025 A 
ATOM     14  C   UNL d   1      55.271  33.609  55.604  0.00  0.00     0.000 A 
ATOM     15  C   UNL d   1      55.157  34.414  55.632  0.00  0.00     0.002 A 
ENDROOT
BRANCH   3  16
ATOM     16  C   UNL d   1      51.407  33.585  52.541  0.00  0.00     0.085 C 
BRANCH  16  17
ATOM     17  C   UNL d   1      50.776  34.135  52.571  0.00  0.00     0.038 C 
BRANCH  17  18
ATOM     18  C   UNL d   1      50.104  34.024  52.100  0.00  0.00     0.082 C 
BRANCH  18  19
ATOM     19  N   UNL d   1      49.488  34.581  52.116  0.00  0.00    -0.302 N 
BRANCH  19  20
ATOM     20  C   UNL d   1      49.194  34.894  51.404  0.00  0.00     0.080 C 
ATOM     21  C   UNL d   1      48.807  34.398  50.859  0.00  0.00     0.021 C 
ENDBRANCH  19  20
BRANCH  19  22
ATOM     22  C   UNL d   1      49.165  34.826  52.844  0.00  0.00     0.080 C 
ATOM     23  C   UNL d   1      48.628  35.461  52.872  0.00  0.00     0.021 C 
ENDBRANCH  19  22
ENDBRANCH  18  19
ENDBRANCH  17  18
ENDBRANCH  16  17
ENDBRANCH   3  16
BRANCH   6  24
ATOM     24  C   UNL d   1      52.421  32.240  53.146  0.00  0.00     0.036 A 
ATOM     25  C   UNL d   1      52.850  31.912  52.513  0.00  0.00     0.100 A 
ATOM     26  N   UNL d   1      52.763  31.110  52.324  0.00  0.00    -0.242 NA
ATOM     27  C   UNL d   1      52.244  30.628  52.768  0.00  0.00     0.099 A 
ATOM     28  C   UNL d   1      51.816  30.960  53.401  0.00  0.00     0.021 A 
ATOM     29  C   UNL d   1      51.903  31.763  53.590  0.00  0.00     0.005 A 
ENDBRANCH   6  24
TORSDOF 7
ENDMDL
MODEL 3
REMARK VINA RESULT:      -6.6      1.811      4.741
REMARK  7 active torsions:
REMARK  status: ('A' for Active; 'I' for Inactive)
REMARK    1  A    between atoms: C_14  and  N_3 
REMARK    2  A    between atoms: C_10  and  C_6 
REMARK    3  A    between atoms: C_15  and  C_14 
REMARK    4  A    between atoms: C_20  and  C_15 
REMARK    5  A    between atoms: N_16  and  C_20 
REMARK    6  A    between atoms: C_23  and  N_16 
REMARK    7  A    between atoms: C_24  and  N_16 
ROOT
ATOM      1  C   UNL d   1      52.555  32.937  53.429  0.00  0.00     0.083 A 
ATOM      2  C   UNL d   1      52.051  32.423  53.049  0.00  0.00     0.161 A 
ATOM      3  N   UNL d   1      53.084  31.728  53.472  0.00  0.00    -0.272 N 
ATOM      4  C   UNL d   1      52.376  31.676  53.075  0.00  0.00     0.288 A 
ATOM      5  C   UNL d   1      52.366  33.730  53.488  0.00  0.00     0.201 A 
ATOM      6  C   UNL d   1      53.195  32.504  53.691  0.00  0.00     0.074 A 
ATOM      7  O   UNL d   1      51.350  32.705  52.724  0.00  0.00    -0.302 OA
ATOM      8  C   UNL d   1      51.662  34.010  53.161  0.00  0.00     0.062 A 
ATOM      9  C   UNL d   1      51.159  33.496  52.781  0.00  0.00     0.103 A 
ATOM     10  O   UNL d   1      52.045  30.991  52.755  0.00  0.00    -0.264 OA
ATOM     11  O   UNL d   1      52.885  34.259  53.879  0.00  0.00    -0.286 OA
ATOM     12  C   UNL d   1      51.474  34.803  53.220  0.00  0.00     0.005 A 
ATOM     13  C   UNL d   1      50.463  33.772  52.457  0.00  0.00     0.025 A 
ATOM     14  C   UNL d   1      50.776  35.076  52.894  0.00  0.00     0.000 A 
ATOM     15  C   UNL d   1      50.272  34.562  52.514  0.00  0.00     0.002 A 
ENDROOT
BRANCH   3  16
ATOM     16  C   UNL d   1      53.603  31.103  53.629  0.00  0.00     0.085 C 
BRANCH  16  17
ATOM     17  C   UNL d   1      53.304  30.347  53.832  0.00  0.00     0.038 C 
BRANCH  17  18
ATOM     18  C   UNL d   1      53.806  29.775  54.157  0.00  0.00     0.082 C 
BRANCH  18  19
ATOM     19  N   UNL d   1      53.495  29.177  54.644  0.00  0.00    -0.302 N 
BRANCH  19  20
ATOM     20  C   UNL d   1      53.453  28.395  54.364  0.00  0.00     0.080 C 
ATOM     21  C   UNL d   1      54.112  27.891  54.436  0.00  0.00     0.021 C 
ENDBRANCH  19  20
BRANCH  19  22
ATOM     22  C   UNL d   1      53.226  29.361  55.410  0.00  0.00     0.080 C 
ATOM     23  C   UNL d   1      53.174  28.767  55.991  0.00  0.00     0.021 C 
ENDBRANCH  19  22
ENDBRANCH  18  19
ENDBRANCH  17  18
ENDBRANCH  16  17
ENDBRANCH   3  16
BRANCH   6  24
ATOM     24  C   UNL d   1      53.847  32.809  54.109  0.00  0.00     0.036 A 
ATOM     25  C   UNL d   1      54.538  33.027  53.701  0.00  0.00     0.100 A 
ATOM     26  N   UNL d   1      55.187  33.331  54.115  0.00  0.00    -0.242 NA
ATOM     27  C   UNL d   1      55.151  33.420  54.946  0.00  0.00     0.099 A 
ATOM     28  C   UNL d   1      54.457  33.200  55.352  0.00  0.00     0.021 A 
ATOM     29  C   UNL d   1      53.807  32.896  54.937  0.00  0.00     0.005 A 
ENDBRANCH   6  24
TORSDOF 7
ENDMDL
MODEL 4
REMARK VINA RESULT:      -6.4      1.360      1.990
REMARK  7 active torsions:
REMARK  status: ('A' for Active; 'I' for Inactive)
REMARK    1  A    between atoms: C_14  and  N_3 
REMARK    2  A    between atoms: C_10  and  C_6 
REMARK    3  A    between atoms: C_15  and  C_14 
REMARK    4  A    between atoms: C_20  and  C_15 
REMARK    5  A    between atoms: N_16  and  C_20 
REMARK    6  A    between atoms: C_23  and  N_16 
REMARK    7  A    between atoms: C_24  and  N_16 
ROOT
ATOM      1  C   UNL d   1      53.184  31.437  53.718  0.00  0.00     0.083 A 
ATOM      2  C   UNL d   1      52.662  31.140  53.169  0.00  0.00     0.161 A 
ATOM      3  N   UNL d   1      52.685  32.447  53.028  0.00  0.00    -0.272 N 
ATOM      4  C   UNL d   1      52.353  31.762  52.743  0.00  0.00     0.288 A 
ATOM      5  C   UNL d   1      53.579  30.934  54.227  0.00  0.00     0.201 A 
ATOM      6  C   UNL d   1      53.197  32.248  53.629  0.00  0.00     0.074 A 
ATOM      7  O   UNL d   1      52.533  30.328  53.128  0.00  0.00    -0.302 OA
ATOM      8  C   UNL d   1      53.447  30.120  54.183  0.00  0.00     0.062 A 
ATOM      9  C   UNL d   1      52.924  29.823  53.634  0.00  0.00     0.103 A 
ATOM     10  O   UNL d   1      51.803  31.705  52.131  0.00  0.00    -0.264 OA
ATOM     11  O   UNL d   1      54.116  31.240  54.791  0.00  0.00    -0.286 OA
ATOM     12  C   UNL d   1      53.841  29.617  54.691  0.00  0.00     0.005 A 
ATOM     13  C   UNL d   1      52.794  29.019  53.590  0.00  0.00     0.025 A 
ATOM     14  C   UNL d   1      53.708  28.812  54.644  0.00  0.00     0.000 A 
ATOM     15  C   UNL d   1      53.185  28.514  54.095  0.00  0.00     0.002 A 
ENDROOT
BRANCH   3  16
ATOM     16  C   UNL d   1      52.532  33.214  52.758  0.00  0.00     0.085 C 
BRANCH  16  17
ATOM     17  C   UNL d   1      51.773  33.414  52.467  0.00  0.00     0.038 C 
BRANCH  17  18
ATOM     18  C   UNL d   1      51.513  34.200  52.488  0.00  0.00     0.082 C 
BRANCH  18  19
ATOM     19  N   UNL d   1      50.716  34.379  52.338  0.00  0.00    -0.302 N 
BRANCH  19  20
ATOM     20  C   UNL d   1      50.460  34.512  51.558  0.00  0.00     0.080 C 
ATOM     21  C   UNL d   1      49.658  34.408  51.359  0.00  0.00     0.021 C 
ENDBRANCH  19  20
BRANCH  19  22
ATOM     22  C   UNL d   1      50.173  34.425  52.968  0.00  0.00     0.080 C 
ATOM     23  C   UNL d   1      50.140  35.106  53.445  0.00  0.00     0.021 C 
ENDBRANCH  19  22
ENDBRANCH  18  19
ENDBRANCH  17  18
ENDBRANCH  16  17
ENDBRANCH   3  16
BRANCH   6  24
ATOM     24  C   UNL d   1      53.658  32.777  54.079  0.00  0.00     0.036 A 
ATOM     25  C   UNL d   1      53.342  33.121  54.767  0.00  0.00     0.100 A 
ATOM     26  N   UNL d   1      53.798  33.647  55.216  0.00  0.00    -0.242 NA
ATOM     27  C   UNL d   1      54.578  33.834  54.978  0.00  0.00     0.099 A 
ATOM     28  C   UNL d   1      54.891  33.487  54.288  0.00  0.00     0.021 A 
ATOM     29  C   UNL d   1      54.434  32.960  53.839  0.00  0.00     0.005 A 
ENDBRANCH   6  24
TORSDOF 7
ENDMDL
