MODEL 1
REMARK VINA RESULT:      72.3      0.000      0.000
REMARK  7 active torsions:
REMARK  status: ('A' for Active; 'I' for Inactive)
REMARK    1  A    between atoms: C_2  and  S_1 
REMARK    2  A    between atoms: N_3  and  S_1 
REMARK    3  A    between atoms: C_11  and  N_3 
REMARK    4  A    between atoms: C_4  and  C_7 
REMARK       I    between atoms: N_12  and  C_4 
REMARK    5  A    between atoms: C_22  and  N_12 
REMARK    6  A    between atoms: O_20  and  C_24 
REMARK    7  A    between atoms: C_24  and  C_22 
ROOT
ATOM      1  C   UNL d   1      61.693  46.334  49.821  0.00  0.00     0.058 A 
ATOM      2  C   UNL d   1      61.475  47.919  50.209  0.00  0.00     0.094 A 
ATOM      3  C   UNL d   1      60.965  46.591  50.111  0.00  0.00     0.006 A 
ATOM      4  C   UNL d   1      62.313  46.871  49.725  0.00  0.00     0.006 A 
ATOM      5  C   UNL d   1      60.856  47.382  50.305  0.00  0.00     0.020 A 
ATOM      6  C   UNL d   1      62.204  47.663  49.919  0.00  0.00     0.020 A 
ENDROOT
BRANCH   2   7
ATOM      7  N   UNL d   1      61.366  48.710  50.403  0.00  0.00    -0.158 NA
BRANCH   7   8
ATOM      8  S   UNL d   1      60.651  48.958  50.733  0.00  0.00     0.285 S 
ATOM      9  O   UNL d   1      60.889  48.666  51.467  0.00  0.00    -0.198 OA
ATOM     10  O   UNL d   1      60.418  49.248  49.998  0.00  0.00    -0.198 OA
BRANCH   8  11
ATOM     11  C   UNL d   1      59.937  49.208  51.055  0.00  0.00     0.105 A 
ATOM     12  C   UNL d   1      59.895  49.458  51.837  0.00  0.00     0.012 A 
ATOM     13  C   UNL d   1      59.175  49.707  52.152  0.00  0.00     0.001 A 
ATOM     14  C   UNL d   1      60.588  49.454  52.300  0.00  0.00     0.001 C 
ATOM     15  C   UNL d   1      58.498  49.707  51.688  0.00  0.00     0.000 A 
ATOM     16  C   UNL d   1      58.537  49.457  50.901  0.00  0.00     0.001 A 
ATOM     17  C   UNL d   1      59.252  49.207  50.581  0.00  0.00     0.013 A 
ATOM     18  C   UNL d   1      57.845  49.458  50.433  0.00  0.00     0.000 C 
ENDBRANCH   8  11
ENDBRANCH   7   8
ENDBRANCH   2   7
BRANCH   1  19
ATOM     19  C   UNL d   1      61.810  45.533  49.623  0.00  0.00     0.279 C 
ATOM     20  O   UNL d   1      61.975  45.316  48.844  0.00  0.00    -0.265 OA
ATOM     21  N   UNL d   1      61.760  44.960  50.210  0.00  0.00    -0.204 NA
BRANCH  21  22
ATOM     22  C   UNL d   1      61.875  44.167  50.016  0.00  0.00     0.128 C 
BRANCH  22  23
ATOM     23  C   UNL d   1      62.520  43.755  50.323  0.00  0.00     0.137 C 
BRANCH  23  24
ATOM     24  O   UNL d   1      62.401  43.169  50.914  0.00  0.00    -0.325 OA
ATOM     25  C   UNL d   1      62.817  42.463  50.879  0.00  0.00     0.182 C 
ENDBRANCH  23  24
ENDBRANCH  22  23
ENDBRANCH  21  22
ENDBRANCH   1  19
TORSDOF 7
ENDMDL
MODEL 2
REMARK VINA RESULT:      73.4      1.673      5.065
REMARK  7 active torsions:
REMARK  status: ('A' for Active; 'I' for Inactive)
REMARK    1  A    between atoms: C_2  and  S_1 
REMARK    2  A    between atoms: N_3  and  S_1 
REMARK    3  A    between atoms: C_11  and  N_3 
REMARK    4  A    between atoms: C_4  and  C_7 
REMARK       I    between atoms: N_12  and  C_4 
REMARK    5  A    between atoms: C_22  and  N_12 
REMARK    6  A    between atoms: O_20  and  C_24 
REMARK    7  A    between atoms: C_24  and  C_22 
ROOT
ATOM      1  C   UNL d   1      59.058  49.025  50.887  0.00  0.00     0.058 A 
ATOM      2  C   UNL d   1      60.592  48.463  50.691  0.00  0.00     0.094 A 
ATOM      3  C   UNL d   1      59.686  49.556  50.819  0.00  0.00     0.006 A 
ATOM      4  C   UNL d   1      59.198  48.212  50.857  0.00  0.00     0.006 A 
ATOM      5  C   UNL d   1      60.452  49.275  50.721  0.00  0.00     0.020 A 
ATOM      6  C   UNL d   1      59.965  47.931  50.759  0.00  0.00     0.020 A 
ENDROOT
BRANCH   2   7
ATOM      7  N   UNL d   1      61.359  48.182  50.593  0.00  0.00    -0.158 NA
BRANCH   7   8
ATOM      8  S   UNL d   1      61.484  47.426  50.287  0.00  0.00     0.285 S 
ATOM      9  O   UNL d   1      61.308  47.703  49.530  0.00  0.00    -0.198 OA
ATOM     10  O   UNL d   1      61.659  47.154  51.045  0.00  0.00    -0.198 OA
BRANCH   8  11
ATOM     11  C   UNL d   1      61.611  46.670  49.990  0.00  0.00     0.105 A 
ATOM     12  C   UNL d   1      62.242  46.520  49.485  0.00  0.00     0.012 A 
ATOM     13  C   UNL d   1      62.362  45.759  49.191  0.00  0.00     0.001 A 
ATOM     14  C   UNL d   1      62.753  47.145  49.279  0.00  0.00     0.001 C 
ATOM     15  C   UNL d   1      61.854  45.149  49.400  0.00  0.00     0.000 A 
ATOM     16  C   UNL d   1      61.219  45.297  49.907  0.00  0.00     0.001 A 
ATOM     17  C   UNL d   1      61.093  46.053  50.204  0.00  0.00     0.013 A 
ATOM     18  C   UNL d   1      60.704  44.673  50.117  0.00  0.00     0.000 C 
ENDBRANCH   8  11
ENDBRANCH   7   8
ENDBRANCH   2   7
BRANCH   1  19
ATOM     19  C   UNL d   1      58.278  49.303  50.987  0.00  0.00     0.279 C 
ATOM     20  O   UNL d   1      58.065  49.708  51.673  0.00  0.00    -0.265 OA
ATOM     21  N   UNL d   1      57.724  49.171  50.395  0.00  0.00    -0.204 NA
BRANCH  21  22
ATOM     22  C   UNL d   1      56.952  49.445  50.491  0.00  0.00     0.128 C 
BRANCH  22  23
ATOM     23  C   UNL d   1      56.515  49.690  49.836  0.00  0.00     0.137 C 
BRANCH  23  24
ATOM     24  O   UNL d   1      56.747  49.452  49.064  0.00  0.00    -0.325 OA
ATOM     25  C   UNL d   1      56.643  48.673  48.828  0.00  0.00     0.182 C 
ENDBRANCH  23  24
ENDBRANCH  22  23
ENDBRANCH  21  22
ENDBRANCH   1  19
TORSDOF 7
ENDMDL
