MODEL 1
REMARK VINA RESULT:      41.2      0.000      0.000
REMARK  6 active torsions:
REMARK  status: ('A' for Active; 'I' for Inactive)
REMARK    1  A    between atoms: C_8  and  C_3 
REMARK    2  A    between atoms: C_7  and  O_15 
REMARK    3  A    between atoms: S_9  and  C_8 
REMARK    4  A    between atoms: C_18  and  S_9 
REMARK    5  A    between atoms: O_15  and  C_19 
REMARK    6  A    between atoms: C_19  and  C_18 
ROOT
ATOM      1  S   UNL d   1     -49.536  28.230  34.003  0.00  0.00    -0.081 SA
ENDROOT
BRANCH   1   2
ATOM      2  C   UNL d   1     -49.712  27.811  33.318  0.00  0.00     0.074 C 
BRANCH   2   3
ATOM      3  C   UNL d   1     -50.332  27.271  33.315  0.00  0.00     0.169 A 
ATOM      4  N   UNL d   1     -51.135  27.033  33.314  0.00  0.00    -0.225 NA
ATOM      5  C   UNL d   1     -51.157  26.195  33.311  0.00  0.00     0.101 A 
ATOM      6  C   UNL d   1     -50.368  25.926  33.311  0.00  0.00     0.101 A 
ATOM      7  C   UNL d   1     -51.774  25.640  33.308  0.00  0.00     0.021 A 
ATOM      8  N   UNL d   1     -49.853  26.583  33.313  0.00  0.00    -0.225 NA
ATOM      9  C   UNL d   1     -50.213  25.107  33.308  0.00  0.00     0.021 A 
ATOM     10  C   UNL d   1     -50.830  24.574  33.306  0.00  0.00     0.002 A 
ATOM     11  C   UNL d   1     -51.611  24.841  33.306  0.00  0.00     0.002 A 
ENDBRANCH   2   3
ENDBRANCH   1   2
BRANCH   1  12
ATOM     12  C   UNL d   1     -48.793  28.157  34.350  0.00  0.00     0.062 C 
BRANCH  12  13
ATOM     13  C   UNL d   1     -48.466  28.792  34.760  0.00  0.00     0.130 C 
BRANCH  13  14
ATOM     14  O   UNL d   1     -47.878  28.652  35.322  0.00  0.00    -0.305 OA
BRANCH  14  15
ATOM     15  C   UNL d   1     -47.714  29.460  35.333  0.00  0.00     0.100 A 
ATOM     16  C   UNL d   1     -47.199  29.760  35.891  0.00  0.00     0.026 A 
ATOM     17  C   UNL d   1     -47.032  30.568  35.906  0.00  0.00     0.013 A 
ATOM     18  C   UNL d   1     -47.388  31.074  35.355  0.00  0.00     0.058 A 
ATOM     19  C   UNL d   1     -47.905  30.766  34.797  0.00  0.00     0.013 A 
ATOM     20 CL   UNL d   1     -47.223  31.882  35.367  0.00  0.00    -0.082 Cl
ATOM     21  C   UNL d   1     -48.066  29.957  34.789  0.00  0.00     0.026 A 
ENDBRANCH  14  15
ENDBRANCH  13  14
ENDBRANCH  12  13
ENDBRANCH   1  12
TORSDOF 6
ENDMDL
MODEL 2
REMARK VINA RESULT:      42.4      2.501      5.616
REMARK  6 active torsions:
REMARK  status: ('A' for Active; 'I' for Inactive)
REMARK    1  A    between atoms: C_8  and  C_3 
REMARK    2  A    between atoms: C_7  and  O_15 
REMARK    3  A    between atoms: S_9  and  C_8 
REMARK    4  A    between atoms: C_18  and  S_9 
REMARK    5  A    between atoms: O_15  and  C_19 
REMARK    6  A    between atoms: C_19  and  C_18 
ROOT
ATOM      1  S   UNL d   1     -49.099  27.697  34.630  0.00  0.00    -0.081 SA
ENDROOT
BRANCH   1   2
ATOM      2  C   UNL d   1     -48.360  28.056  34.589  0.00  0.00     0.074 C 
BRANCH   2   3
ATOM      3  C   UNL d   1     -48.112  28.553  35.196  0.00  0.00     0.169 A 
ATOM      4  N   UNL d   1     -47.945  28.760  35.990  0.00  0.00    -0.225 NA
ATOM      5  C   UNL d   1     -47.665  29.550  35.997  0.00  0.00     0.101 A 
ATOM      6  C   UNL d   1     -47.664  29.821  35.210  0.00  0.00     0.101 A 
ATOM      7  C   UNL d   1     -47.413  30.061  36.602  0.00  0.00     0.021 A 
ATOM      8  N   UNL d   1     -47.938  29.212  34.709  0.00  0.00    -0.225 NA
ATOM      9  C   UNL d   1     -47.410  30.597  35.041  0.00  0.00     0.021 A 
ATOM     10  C   UNL d   1     -47.165  31.087  35.646  0.00  0.00     0.002 A 
ATOM     11  C   UNL d   1     -47.166  30.819  36.426  0.00  0.00     0.002 A 
ENDBRANCH   2   3
ENDBRANCH   1   2
BRANCH   1  12
ATOM     12  C   UNL d   1     -49.621  27.758  33.996  0.00  0.00     0.062 C 
BRANCH  12  13
ATOM     13  C   UNL d   1     -50.113  27.126  33.806  0.00  0.00     0.130 C 
BRANCH  13  14
ATOM     14  O   UNL d   1     -50.758  27.250  33.306  0.00  0.00    -0.305 OA
BRANCH  14  15
ATOM     15  C   UNL d   1     -50.904  26.439  33.313  0.00  0.00     0.100 A 
ATOM     16  C   UNL d   1     -50.276  25.916  33.308  0.00  0.00     0.026 A 
ATOM     17  C   UNL d   1     -50.417  25.103  33.315  0.00  0.00     0.013 A 
ATOM     18  C   UNL d   1     -51.195  24.819  33.327  0.00  0.00     0.058 A 
ATOM     19  C   UNL d   1     -51.821  25.349  33.332  0.00  0.00     0.013 A 
ATOM     20 CL   UNL d   1     -51.340  24.006  33.335  0.00  0.00    -0.082 Cl
ATOM     21  C   UNL d   1     -51.671  26.160  33.325  0.00  0.00     0.026 A 
ENDBRANCH  14  15
ENDBRANCH  13  14
ENDBRANCH  12  13
ENDBRANCH   1  12
TORSDOF 6
ENDMDL
MODEL 3
REMARK VINA RESULT:      43.7      0.653      1.002
REMARK  6 active torsions:
REMARK  status: ('A' for Active; 'I' for Inactive)
REMARK    1  A    between atoms: C_8  and  C_3 
REMARK    2  A    between atoms: C_7  and  O_15 
REMARK    3  A    between atoms: S_9  and  C_8 
REMARK    4  A    between atoms: C_18  and  S_9 
REMARK    5  A    between atoms: O_15  and  C_19 
REMARK    6  A    between atoms: C_19  and  C_18 
ROOT
ATOM      1  S   UNL d   1     -49.173  28.416  34.366  0.00  0.00    -0.081 SA
ENDROOT
BRANCH   1   2
ATOM      2  C   UNL d   1     -49.328  27.983  33.684  0.00  0.00     0.074 C 
BRANCH   2   3
ATOM      3  C   UNL d   1     -50.044  27.585  33.606  0.00  0.00     0.169 A 
ATOM      4  N   UNL d   1     -50.877  27.520  33.552  0.00  0.00    -0.225 NA
ATOM      5  C   UNL d   1     -51.068  26.709  33.464  0.00  0.00     0.101 A 
ATOM      6  C   UNL d   1     -50.351  26.283  33.464  0.00  0.00     0.101 A 
ATOM      7  C   UNL d   1     -51.784  26.296  33.384  0.00  0.00     0.021 A 
ATOM      8  N   UNL d   1     -49.715  26.816  33.551  0.00  0.00    -0.225 NA
ATOM      9  C   UNL d   1     -50.365  25.453  33.384  0.00  0.00     0.021 A 
ATOM     10  C   UNL d   1     -51.077  25.062  33.306  0.00  0.00     0.002 A 
ATOM     11  C   UNL d   1     -51.786  25.483  33.306  0.00  0.00     0.002 A 
ENDBRANCH   2   3
ENDBRANCH   1   2
BRANCH   1  12
ATOM     12  C   UNL d   1     -48.411  28.690  34.514  0.00  0.00     0.062 C 
BRANCH  12  13
ATOM     13  C   UNL d   1     -48.297  29.455  34.798  0.00  0.00     0.130 C 
BRANCH  13  14
ATOM     14  O   UNL d   1     -47.707  29.595  35.358  0.00  0.00    -0.305 OA
BRANCH  14  15
ATOM     15  C   UNL d   1     -47.694  30.387  35.127  0.00  0.00     0.100 A 
ATOM     16  C   UNL d   1     -48.243  30.658  34.586  0.00  0.00     0.026 A 
ATOM     17  C   UNL d   1     -48.234  31.449  34.352  0.00  0.00     0.013 A 
ATOM     18  C   UNL d   1     -47.668  31.967  34.666  0.00  0.00     0.058 A 
ATOM     19  C   UNL d   1     -47.120  31.688  35.209  0.00  0.00     0.013 A 
ATOM     20 CL   UNL d   1     -47.656  32.758  34.434  0.00  0.00    -0.082 Cl
ATOM     21  C   UNL d   1     -47.136  30.895  35.437  0.00  0.00     0.026 A 
ENDBRANCH  14  15
ENDBRANCH  13  14
ENDBRANCH  12  13
ENDBRANCH   1  12
TORSDOF 6
ENDMDL
