MODEL 1
REMARK VINA RESULT:      47.8      0.000      0.000
REMARK  4 active torsions:
REMARK  status: ('A' for Active; 'I' for Inactive)
REMARK       I    between atoms: N_2  and  C_1 
REMARK    1  A    between atoms: O_3  and  C_1 
REMARK    2  A    between atoms: C_5  and  O_3 
REMARK    3  A    between atoms: O_8  and  C_7 
REMARK    4  A    between atoms: C_10  and  O_8 
ROOT
ATOM      1  C   UNL d   1     -50.257  25.906  33.453  0.00  0.00     0.107 A 
ATOM      2  C   UNL d   1     -50.796  25.282  33.416  0.00  0.00     0.050 A 
ATOM      3  C   UNL d   1     -50.526  24.502  33.372  0.00  0.00     0.102 A 
ATOM      4  C   UNL d   1     -49.177  24.967  33.403  0.00  0.00     0.004 A 
ATOM      5  C   UNL d   1     -49.447  25.748  33.447  0.00  0.00     0.025 A 
ATOM      6  C   UNL d   1     -49.717  24.345  33.366  0.00  0.00     0.025 A 
ENDROOT
BRANCH   1   7
ATOM      7  O   UNL d   1     -50.527  26.685  33.497  0.00  0.00    -0.259 OA
BRANCH   7   8
ATOM      8  C   UNL d   1     -50.003  27.318  33.499  0.00  0.00     0.378 C 
ATOM      9  N   UNL d   1     -50.274  28.105  33.435  0.00  0.00    -0.247 N 
ATOM     10  C   UNL d   1     -51.091  28.247  33.369  0.00  0.00     0.112 A 
ATOM     11  C   UNL d   1     -49.737  28.734  33.438  0.00  0.00     0.112 A 
ATOM     12  C   UNL d   1     -51.368  29.024  33.306  0.00  0.00     0.142 A 
ATOM     13  O   UNL d   1     -50.838  29.659  33.308  0.00  0.00    -0.300 OA
ATOM     14  C   UNL d   1     -50.014  29.509  33.375  0.00  0.00     0.142 A 
ATOM     15  O   UNL d   1     -49.168  27.159  33.567  0.00  0.00    -0.237 OA
ENDBRANCH   7   8
ENDBRANCH   1   7
BRANCH   3  16
ATOM     16  O   UNL d   1     -51.066  23.880  33.334  0.00  0.00    -0.307 OA
BRANCH  16  17
ATOM     17  C   UNL d   1     -51.878  24.033  33.372  0.00  0.00     0.100 A 
ATOM     18  C   UNL d   1     -52.148  24.806  33.470  0.00  0.00     0.025 A 
ATOM     19  C   UNL d   1     -52.960  24.959  33.507  0.00  0.00     0.002 A 
ATOM     20  C   UNL d   1     -53.501  24.339  33.446  0.00  0.00     0.000 A 
ATOM     21  C   UNL d   1     -53.222  23.564  33.347  0.00  0.00     0.002 A 
ATOM     22  C   UNL d   1     -52.419  23.413  33.310  0.00  0.00     0.025 A 
ENDBRANCH  16  17
ENDBRANCH   3  16
TORSDOF 4
ENDMDL
MODEL 2
REMARK VINA RESULT:      50.8      2.869      3.431
REMARK  4 active torsions:
REMARK  status: ('A' for Active; 'I' for Inactive)
REMARK       I    between atoms: N_2  and  C_1 
REMARK    1  A    between atoms: O_3  and  C_1 
REMARK    2  A    between atoms: C_5  and  O_3 
REMARK    3  A    between atoms: O_8  and  C_7 
REMARK    4  A    between atoms: C_10  and  O_8 
ROOT
ATOM      1  C   UNL d   1     -51.260  26.632  35.168  0.00  0.00     0.107 A 
ATOM      2  C   UNL d   1     -51.692  26.203  34.610  0.00  0.00     0.050 A 
ATOM      3  C   UNL d   1     -51.372  26.054  33.863  0.00  0.00     0.102 A 
ATOM      4  C   UNL d   1     -50.187  26.763  34.229  0.00  0.00     0.004 A 
ATOM      5  C   UNL d   1     -50.507  26.911  34.977  0.00  0.00     0.025 A 
ATOM      6  C   UNL d   1     -50.619  26.334  33.672  0.00  0.00     0.025 A 
ENDROOT
BRANCH   1   7
ATOM      7  O   UNL d   1     -51.580  26.780  35.915  0.00  0.00    -0.259 OA
BRANCH   7   8
ATOM      8  C   UNL d   1     -51.129  26.695  36.596  0.00  0.00     0.378 C 
ATOM      9  N   UNL d   1     -51.458  26.378  37.295  0.00  0.00    -0.247 N 
ATOM     10  C   UNL d   1     -52.257  26.145  37.299  0.00  0.00     0.112 A 
ATOM     11  C   UNL d   1     -50.993  26.296  37.975  0.00  0.00     0.112 A 
ATOM     12  C   UNL d   1     -52.589  25.830  37.987  0.00  0.00     0.142 A 
ATOM     13  O   UNL d   1     -52.132  25.745  38.672  0.00  0.00    -0.300 OA
ATOM     14  C   UNL d   1     -51.326  25.982  38.663  0.00  0.00     0.142 A 
ATOM     15  O   UNL d   1     -50.312  26.937  36.581  0.00  0.00    -0.237 OA
ENDBRANCH   7   8
ENDBRANCH   1   7
BRANCH   3  16
ATOM     16  O   UNL d   1     -51.804  25.626  33.306  0.00  0.00    -0.307 OA
BRANCH  16  17
ATOM     17  C   UNL d   1     -51.922  24.814  33.409  0.00  0.00     0.100 A 
ATOM     18  C   UNL d   1     -51.284  24.294  33.359  0.00  0.00     0.025 A 
ATOM     19  C   UNL d   1     -51.402  23.482  33.463  0.00  0.00     0.002 A 
ATOM     20  C   UNL d   1     -52.158  23.191  33.616  0.00  0.00     0.000 A 
ATOM     21  C   UNL d   1     -52.795  23.719  33.665  0.00  0.00     0.002 A 
ATOM     22  C   UNL d   1     -52.679  24.523  33.563  0.00  0.00     0.025 A 
ENDBRANCH  16  17
ENDBRANCH   3  16
TORSDOF 4
ENDMDL
