MODEL 1
REMARK VINA RESULT:      42.1      0.000      0.000
REMARK  3 active torsions:
REMARK  status: ('A' for Active; 'I' for Inactive)
REMARK    1  A    between atoms: C_11  and  C_3 
REMARK    2  A    between atoms: O_13  and  C_10 
REMARK    3  A    between atoms: C_21  and  O_13 
ROOT
ATOM      1  C   UNL d   1     -54.737-101.230 -41.367  0.00  0.00     0.203 A 
ATOM      2  C   UNL d   1     -54.736-101.616 -40.639  0.00  0.00     0.101 A 
ATOM      3  C   UNL d   1     -54.750-101.670 -42.063  0.00  0.00     0.064 A 
ATOM      4  C   UNL d   1     -54.749-102.441 -40.608  0.00  0.00     0.108 A 
ATOM      5  C   UNL d   1     -54.723-101.177 -39.943  0.00  0.00     0.203 A 
ATOM      6  C   UNL d   1     -54.762-102.494 -42.032  0.00  0.00     0.126 A 
ATOM      7  O   UNL d   1     -54.762-102.880 -41.305  0.00  0.00    -0.305 OA
ATOM      8  C   UNL d   1     -54.748-102.827 -39.881  0.00  0.00     0.050 A 
ATOM      9  C   UNL d   1     -54.723-101.563 -39.211  0.00  0.00     0.067 A 
ATOM     10  C   UNL d   1     -54.735-102.387 -39.180  0.00  0.00     0.105 A 
ATOM     11  O   UNL d   1     -54.725-100.407 -41.398  0.00  0.00    -0.286 OA
ATOM     12  O   UNL d   1     -54.711-100.354 -39.974  0.00  0.00    -0.286 OA
ENDROOT
BRANCH   3  13
ATOM     13  C   UNL d   1     -54.751-101.284 -42.791  0.00  0.00     0.005 A 
ATOM     14  C   UNL d   1     -54.791-100.451 -42.825  0.00  0.00     0.003 A 
ATOM     15  C   UNL d   1     -54.791-100.066 -43.553  0.00  0.00     0.042 A 
ATOM     16  C   UNL d   1     -54.752-100.504 -44.255  0.00  0.00     0.196 A 
ATOM     17  C   UNL d   1     -54.712-101.336 -44.220  0.00  0.00     0.042 A 
ATOM     18  O   UNL d   1     -54.753-100.118 -44.982  0.00  0.00    -0.287 OA
ATOM     19  C   UNL d   1     -54.711-101.722 -43.493  0.00  0.00     0.003 A 
ENDBRANCH   3  13
BRANCH  10  20
ATOM     20  O   UNL d   1     -54.735-102.773 -38.444  0.00  0.00    -0.307 OA
BRANCH  20  21
ATOM     21  C   UNL d   1     -55.217-102.510 -37.832  0.00  0.00     0.100 C 
ATOM     22  C   UNL d   1     -54.904-102.039 -37.229  0.00  0.00     0.027 C 
ATOM     23  C   UNL d   1     -56.016-102.716 -37.816  0.00  0.00     0.027 C 
ENDBRANCH  20  21
ENDBRANCH  10  20
TORSDOF 3
ENDMDL
