MODEL 1
REMARK VINA RESULT:      -5.9      0.000      0.000
REMARK  7 active torsions:
REMARK  status: ('A' for Active; 'I' for Inactive)
REMARK    1  A    between atoms: C_3  and  C_1 
REMARK    2  A    between atoms: C_9  and  N_2 
REMARK    3  A    between atoms: C_6  and  C_3 
REMARK    4  A    between atoms: C_8  and  C_3 
REMARK       I    between atoms: N_11  and  C_6 
REMARK    5  A    between atoms: C_26  and  C_7 
REMARK    6  A    between atoms: C_21  and  N_11 
REMARK    7  A    between atoms: C_12  and  C_21 
ROOT
ATOM      1  C   UNL d   1     -47.318  13.098  22.898  0.00  0.00     0.103 A 
ATOM      2  N   UNL d   1     -48.126  13.201  22.787  0.00  0.00    -0.269 N 
ATOM      3  S   UNL d   1     -47.199  12.361  23.249  0.00  0.00    -0.064 SA
ATOM      4  C   UNL d   1     -48.514  12.528  23.068  0.00  0.00     0.271 A 
ATOM      5  C   UNL d   1     -47.937  12.011  23.353  0.00  0.00     0.087 A 
ATOM      6  O   UNL d   1     -49.326  12.401  23.064  0.00  0.00    -0.266 OA
ENDROOT
BRANCH   1   7
ATOM      7  C   UNL d   1     -46.724  13.638  22.695  0.00  0.00     0.101 C 
BRANCH   7   8
ATOM      8  C   UNL d   1     -46.222  13.481  22.057  0.00  0.00     0.283 C 
ATOM      9  N   UNL d   1     -45.457  13.223  22.189  0.00  0.00    -0.204 NA
ATOM     10  O   UNL d   1     -46.497  13.587  21.284  0.00  0.00    -0.265 OA
BRANCH   9  11
ATOM     11  C   UNL d   1     -44.955  13.066  21.553  0.00  0.00     0.127 C 
BRANCH  11  12
ATOM     12  C   UNL d   1     -44.203  12.758  21.676  0.00  0.00     0.119 A 
ATOM     13  O   UNL d   1     -43.982  12.207  22.245  0.00  0.00    -0.304 OA
ATOM     14  C   UNL d   1     -43.175  12.060  22.165  0.00  0.00     0.123 A 
ATOM     15  C   UNL d   1     -42.895  12.521  21.546  0.00  0.00     0.029 A 
ATOM     16  C   UNL d   1     -43.526  12.953  21.242  0.00  0.00     0.028 A 
ENDBRANCH  11  12
ENDBRANCH   9  11
ENDBRANCH   7   8
BRANCH   7  17
ATOM     17  C   UNL d   1     -46.633  14.338  23.132  0.00  0.00     0.129 C 
ATOM     18  N   UNL d   1     -46.421  15.031  22.743  0.00  0.00    -0.146 N 
ENDBRANCH   7  17
ENDBRANCH   1   7
BRANCH   2  19
ATOM     19  C   UNL d   1     -48.846  13.541  22.573  0.00  0.00     0.067 A 
ATOM     20  C   UNL d   1     -49.148  13.427  21.823  0.00  0.00     0.018 A 
ATOM     21  C   UNL d   1     -49.863  13.764  21.610  0.00  0.00     0.008 A 
ATOM     22  C   UNL d   1     -50.281  14.223  22.159  0.00  0.00     0.035 A 
ATOM     23  C   UNL d   1     -49.975  14.337  22.915  0.00  0.00     0.008 A 
ATOM     24 BR   UNL d   1     -50.999  14.565  21.953  0.00  0.00    -0.049 Br
ATOM     25  C   UNL d   1     -49.259  13.997  23.124  0.00  0.00     0.018 A 
ENDBRANCH   2  19
BRANCH   5  26
ATOM     26  C   UNL d   1     -48.084  11.269  23.686  0.00  0.00     0.011 C 
ATOM     27  C   UNL d   1     -47.489  10.695  23.682  0.00  0.00     0.001 C 
ENDBRANCH   5  26
TORSDOF 7
ENDMDL
MODEL 2
REMARK VINA RESULT:      -5.1      1.136      1.402
REMARK  7 active torsions:
REMARK  status: ('A' for Active; 'I' for Inactive)
REMARK    1  A    between atoms: C_3  and  C_1 
REMARK    2  A    between atoms: C_9  and  N_2 
REMARK    3  A    between atoms: C_6  and  C_3 
REMARK    4  A    between atoms: C_8  and  C_3 
REMARK       I    between atoms: N_11  and  C_6 
REMARK    5  A    between atoms: C_26  and  C_7 
REMARK    6  A    between atoms: C_21  and  N_11 
REMARK    7  A    between atoms: C_12  and  C_21 
ROOT
ATOM      1  C   UNL d   1     -46.712  12.439  23.122  0.00  0.00     0.103 A 
ATOM      2  N   UNL d   1     -47.505  12.227  23.161  0.00  0.00    -0.269 N 
ATOM      3  S   UNL d   1     -46.260  11.777  23.316  0.00  0.00    -0.064 SA
ATOM      4  C   UNL d   1     -47.552  11.432  23.380  0.00  0.00     0.271 A 
ATOM      5  C   UNL d   1     -46.779  11.157  23.474  0.00  0.00     0.087 A 
ATOM      6  O   UNL d   1     -48.241  10.997  23.483  0.00  0.00    -0.266 OA
ENDROOT
BRANCH   1   7
ATOM      7  C   UNL d   1     -46.415  13.186  22.923  0.00  0.00     0.101 C 
BRANCH   7   8
ATOM      8  C   UNL d   1     -45.945  13.279  22.249  0.00  0.00     0.283 C 
ATOM      9  N   UNL d   1     -45.137  13.159  22.291  0.00  0.00    -0.204 NA
ATOM     10  O   UNL d   1     -46.297  13.494  21.531  0.00  0.00    -0.265 OA
BRANCH   9  11
ATOM     11  C   UNL d   1     -44.667  13.252  21.618  0.00  0.00     0.127 C 
BRANCH  11  12
ATOM     12  C   UNL d   1     -43.898  12.963  21.599  0.00  0.00     0.119 A 
ATOM     13  O   UNL d   1     -43.583  12.366  22.068  0.00  0.00    -0.304 OA
ATOM     14  C   UNL d   1     -42.793  12.259  21.858  0.00  0.00     0.123 A 
ATOM     15  C   UNL d   1     -42.618  12.791  21.256  0.00  0.00     0.029 A 
ATOM     16  C   UNL d   1     -43.297  13.227  21.094  0.00  0.00     0.028 A 
ENDBRANCH  11  12
ENDBRANCH   9  11
ENDBRANCH   7   8
BRANCH   7  17
ATOM     17  C   UNL d   1     -46.588  13.842  23.401  0.00  0.00     0.129 C 
ATOM     18  N   UNL d   1     -46.252  14.571  23.222  0.00  0.00    -0.146 N 
ENDBRANCH   7  17
ENDBRANCH   1   7
BRANCH   2  19
ATOM     19  C   UNL d   1     -48.328  12.277  23.128  0.00  0.00     0.067 A 
ATOM     20  C   UNL d   1     -48.736  12.715  23.682  0.00  0.00     0.018 A 
ATOM     21  C   UNL d   1     -49.553  12.765  23.650  0.00  0.00     0.008 A 
ATOM     22  C   UNL d   1     -49.966  12.369  23.050  0.00  0.00     0.035 A 
ATOM     23  C   UNL d   1     -49.551  11.928  22.492  0.00  0.00     0.008 A 
ATOM     24 BR   UNL d   1     -50.785  12.414  23.011  0.00  0.00    -0.049 Br
ATOM     25  C   UNL d   1     -48.734  11.881  22.529  0.00  0.00     0.018 A 
ENDBRANCH   2  19
BRANCH   5  26
ATOM     26  C   UNL d   1     -46.569  10.388  23.692  0.00  0.00     0.011 C 
ATOM     27  C   UNL d   1     -45.773  10.167  23.696  0.00  0.00     0.001 C 
ENDBRANCH   5  26
TORSDOF 7
ENDMDL
MODEL 3
REMARK VINA RESULT:      -3.8      6.479      8.496
REMARK  7 active torsions:
REMARK  status: ('A' for Active; 'I' for Inactive)
REMARK    1  A    between atoms: C_3  and  C_1 
REMARK    2  A    between atoms: C_9  and  N_2 
REMARK    3  A    between atoms: C_6  and  C_3 
REMARK    4  A    between atoms: C_8  and  C_3 
REMARK       I    between atoms: N_11  and  C_6 
REMARK    5  A    between atoms: C_26  and  C_7 
REMARK    6  A    between atoms: C_21  and  N_11 
REMARK    7  A    between atoms: C_12  and  C_21 
ROOT
ATOM      1  C   UNL d   1     -39.503  15.314  19.694  0.00  0.00     0.103 A 
ATOM      2  N   UNL d   1     -40.069  15.009  20.205  0.00  0.00    -0.269 N 
ATOM      3  S   UNL d   1     -38.926  15.693  20.147  0.00  0.00    -0.064 SA
ATOM      4  C   UNL d   1     -39.849  15.196  20.979  0.00  0.00     0.271 A 
ATOM      5  C   UNL d   1     -39.141  15.619  20.939  0.00  0.00     0.087 A 
ATOM      6  O   UNL d   1     -40.261  14.996  21.662  0.00  0.00    -0.266 OA
ENDROOT
BRANCH   1   7
ATOM      7  C   UNL d   1     -39.506  15.254  18.868  0.00  0.00     0.101 C 
BRANCH   7   8
ATOM      8  C   UNL d   1     -38.858  14.925  18.474  0.00  0.00     0.283 C 
ATOM      9  N   UNL d   1     -38.837  14.122  18.317  0.00  0.00    -0.204 NA
ATOM     10  O   UNL d   1     -38.232  15.412  18.238  0.00  0.00    -0.265 OA
BRANCH   9  11
ATOM     11  C   UNL d   1     -38.190  13.793  17.923  0.00  0.00     0.127 C 
BRANCH  11  12
ATOM     12  C   UNL d   1     -38.140  12.981  17.803  0.00  0.00     0.119 A 
ATOM     13  O   UNL d   1     -38.275  12.576  17.101  0.00  0.00    -0.304 OA
ATOM     14  C   UNL d   1     -38.161  11.771  17.238  0.00  0.00     0.123 A 
ATOM     15  C   UNL d   1     -37.954  11.678  18.027  0.00  0.00     0.029 A 
ATOM     16  C   UNL d   1     -37.940  12.421  18.379  0.00  0.00     0.028 A 
ENDBRANCH  11  12
ENDBRANCH   9  11
ENDBRANCH   7   8
BRANCH   7  17
ATOM     17  C   UNL d   1     -40.161  15.524  18.436  0.00  0.00     0.129 C 
ATOM     18  N   UNL d   1     -40.056  15.771  17.659  0.00  0.00    -0.146 N 
ENDBRANCH   7  17
ENDBRANCH   1   7
BRANCH   2  19
ATOM     19  C   UNL d   1     -40.744  14.622  20.480  0.00  0.00     0.067 A 
ATOM     20  C   UNL d   1     -41.430  15.042  20.621  0.00  0.00     0.018 A 
ATOM     21  C   UNL d   1     -42.100  14.658  20.893  0.00  0.00     0.008 A 
ATOM     22  C   UNL d   1     -42.081  13.840  21.025  0.00  0.00     0.035 A 
ATOM     23  C   UNL d   1     -41.388  13.419  20.882  0.00  0.00     0.008 A 
ATOM     24 BR   UNL d   1     -42.750  13.448  21.298  0.00  0.00    -0.049 Br
ATOM     25  C   UNL d   1     -40.719  13.807  20.610  0.00  0.00     0.018 A 
ENDBRANCH   2  19
BRANCH   5  26
ATOM     26  C   UNL d   1     -38.725  15.916  21.588  0.00  0.00     0.011 C 
ATOM     27  C   UNL d   1     -37.940  15.688  21.709  0.00  0.00     0.001 C 
ENDBRANCH   5  26
TORSDOF 7
ENDMDL
MODEL 4
REMARK VINA RESULT:      -3.2      6.664      8.786
REMARK  7 active torsions:
REMARK  status: ('A' for Active; 'I' for Inactive)
REMARK    1  A    between atoms: C_3  and  C_1 
REMARK    2  A    between atoms: C_9  and  N_2 
REMARK    3  A    between atoms: C_6  and  C_3 
REMARK    4  A    between atoms: C_8  and  C_3 
REMARK       I    between atoms: N_11  and  C_6 
REMARK    5  A    between atoms: C_26  and  C_7 
REMARK    6  A    between atoms: C_21  and  N_11 
REMARK    7  A    between atoms: C_12  and  C_21 
ROOT
ATOM      1  C   UNL d   1     -40.116  14.832  19.732  0.00  0.00     0.103 A 
ATOM      2  N   UNL d   1     -39.817  14.863  20.497  0.00  0.00    -0.269 N 
ATOM      3  S   UNL d   1     -40.728  14.279  19.719  0.00  0.00    -0.064 SA
ATOM      4  C   UNL d   1     -40.241  14.330  20.964  0.00  0.00     0.271 A 
ATOM      5  C   UNL d   1     -40.804  13.971  20.479  0.00  0.00     0.087 A 
ATOM      6  O   UNL d   1     -40.122  14.187  21.765  0.00  0.00    -0.266 OA
ENDROOT
BRANCH   1   7
ATOM      7  C   UNL d   1     -39.851  15.275  19.085  0.00  0.00     0.101 C 
BRANCH   7   8
ATOM      8  C   UNL d   1     -39.144  15.076  18.706  0.00  0.00     0.283 C 
ATOM      9  N   UNL d   1     -39.083  14.372  18.294  0.00  0.00    -0.204 NA
ATOM     10  O   UNL d   1     -38.498  15.592  18.746  0.00  0.00    -0.265 OA
BRANCH   9  11
ATOM     11  C   UNL d   1     -38.377  14.171  17.915  0.00  0.00     0.127 C 
BRANCH  11  12
ATOM     12  C   UNL d   1     -38.243  13.404  17.652  0.00  0.00     0.119 A 
ATOM     13  O   UNL d   1     -38.034  12.755  18.110  0.00  0.00    -0.304 OA
ATOM     14  C   UNL d   1     -37.958  12.100  17.614  0.00  0.00     0.123 A 
ATOM     15  C   UNL d   1     -38.122  12.345  16.847  0.00  0.00     0.029 A 
ATOM     16  C   UNL d   1     -38.298  13.148  16.867  0.00  0.00     0.028 A 
ENDBRANCH  11  12
ENDBRANCH   9  11
ENDBRANCH   7   8
BRANCH   7  17
ATOM     17  C   UNL d   1     -40.297  15.922  18.816  0.00  0.00     0.129 C 
ATOM     18  N   UNL d   1     -40.752  15.842  18.136  0.00  0.00    -0.146 N 
ENDBRANCH   7  17
ENDBRANCH   1   7
BRANCH   2  19
ATOM     19  C   UNL d   1     -39.354  15.080  21.145  0.00  0.00     0.067 A 
ATOM     20  C   UNL d   1     -38.661  14.680  21.307  0.00  0.00     0.018 A 
ATOM     21  C   UNL d   1     -38.202  14.894  21.950  0.00  0.00     0.008 A 
ATOM     22  C   UNL d   1     -38.442  15.520  22.437  0.00  0.00     0.035 A 
ATOM     23  C   UNL d   1     -39.142  15.922  22.271  0.00  0.00     0.008 A 
ATOM     24 BR   UNL d   1     -37.987  15.741  23.084  0.00  0.00    -0.049 Br
ATOM     25  C   UNL d   1     -39.598  15.704  21.626  0.00  0.00     0.018 A 
ENDBRANCH   2  19
BRANCH   5  26
ATOM     26  C   UNL d   1     -41.349  13.400  20.722  0.00  0.00     0.011 C 
ATOM     27  C   UNL d   1     -42.121  13.625  20.911  0.00  0.00     0.001 C 
ENDBRANCH   5  26
TORSDOF 7
ENDMDL
MODEL 5
REMARK VINA RESULT:      -3.2      7.038      8.874
REMARK  7 active torsions:
REMARK  status: ('A' for Active; 'I' for Inactive)
REMARK    1  A    between atoms: C_3  and  C_1 
REMARK    2  A    between atoms: C_9  and  N_2 
REMARK    3  A    between atoms: C_6  and  C_3 
REMARK    4  A    between atoms: C_8  and  C_3 
REMARK       I    between atoms: N_11  and  C_6 
REMARK    5  A    between atoms: C_26  and  C_7 
REMARK    6  A    between atoms: C_21  and  N_11 
REMARK    7  A    between atoms: C_12  and  C_21 
ROOT
ATOM      1  C   UNL d   1     -39.849  15.071  20.114  0.00  0.00     0.103 A 
ATOM      2  N   UNL d   1     -39.658  14.725  20.834  0.00  0.00    -0.269 N 
ATOM      3  S   UNL d   1     -40.630  15.333  20.155  0.00  0.00    -0.064 SA
ATOM      4  C   UNL d   1     -40.319  14.769  21.328  0.00  0.00     0.271 A 
ATOM      5  C   UNL d   1     -40.919  15.146  20.903  0.00  0.00     0.087 A 
ATOM      6  O   UNL d   1     -40.368  14.489  22.099  0.00  0.00    -0.266 OA
ENDROOT
BRANCH   1   7
ATOM      7  C   UNL d   1     -39.348  15.146  19.459  0.00  0.00     0.101 C 
BRANCH   7   8
ATOM      8  C   UNL d   1     -39.541  14.777  18.745  0.00  0.00     0.283 C 
ATOM      9  N   UNL d   1     -39.792  15.222  18.106  0.00  0.00    -0.204 NA
ATOM     10  O   UNL d   1     -39.478  13.954  18.679  0.00  0.00    -0.265 OA
BRANCH   9  11
ATOM     11  C   UNL d   1     -39.985  14.854  17.393  0.00  0.00     0.127 C 
BRANCH  11  12
ATOM     12  C   UNL d   1     -40.397  15.260  16.808  0.00  0.00     0.119 A 
ATOM     13  O   UNL d   1     -41.197  15.446  16.806  0.00  0.00    -0.304 OA
ATOM     14  C   UNL d   1     -41.368  15.855  16.111  0.00  0.00     0.123 A 
ATOM     15  C   UNL d   1     -40.671  15.922  15.681  0.00  0.00     0.029 A 
ATOM     16  C   UNL d   1     -40.070  15.556  16.107  0.00  0.00     0.028 A 
ENDBRANCH  11  12
ENDBRANCH   9  11
ENDBRANCH   7   8
BRANCH   7  17
ATOM     17  C   UNL d   1     -38.651  15.592  19.520  0.00  0.00     0.129 C 
ATOM     18  N   UNL d   1     -38.249  15.807  18.835  0.00  0.00    -0.146 N 
ENDBRANCH   7  17
ENDBRANCH   1   7
BRANCH   2  19
ATOM     19  C   UNL d   1     -39.228  14.344  21.426  0.00  0.00     0.067 A 
ATOM     20  C   UNL d   1     -38.893  14.775  22.033  0.00  0.00     0.018 A 
ATOM     21  C   UNL d   1     -38.466  14.397  22.621  0.00  0.00     0.008 A 
ATOM     22  C   UNL d   1     -38.375  13.573  22.599  0.00  0.00     0.035 A 
ATOM     23  C   UNL d   1     -38.714  13.141  21.985  0.00  0.00     0.008 A 
ATOM     24 BR   UNL d   1     -37.948  13.187  23.185  0.00  0.00    -0.049 Br
ATOM     25  C   UNL d   1     -39.141  13.524  21.399  0.00  0.00     0.018 A 
ENDBRANCH   2  19
BRANCH   5  26
ATOM     26  C   UNL d   1     -41.677  15.306  21.188  0.00  0.00     0.011 C 
ATOM     27  C   UNL d   1     -42.120  15.919  20.854  0.00  0.00     0.001 C 
ENDBRANCH   5  26
TORSDOF 7
ENDMDL
