MODEL 1
REMARK VINA RESULT:      78.5      0.000      0.000
REMARK  9 active torsions:
REMARK  status: ('A' for Active; 'I' for Inactive)
REMARK    1  A    between atoms: S_10  and  C_2 
REMARK    2  A    between atoms: C_7  and  C_5 
REMARK    3  A    between atoms: C_9  and  C_6 
REMARK    4  A    between atoms: O_19  and  C_9 
REMARK    5  A    between atoms: C_17  and  S_10 
REMARK    6  A    between atoms: C_13  and  C_17 
REMARK    7  A    between atoms: O_20  and  C_14 
REMARK    8  A    between atoms: C_23  and  O_19 
REMARK    9  A    between atoms: C_24  and  O_20 
ROOT
ATOM      1  C   UNL d   1     -51.921  25.796  35.667  0.00  0.00     0.092 A 
ATOM      2  C   UNL d   1     -51.421  26.211  36.194  0.00  0.00     0.124 A 
ATOM      3  C   UNL d   1     -50.667  26.700  35.092  0.00  0.00     0.285 A 
ATOM      4  N   UNL d   1     -50.801  26.658  35.901  0.00  0.00    -0.201 NA
ATOM      5  C   UNL d   1     -51.789  25.837  34.861  0.00  0.00     0.023 A 
ATOM      6  C   UNL d   1     -51.167  26.285  34.565  0.00  0.00     0.122 A 
ATOM      7  C   UNL d   1     -52.539  25.351  35.957  0.00  0.00     0.103 C 
ATOM      8  N   UNL d   1     -53.151  24.911  36.251  0.00  0.00    -0.191 NA
ATOM      9  O   UNL d   1     -50.002  27.174  34.720  0.00  0.00    -0.265 OA
ENDROOT
BRANCH   2  10
ATOM     10  S   UNL d   1     -51.609  26.130  37.034  0.00  0.00    -0.062 SA
BRANCH  10  11
ATOM     11  C   UNL d   1     -51.111  26.310  37.726  0.00  0.00     0.101 C 
BRANCH  11  12
ATOM     12  C   UNL d   1     -51.474  26.650  38.435  0.00  0.00     0.303 C 
ATOM     13  O   UNL d   1     -51.822  26.389  38.736  0.00  0.00    -0.263 OA
ATOM     14  N   UNL d   1     -51.210  27.479  38.614  0.00  0.00    -0.102 N 
ENDBRANCH  11  12
ENDBRANCH  10  11
ENDBRANCH   2  10
BRANCH   5  15
ATOM     15  C   UNL d   1     -52.278  25.432  34.348  0.00  0.00     0.024 A 
ATOM     16  C   UNL d   1     -52.047  24.699  34.058  0.00  0.00     0.100 A 
ATOM     17  C   UNL d   1     -52.542  24.288  33.537  0.00  0.00     0.025 A 
ATOM     18  C   UNL d   1     -53.263  24.614  33.311  0.00  0.00     0.002 A 
ATOM     19  C   UNL d   1     -53.489  25.346  33.603  0.00  0.00     0.000 A 
ATOM     20  C   UNL d   1     -52.994  25.757  34.124  0.00  0.00     0.002 A 
BRANCH  16  21
ATOM     21  O   UNL d   1     -51.456  24.356  34.199  0.00  0.00    -0.305 OA
BRANCH  21  22
ATOM     22  C   UNL d   1     -51.510  23.573  33.722  0.00  0.00     0.123 C 
ATOM     23  C   UNL d   1     -50.539  23.216  33.410  0.00  0.00     0.029 C 
ENDBRANCH  21  22
ENDBRANCH  16  21
ENDBRANCH   5  15
BRANCH   6  24
ATOM     24  C   UNL d   1     -51.031  26.329  33.753  0.00  0.00     0.305 C 
ATOM     25  O   UNL d   1     -51.332  26.413  33.503  0.00  0.00    -0.259 OA
BRANCH  24  26
ATOM     26  O   UNL d   1     -50.282  26.205  33.392  0.00  0.00    -0.271 OA
BRANCH  26  27
ATOM     27  C   UNL d   1     -49.676  26.836  33.310  0.00  0.00     0.126 C 
ATOM     28  C   UNL d   1     -48.979  26.314  33.323  0.00  0.00     0.029 C 
ENDBRANCH  26  27
ENDBRANCH  24  26
ENDBRANCH   6  24
TORSDOF 9
ENDMDL
MODEL 2
REMARK VINA RESULT:      78.7      0.805      1.517
REMARK  9 active torsions:
REMARK  status: ('A' for Active; 'I' for Inactive)
REMARK    1  A    between atoms: S_10  and  C_2 
REMARK    2  A    between atoms: C_7  and  C_5 
REMARK    3  A    between atoms: C_9  and  C_6 
REMARK    4  A    between atoms: O_19  and  C_9 
REMARK    5  A    between atoms: C_17  and  S_10 
REMARK    6  A    between atoms: C_13  and  C_17 
REMARK    7  A    between atoms: O_20  and  C_14 
REMARK    8  A    between atoms: C_23  and  O_19 
REMARK    9  A    between atoms: C_24  and  O_20 
ROOT
ATOM      1  C   UNL d   1     -52.004  25.526  35.479  0.00  0.00     0.092 A 
ATOM      2  C   UNL d   1     -51.614  26.104  35.942  0.00  0.00     0.124 A 
ATOM      3  C   UNL d   1     -50.755  26.401  34.848  0.00  0.00     0.285 A 
ATOM      4  N   UNL d   1     -50.996  26.534  35.623  0.00  0.00    -0.201 NA
ATOM      5  C   UNL d   1     -51.766  25.392  34.708  0.00  0.00     0.023 A 
ATOM      6  C   UNL d   1     -51.145  25.823  34.385  0.00  0.00     0.122 A 
ATOM      7  C   UNL d   1     -52.619  25.096  35.796  0.00  0.00     0.103 C 
ATOM      8  N   UNL d   1     -53.231  24.673  36.116  0.00  0.00    -0.191 NA
ATOM      9  O   UNL d   1     -50.085  26.845  34.451  0.00  0.00    -0.265 OA
ENDROOT
BRANCH   2  10
ATOM     10  S   UNL d   1     -51.909  26.200  36.749  0.00  0.00    -0.062 SA
BRANCH  10  11
ATOM     11  C   UNL d   1     -51.516  26.566  37.435  0.00  0.00     0.101 C 
BRANCH  11  12
ATOM     12  C   UNL d   1     -51.737  26.318  38.235  0.00  0.00     0.303 C 
ATOM     13  O   UNL d   1     -51.842  25.817  38.364  0.00  0.00    -0.263 OA
ATOM     14  N   UNL d   1     -51.770  26.983  38.824  0.00  0.00    -0.102 N 
ENDBRANCH  11  12
ENDBRANCH  10  11
ENDBRANCH   2  10
BRANCH   5  15
ATOM     15  C   UNL d   1     -52.146  24.829  34.257  0.00  0.00     0.024 A 
ATOM     16  C   UNL d   1     -52.813  25.035  33.824  0.00  0.00     0.100 A 
ATOM     17  C   UNL d   1     -53.199  24.463  33.366  0.00  0.00     0.025 A 
ATOM     18  C   UNL d   1     -52.913  23.691  33.345  0.00  0.00     0.002 A 
ATOM     19  C   UNL d   1     -52.247  23.490  33.778  0.00  0.00     0.000 A 
ATOM     20  C   UNL d   1     -51.861  24.062  34.236  0.00  0.00     0.002 A 
BRANCH  16  21
ATOM     21  O   UNL d   1     -53.116  25.662  33.788  0.00  0.00    -0.305 OA
BRANCH  21  22
ATOM     22  C   UNL d   1     -53.938  25.512  33.407  0.00  0.00     0.123 C 
ATOM     23  C   UNL d   1     -54.518  26.419  33.313  0.00  0.00     0.029 C 
ENDBRANCH  21  22
ENDBRANCH  16  21
ENDBRANCH   5  15
BRANCH   6  24
ATOM     24  C   UNL d   1     -50.902  25.692  33.608  0.00  0.00     0.305 C 
ATOM     25  O   UNL d   1     -51.159  25.741  33.306  0.00  0.00    -0.259 OA
BRANCH  24  26
ATOM     26  O   UNL d   1     -50.127  25.451  33.390  0.00  0.00    -0.271 OA
BRANCH  26  27
ATOM     27  C   UNL d   1     -49.885  24.610  33.316  0.00  0.00     0.126 C 
ATOM     28  C   UNL d   1     -49.025  24.748  33.310  0.00  0.00     0.029 C 
ENDBRANCH  26  27
ENDBRANCH  24  26
ENDBRANCH   6  24
TORSDOF 9
ENDMDL
MODEL 3
REMARK VINA RESULT:      78.9      4.117      6.245
REMARK  9 active torsions:
REMARK  status: ('A' for Active; 'I' for Inactive)
REMARK    1  A    between atoms: S_10  and  C_2 
REMARK    2  A    between atoms: C_7  and  C_5 
REMARK    3  A    between atoms: C_9  and  C_6 
REMARK    4  A    between atoms: O_19  and  C_9 
REMARK    5  A    between atoms: C_17  and  S_10 
REMARK    6  A    between atoms: C_13  and  C_17 
REMARK    7  A    between atoms: O_20  and  C_14 
REMARK    8  A    between atoms: C_23  and  O_19 
REMARK    9  A    between atoms: C_24  and  O_20 
ROOT
ATOM      1  C   UNL d   1     -48.491  29.037  34.622  0.00  0.00     0.092 A 
ATOM      2  C   UNL d   1     -49.173  29.059  34.137  0.00  0.00     0.124 A 
ATOM      3  C   UNL d   1     -49.072  30.475  34.060  0.00  0.00     0.285 A 
ATOM      4  N   UNL d   1     -49.455  29.776  33.862  0.00  0.00    -0.201 NA
ATOM      5  C   UNL d   1     -48.108  29.732  34.820  0.00  0.00     0.023 A 
ATOM      6  C   UNL d   1     -48.390  30.453  34.545  0.00  0.00     0.122 A 
ATOM      7  C   UNL d   1     -48.208  28.324  34.897  0.00  0.00     0.103 C 
ATOM      8  N   UNL d   1     -47.932  27.612  35.167  0.00  0.00    -0.191 NA
ATOM      9  O   UNL d   1     -49.340  31.286  33.785  0.00  0.00    -0.265 OA
ENDROOT
BRANCH   2  10
ATOM     10  S   UNL d   1     -49.534  28.293  33.962  0.00  0.00    -0.062 SA
BRANCH  10  11
ATOM     11  C   UNL d   1     -50.135  28.096  33.363  0.00  0.00     0.101 C 
BRANCH  11  12
ATOM     12  C   UNL d   1     -50.448  27.289  33.322  0.00  0.00     0.303 C 
ATOM     13  O   UNL d   1     -50.140  26.860  33.308  0.00  0.00    -0.263 OA
ATOM     14  N   UNL d   1     -51.335  27.246  33.306  0.00  0.00    -0.102 N 
ENDBRANCH  11  12
ENDBRANCH  10  11
ENDBRANCH   2  10
BRANCH   5  15
ATOM     15  C   UNL d   1     -47.443  29.711  35.292  0.00  0.00     0.024 A 
ATOM     16  C   UNL d   1     -47.523  29.729  36.110  0.00  0.00     0.100 A 
ATOM     17  C   UNL d   1     -46.849  29.707  36.589  0.00  0.00     0.025 A 
ATOM     18  C   UNL d   1     -46.101  29.668  36.247  0.00  0.00     0.002 A 
ATOM     19  C   UNL d   1     -46.027  29.649  35.430  0.00  0.00     0.000 A 
ATOM     20  C   UNL d   1     -46.701  29.671  34.951  0.00  0.00     0.002 A 
BRANCH  16  21
ATOM     21  O   UNL d   1     -48.116  29.763  36.475  0.00  0.00    -0.305 OA
BRANCH  21  22
ATOM     22  C   UNL d   1     -47.861  29.711  37.356  0.00  0.00     0.123 C 
ATOM     23  C   UNL d   1     -48.703  29.584  38.021  0.00  0.00     0.029 C 
ENDBRANCH  21  22
ENDBRANCH  16  21
ENDBRANCH   5  15
BRANCH   6  24
ATOM     24  C   UNL d   1     -48.007  31.157  34.742  0.00  0.00     0.305 C 
ATOM     25  O   UNL d   1     -47.845  31.203  35.105  0.00  0.00    -0.259 OA
BRANCH  24  26
ATOM     26  O   UNL d   1     -47.925  31.811  34.222  0.00  0.00    -0.271 OA
BRANCH  26  27
ATOM     27  C   UNL d   1     -47.544  32.569  34.453  0.00  0.00     0.126 C 
ATOM     28  C   UNL d   1     -47.676  32.987  33.702  0.00  0.00     0.029 C 
ENDBRANCH  26  27
ENDBRANCH  24  26
ENDBRANCH   6  24
TORSDOF 9
ENDMDL
