MODEL 1
REMARK VINA RESULT:      79.9      0.000      0.000
REMARK  3 active torsions:
REMARK  status: ('A' for Active; 'I' for Inactive)
REMARK    1  A    between atoms: C_7  and  C_1 
REMARK    2  A    between atoms: C_12  and  C_6 
REMARK       I    between atoms: N_10  and  C_7 
REMARK    3  A    between atoms: C_13  and  N_10 
ROOT
ATOM      1  C   UNL d   1     -55.016-102.060 -39.503  0.00  0.00     0.108 A 
ATOM      2  C   UNL d   1     -54.920-101.491 -40.687  0.00  0.00     0.046 A 
ATOM      3  C   UNL d   1     -54.972-101.337 -39.884  0.00  0.00     0.116 A 
ATOM      4  C   UNL d   1     -54.932-102.311 -40.780  0.00  0.00     0.112 A 
ATOM      5  S   UNL d   1     -54.992-102.648 -40.032  0.00  0.00    -0.061 SA
ATOM      6  C   UNL d   1     -54.862-101.004 -41.348  0.00  0.00     0.028 A 
ATOM      7  N   UNL d   1     -54.887-102.649 -41.534  0.00  0.00    -0.239 NA
ATOM      8  C   UNL d   1     -54.817-101.332 -42.106  0.00  0.00     0.020 A 
ATOM      9  C   UNL d   1     -54.829-102.152 -42.199  0.00  0.00     0.082 A 
ATOM     10  N   UNL d   1     -54.981-100.590 -39.520  0.00  0.00    -0.147 N 
ATOM     11  C   UNL d   1     -54.759-100.846 -42.767  0.00  0.00     0.002 A 
ATOM     12  C   UNL d   1     -54.784-102.490 -42.952  0.00  0.00     0.019 A 
ATOM     13  C   UNL d   1     -54.713-101.173 -43.529  0.00  0.00     0.000 A 
ATOM     14  C   UNL d   1     -54.726-101.992 -43.622  0.00  0.00     0.002 A 
ENDROOT
BRANCH   1  15
ATOM     15  C   UNL d   1     -55.076-102.189 -38.690  0.00  0.00     0.287 C 
ATOM     16  N   UNL d   1     -54.762-101.657 -38.152  0.00  0.00    -0.208 NA
ATOM     17  O   UNL d   1     -55.463-102.872 -38.418  0.00  0.00    -0.265 OA
BRANCH  16  18
ATOM     18  C   UNL d   1     -54.828-101.796 -37.347  0.00  0.00     0.085 A 
ATOM     19  C   UNL d   1     -54.856-101.162 -36.816  0.00  0.00     0.018 A 
ATOM     20  C   UNL d   1     -54.822-100.392 -37.029  0.00  0.00     0.002 C 
ATOM     21  C   UNL d   1     -54.923-101.322 -35.999  0.00  0.00     0.002 A 
ATOM     22  C   UNL d   1     -54.963-102.106 -35.717  0.00  0.00     0.000 A 
ATOM     23  C   UNL d   1     -54.934-102.723 -36.264  0.00  0.00     0.002 A 
ATOM     24  C   UNL d   1     -54.867-102.575 -37.073  0.00  0.00     0.019 A 
ENDBRANCH  16  18
ENDBRANCH   1  15
BRANCH   6  25
ATOM     25  C   UNL d   1     -54.850-100.190 -41.256  0.00  0.00     0.100 A 
ATOM     26  O   UNL d   1     -54.823 -99.747 -40.564  0.00  0.00    -0.305 OA
ATOM     27  C   UNL d   1     -54.821 -98.949 -40.779  0.00  0.00     0.123 A 
ATOM     28  C   UNL d   1     -54.845 -98.901 -41.575  0.00  0.00     0.029 A 
ATOM     29  C   UNL d   1     -54.863 -99.653 -41.885  0.00  0.00     0.027 A 
ENDBRANCH   6  25
TORSDOF 3
ENDMDL
MODEL 2
REMARK VINA RESULT:      81.1      1.830      3.134
REMARK  3 active torsions:
REMARK  status: ('A' for Active; 'I' for Inactive)
REMARK    1  A    between atoms: C_7  and  C_1 
REMARK    2  A    between atoms: C_12  and  C_6 
REMARK       I    between atoms: N_10  and  C_7 
REMARK    3  A    between atoms: C_13  and  N_10 
ROOT
ATOM      1  C   UNL d   1     -54.817-100.836 -41.745  0.00  0.00     0.108 A 
ATOM      2  C   UNL d   1     -54.924-100.734 -43.054  0.00  0.00     0.046 A 
ATOM      3  C   UNL d   1     -54.949-101.264 -42.429  0.00  0.00     0.116 A 
ATOM      4  C   UNL d   1     -54.776 -99.988 -42.735  0.00  0.00     0.112 A 
ATOM      5  S   UNL d   1     -54.712-100.071 -41.919  0.00  0.00    -0.061 SA
ATOM      6  C   UNL d   1     -55.014-100.822 -43.867  0.00  0.00     0.028 A 
ATOM      7  N   UNL d   1     -54.717 -99.325 -43.226  0.00  0.00    -0.239 NA
ATOM      8  C   UNL d   1     -54.958-100.166 -44.367  0.00  0.00     0.020 A 
ATOM      9  C   UNL d   1     -54.809 -99.419 -44.047  0.00  0.00     0.082 A 
ATOM     10  N   UNL d   1     -55.084-102.083 -42.476  0.00  0.00    -0.147 N 
ATOM     11  C   UNL d   1     -55.048-100.253 -45.180  0.00  0.00     0.002 A 
ATOM     12  C   UNL d   1     -54.750 -98.756 -44.539  0.00  0.00     0.019 A 
ATOM     13  C   UNL d   1     -54.991 -99.595 -45.684  0.00  0.00     0.000 A 
ATOM     14  C   UNL d   1     -54.843 -98.849 -45.365  0.00  0.00     0.002 A 
ENDROOT
BRANCH   1  15
ATOM     15  C   UNL d   1     -54.791-101.130 -40.973  0.00  0.00     0.287 C 
ATOM     16  N   UNL d   1     -54.811-100.628 -40.328  0.00  0.00    -0.208 NA
ATOM     17  O   UNL d   1     -54.744-101.952 -40.858  0.00  0.00    -0.265 OA
BRANCH  16  18
ATOM     18  C   UNL d   1     -54.784-100.933 -39.567  0.00  0.00     0.085 A 
ATOM     19  C   UNL d   1     -54.746-100.424 -38.915  0.00  0.00     0.018 A 
ATOM     20  C   UNL d   1     -54.733 -99.625 -38.965  0.00  0.00     0.002 C 
ATOM     21  C   UNL d   1     -54.720-100.751 -38.147  0.00  0.00     0.002 A 
ATOM     22  C   UNL d   1     -54.731-101.578 -38.033  0.00  0.00     0.000 A 
ATOM     23  C   UNL d   1     -54.769-102.067 -38.697  0.00  0.00     0.002 A 
ATOM     24  C   UNL d   1     -54.796-101.752 -39.459  0.00  0.00     0.019 A 
ENDBRANCH  16  18
ENDBRANCH   1  15
BRANCH   6  25
ATOM     25  C   UNL d   1     -55.162-101.563 -44.184  0.00  0.00     0.100 A 
ATOM     26  O   UNL d   1     -55.751-102.102 -43.989  0.00  0.00    -0.305 OA
ATOM     27  C   UNL d   1     -55.654-102.764 -44.474  0.00  0.00     0.123 A 
ATOM     28  C   UNL d   1     -55.027-102.638 -44.952  0.00  0.00     0.029 A 
ATOM     29  C   UNL d   1     -54.713-101.905 -44.788  0.00  0.00     0.027 A 
ENDBRANCH   6  25
TORSDOF 3
ENDMDL
