MODEL 1
REMARK VINA RESULT:      -3.7      0.000      0.000
REMARK  4 active torsions:
REMARK  status: ('A' for Active; 'I' for Inactive)
REMARK    1  A    between atoms: N_2  and  S_1 
REMARK    2  A    between atoms: C_4  and  S_1 
REMARK    3  A    between atoms: C_15  and  C_3 
REMARK    4  A    between atoms: O_16  and  C_12 
ROOT
ATOM      1  S   UNL d   1      56.653   0.202  32.652  0.00  0.00     0.273 S 
ATOM      2  O   UNL d   1      57.125  -0.163  33.221  0.00  0.00    -0.200 OA
ATOM      3  O   UNL d   1      56.180   0.568  32.083  0.00  0.00    -0.200 OA
ENDROOT
BRANCH   1   4
ATOM      4  N   UNL d   1      55.986   0.082  33.129  0.00  0.00    -0.213 N 
ATOM      5  C   UNL d   1      55.621  -0.644  33.274  0.00  0.00     0.157 A 
ATOM      6  N   UNL d   1      54.978  -0.506  33.778  0.00  0.00    -0.226 NA
ATOM      7  C   UNL d   1      54.949   0.302  33.942  0.00  0.00     0.101 A 
ATOM      8  C   UNL d   1      55.574   0.668  33.540  0.00  0.00     0.112 A 
ATOM      9  C   UNL d   1      54.396   0.681  34.422  0.00  0.00     0.022 C 
BRANCH   5  10
ATOM     10  C   UNL d   1      55.853  -1.370  32.972  0.00  0.00     0.038 C 
ATOM     11  C   UNL d   1      55.403  -2.042  33.130  0.00  0.00     0.003 C 
ENDBRANCH   5  10
ENDBRANCH   1   4
BRANCH   1  12
ATOM     12  C   UNL d   1      57.317   0.322  32.177  0.00  0.00     0.106 A 
ATOM     13  C   UNL d   1      57.268   0.202  31.362  0.00  0.00     0.037 A 
ATOM     14  C   UNL d   1      57.931   0.322  30.888  0.00  0.00     0.095 A 
ATOM     15  C   UNL d   1      58.644   0.562  31.228  0.00  0.00     0.022 A 
ATOM     16  C   UNL d   1      58.692   0.682  32.042  0.00  0.00     0.003 A 
ATOM     17  C   UNL d   1      59.308   0.682  30.753  0.00  0.00     0.002 C 
ATOM     18  C   UNL d   1      58.029   0.562  32.517  0.00  0.00     0.012 A 
ATOM     19  C   UNL d   1      58.072   0.680  33.324  0.00  0.00     0.001 C 
BRANCH  14  20
ATOM     20  O   UNL d   1      57.881   0.201  30.069  0.00  0.00    -0.328 OA
ATOM     21  C   UNL d   1      58.004  -0.553  29.757  0.00  0.00     0.181 C 
ENDBRANCH  14  20
ENDBRANCH   1  12
TORSDOF 4
ENDMDL
MODEL 2
REMARK VINA RESULT:      -2.2      1.274      2.251
REMARK  4 active torsions:
REMARK  status: ('A' for Active; 'I' for Inactive)
REMARK    1  A    between atoms: N_2  and  S_1 
REMARK    2  A    between atoms: C_4  and  S_1 
REMARK    3  A    between atoms: C_15  and  C_3 
REMARK    4  A    between atoms: O_16  and  C_12 
ROOT
ATOM      1  S   UNL d   1      57.426  -0.108  31.364  0.00  0.00     0.273 S 
ATOM      2  O   UNL d   1      57.398  -0.898  31.128  0.00  0.00    -0.200 OA
ATOM      3  O   UNL d   1      57.454   0.682  31.601  0.00  0.00    -0.200 OA
ENDROOT
BRANCH   1   4
ATOM      4  N   UNL d   1      56.970  -0.291  32.031  0.00  0.00    -0.213 N 
ATOM      5  C   UNL d   1      57.100  -0.011  32.797  0.00  0.00     0.157 A 
ATOM      6  N   UNL d   1      56.514  -0.335  33.286  0.00  0.00    -0.226 NA
ATOM      7  C   UNL d   1      56.026  -0.812  32.821  0.00  0.00     0.101 A 
ATOM      8  C   UNL d   1      56.308  -0.786  32.042  0.00  0.00     0.112 A 
ATOM      9  C   UNL d   1      55.373  -1.240  33.083  0.00  0.00     0.022 C 
BRANCH   5  10
ATOM     10  C   UNL d   1      57.701   0.495  33.030  0.00  0.00     0.038 C 
ATOM     11  C   UNL d   1      57.795   0.678  33.828  0.00  0.00     0.003 C 
ENDBRANCH   5  10
ENDBRANCH   1   4
BRANCH   1  12
ATOM     12  C   UNL d   1      57.880   0.075  30.700  0.00  0.00     0.106 A 
ATOM     13  C   UNL d   1      58.696  -0.056  30.709  0.00  0.00     0.037 A 
ATOM     14  C   UNL d   1      59.149   0.126  30.046  0.00  0.00     0.095 A 
ATOM     15  C   UNL d   1      58.789   0.440  29.372  0.00  0.00     0.022 A 
ATOM     16  C   UNL d   1      57.974   0.571  29.364  0.00  0.00     0.003 A 
ATOM     17  C   UNL d   1      59.243   0.623  28.708  0.00  0.00     0.002 C 
ATOM     18  C   UNL d   1      57.521   0.388  30.027  0.00  0.00     0.012 A 
ATOM     19  C   UNL d   1      56.714   0.516  30.024  0.00  0.00     0.001 C 
BRANCH  14  20
ATOM     20  O   UNL d   1      59.968  -0.006  30.056  0.00  0.00    -0.328 OA
ATOM     21  C   UNL d   1      60.446   0.417  30.579  0.00  0.00     0.181 C 
ENDBRANCH  14  20
ENDBRANCH   1  12
TORSDOF 4
ENDMDL
MODEL 3
REMARK VINA RESULT:      -2.2      1.638      4.017
REMARK  4 active torsions:
REMARK  status: ('A' for Active; 'I' for Inactive)
REMARK    1  A    between atoms: N_2  and  S_1 
REMARK    2  A    between atoms: C_4  and  S_1 
REMARK    3  A    between atoms: C_15  and  C_3 
REMARK    4  A    between atoms: O_16  and  C_12 
ROOT
ATOM      1  S   UNL d   1      57.559   0.018  31.221  0.00  0.00     0.273 S 
ATOM      2  O   UNL d   1      58.054  -0.609  31.427  0.00  0.00    -0.200 OA
ATOM      3  O   UNL d   1      57.064   0.645  31.015  0.00  0.00    -0.200 OA
ENDROOT
BRANCH   1   4
ATOM      4  N   UNL d   1      58.080   0.229  30.613  0.00  0.00    -0.213 N 
ATOM      5  C   UNL d   1      58.881   0.410  30.705  0.00  0.00     0.157 A 
ATOM      6  N   UNL d   1      59.186   0.589  29.954  0.00  0.00    -0.226 NA
ATOM      7  C   UNL d   1      58.574   0.518  29.405  0.00  0.00     0.101 A 
ATOM      8  C   UNL d   1      57.888   0.295  29.813  0.00  0.00     0.112 A 
ATOM      9  C   UNL d   1      58.633   0.646  28.593  0.00  0.00     0.022 C 
BRANCH   5  10
ATOM     10  C   UNL d   1      59.298   0.412  31.410  0.00  0.00     0.038 C 
ATOM     11  C   UNL d   1      60.076   0.681  31.425  0.00  0.00     0.003 C 
ENDBRANCH   5  10
ENDBRANCH   1   4
BRANCH   1  12
ATOM     12  C   UNL d   1      57.040  -0.193  31.826  0.00  0.00     0.106 A 
ATOM     13  C   UNL d   1      56.863   0.348  32.425  0.00  0.00     0.037 A 
ATOM     14  C   UNL d   1      56.344   0.137  33.030  0.00  0.00     0.095 A 
ATOM     15  C   UNL d   1      56.002  -0.614  33.038  0.00  0.00     0.022 A 
ATOM     16  C   UNL d   1      56.179  -1.153  32.439  0.00  0.00     0.003 A 
ATOM     17  C   UNL d   1      55.482  -0.824  33.643  0.00  0.00     0.002 C 
ATOM     18  C   UNL d   1      56.697  -0.943  31.835  0.00  0.00     0.012 A 
ATOM     19  C   UNL d   1      56.876  -1.475  31.240  0.00  0.00     0.001 C 
BRANCH  14  20
ATOM     20  O   UNL d   1      56.167   0.681  33.630  0.00  0.00    -0.328 OA
ATOM     21  C   UNL d   1      56.234   0.457  34.421  0.00  0.00     0.181 C 
ENDBRANCH  14  20
ENDBRANCH   1  12
TORSDOF 4
ENDMDL
