MODEL 1
REMARK VINA RESULT:      -3.8      0.000      0.000
REMARK  3 active torsions:
REMARK  status: ('A' for Active; 'I' for Inactive)
REMARK    1  A    between atoms: N_2  and  C_1 
REMARK    2  A    between atoms: C_3  and  C_1 
REMARK    3  A    between atoms: N_6  and  C_5 
ROOT
ATOM      1  C   UNL d   1      57.575   0.097  31.371  0.00  0.00     0.027 A 
ATOM      2  C   UNL d   1      56.322  -0.338  32.360  0.00  0.00     0.064 A 
ATOM      3  C   UNL d   1      57.365  -0.702  31.454  0.00  0.00     0.004 A 
ATOM      4  C   UNL d   1      57.152   0.682  31.788  0.00  0.00     0.004 A 
ATOM      5  C   UNL d   1      56.741  -0.917  31.948  0.00  0.00     0.018 A 
ATOM      6  C   UNL d   1      56.523   0.461  32.284  0.00  0.00     0.018 A 
ENDROOT
BRANCH   1   7
ATOM      7  C   UNL d   1      58.200   0.314  30.876  0.00  0.00     0.120 C 
ATOM      8  S   UNL d   1      58.868   0.681  31.201  0.00  0.00    -0.059 SA
BRANCH   7   9
ATOM      9  N   UNL d   1      58.157   0.164  30.067  0.00  0.00    -0.292 N 
ATOM     10  C   UNL d   1      58.527  -0.502  29.758  0.00  0.00     0.108 A 
ATOM     11  C   UNL d   1      58.483  -0.652  28.948  0.00  0.00     0.142 A 
ATOM     12  O   UNL d   1      58.072  -0.138  28.456  0.00  0.00    -0.300 OA
ATOM     13  C   UNL d   1      57.701   0.531  28.771  0.00  0.00     0.142 A 
ATOM     14  C   UNL d   1      57.745   0.681  29.582  0.00  0.00     0.108 A 
ENDBRANCH   7   9
ENDBRANCH   1   7
BRANCH   2  15
ATOM     15  N   UNL d   1      55.699  -0.553  32.853  0.00  0.00    -0.301 N 
ATOM     16  C   UNL d   1      55.547  -1.351  33.004  0.00  0.00     0.100 C 
ATOM     17  C   UNL d   1      55.227   0.028  33.195  0.00  0.00     0.100 C 
ENDBRANCH   2  15
TORSDOF 3
ENDMDL
MODEL 2
REMARK VINA RESULT:      -3.7      1.247      1.574
REMARK  3 active torsions:
REMARK  status: ('A' for Active; 'I' for Inactive)
REMARK    1  A    between atoms: N_2  and  C_1 
REMARK    2  A    between atoms: C_3  and  C_1 
REMARK    3  A    between atoms: N_6  and  C_5 
ROOT
ATOM      1  C   UNL d   1      57.752   0.104  30.641  0.00  0.00     0.027 A 
ATOM      2  C   UNL d   1      56.948  -0.243  32.044  0.00  0.00     0.064 A 
ATOM      3  C   UNL d   1      57.410  -0.645  30.754  0.00  0.00     0.004 A 
ATOM      4  C   UNL d   1      57.689   0.682  31.238  0.00  0.00     0.004 A 
ATOM      5  C   UNL d   1      57.010  -0.816  31.454  0.00  0.00     0.018 A 
ATOM      6  C   UNL d   1      57.285   0.506  31.942  0.00  0.00     0.018 A 
ENDROOT
BRANCH   1   7
ATOM      7  C   UNL d   1      58.154   0.277  29.939  0.00  0.00     0.120 C 
ATOM      8  S   UNL d   1      57.760   0.682  29.334  0.00  0.00    -0.059 SA
BRANCH   7   9
ATOM      9  N   UNL d   1      58.939   0.046  29.847  0.00  0.00    -0.292 N 
ATOM     10  C   UNL d   1      59.540   0.536  30.121  0.00  0.00     0.108 A 
ATOM     11  C   UNL d   1      60.327   0.305  30.029  0.00  0.00     0.142 A 
ATOM     12  O   UNL d   1      60.506  -0.411  29.665  0.00  0.00    -0.300 OA
ATOM     13  C   UNL d   1      59.898  -0.900  29.392  0.00  0.00     0.142 A 
ATOM     14  C   UNL d   1      59.111  -0.669  29.484  0.00  0.00     0.108 A 
ENDBRANCH   7   9
ENDBRANCH   1   7
BRANCH   2  15
ATOM     15  N   UNL d   1      56.548  -0.414  32.743  0.00  0.00    -0.301 N 
ATOM     16  C   UNL d   1      56.455   0.170  33.319  0.00  0.00     0.100 C 
ATOM     17  C   UNL d   1      56.242  -1.168  32.867  0.00  0.00     0.100 C 
ENDBRANCH   2  15
TORSDOF 3
ENDMDL
MODEL 3
REMARK VINA RESULT:      -1.7      1.430      1.992
REMARK  3 active torsions:
REMARK  status: ('A' for Active; 'I' for Inactive)
REMARK    1  A    between atoms: N_2  and  C_1 
REMARK    2  A    between atoms: C_3  and  C_1 
REMARK    3  A    between atoms: N_6  and  C_5 
ROOT
ATOM      1  C   UNL d   1      56.539  -0.323  32.314  0.00  0.00     0.027 A 
ATOM      2  C   UNL d   1      55.626   0.251  33.568  0.00  0.00     0.064 A 
ATOM      3  C   UNL d   1      56.635  -0.634  33.079  0.00  0.00     0.004 A 
ATOM      4  C   UNL d   1      55.981   0.280  32.179  0.00  0.00     0.004 A 
ATOM      5  C   UNL d   1      56.179  -0.347  33.702  0.00  0.00     0.018 A 
ATOM      6  C   UNL d   1      55.523   0.567  32.810  0.00  0.00     0.018 A 
ENDROOT
BRANCH   1   7
ATOM      7  C   UNL d   1      56.996  -0.611  31.688  0.00  0.00     0.120 C 
ATOM      8  S   UNL d   1      56.796  -1.333  31.336  0.00  0.00    -0.059 SA
BRANCH   7   9
ATOM      9  N   UNL d   1      57.644  -0.179  31.419  0.00  0.00    -0.292 N 
ATOM     10  C   UNL d   1      58.205   0.087  31.958  0.00  0.00     0.108 A 
ATOM     11  C   UNL d   1      58.854   0.520  31.688  0.00  0.00     0.142 A 
ATOM     12  O   UNL d   1      58.937   0.682  30.886  0.00  0.00    -0.300 OA
ATOM     13  C   UNL d   1      58.369   0.412  30.348  0.00  0.00     0.142 A 
ATOM     14  C   UNL d   1      57.721  -0.021  30.618  0.00  0.00     0.108 A 
ENDBRANCH   7   9
ENDBRANCH   1   7
BRANCH   2  15
ATOM     15  N   UNL d   1      55.171   0.538  34.191  0.00  0.00    -0.301 N 
ATOM     16  C   UNL d   1      54.365   0.681  34.082  0.00  0.00     0.100 C 
ATOM     17  C   UNL d   1      55.520   0.682  34.923  0.00  0.00     0.100 C 
ENDBRANCH   2  15
TORSDOF 3
ENDMDL
