MODEL 1
REMARK VINA RESULT:      48.9      0.000      0.000
REMARK  4 active torsions:
REMARK  status: ('A' for Active; 'I' for Inactive)
REMARK    1  A    between atoms: S_12  and  C_5 
REMARK       I    between atoms: N_7  and  C_9 
REMARK    2  A    between atoms: C_19  and  N_8 
REMARK    3  A    between atoms: C_9  and  C_14 
REMARK    4  A    between atoms: C_14  and  S_12 
ROOT
ATOM      1  C   UNL d   1      45.835 -17.727  39.911  0.00  0.00     0.098 C 
ENDROOT
BRANCH   1   2
ATOM      2  C   UNL d   1      46.196 -18.430  40.148  0.00  0.00     0.272 C 
ATOM      3  N   UNL d   1      46.229 -18.629  40.950  0.00  0.00    -0.269 N 
ATOM      4  C   UNL d   1      45.901 -18.125  41.510  0.00  0.00     0.102 A 
ATOM      5  C   UNL d   1      46.589 -19.328  41.187  0.00  0.00     0.102 A 
ATOM      6  C   UNL d   1      45.933 -18.325  42.311  0.00  0.00     0.100 A 
ATOM      7  N   UNL d   1      46.295 -19.027  42.548  0.00  0.00    -0.301 N 
ATOM      8  C   UNL d   1      46.621 -19.527  41.984  0.00  0.00     0.100 A 
ATOM      9  O   UNL d   1      46.523 -18.929  39.580  0.00  0.00    -0.266 OA
BRANCH   7  10
ATOM     10  C   UNL d   1      46.328 -19.227  43.345  0.00  0.00     0.064 A 
ATOM     11  C   UNL d   1      46.460 -18.648  43.912  0.00  0.00     0.018 A 
ATOM     12  C   UNL d   1      46.493 -18.850  44.712  0.00  0.00     0.002 A 
ATOM     13  C   UNL d   1      46.394 -19.629  44.943  0.00  0.00     0.000 A 
ATOM     14  C   UNL d   1      46.261 -20.212  44.375  0.00  0.00     0.002 A 
ATOM     15  C   UNL d   1      46.228 -20.012  43.578  0.00  0.00     0.018 A 
ENDBRANCH   7  10
ENDBRANCH   1   2
BRANCH   1  16
ATOM     16  S   UNL d   1      45.994 -17.411  39.163  0.00  0.00    -0.060 SA
BRANCH  16  17
ATOM     17  C   UNL d   1      45.393 -17.008  38.751  0.00  0.00     0.137 A 
ATOM     18  C   UNL d   1      45.576 -16.387  38.244  0.00  0.00     0.141 A 
ATOM     19  O   UNL d   1      46.297 -16.043  38.035  0.00  0.00    -0.303 OA
ATOM     20  C   UNL d   1      44.973 -15.991  37.837  0.00  0.00     0.110 A 
ATOM     21  C   UNL d   1      46.140 -15.430  37.495  0.00  0.00     0.102 A 
ATOM     22  C   UNL d   1      46.637 -14.898  37.100  0.00  0.00     0.025 A 
ATOM     23  C   UNL d   1      45.321 -15.404  37.378  0.00  0.00     0.043 A 
ATOM     24  C   UNL d   1      46.307 -14.340  36.586  0.00  0.00     0.002 A 
ATOM     25  C   UNL d   1      45.491 -14.309  36.465  0.00  0.00     0.000 A 
ATOM     26  C   UNL d   1      44.993 -14.842  36.861  0.00  0.00     0.004 A 
ATOM     27  N   UNL d   1      44.190 -16.225  37.944  0.00  0.00    -0.222 NA
ATOM     28  C   UNL d   1      44.005 -16.846  38.452  0.00  0.00     0.200 A 
ATOM     29  N   UNL d   1      44.602 -17.239  38.856  0.00  0.00    -0.215 NA
ENDBRANCH  16  17
ENDBRANCH   1  16
TORSDOF 4
ENDMDL
MODEL 2
REMARK VINA RESULT:      49.6      4.430      5.105
REMARK  4 active torsions:
REMARK  status: ('A' for Active; 'I' for Inactive)
REMARK    1  A    between atoms: S_12  and  C_5 
REMARK       I    between atoms: N_7  and  C_9 
REMARK    2  A    between atoms: C_19  and  N_8 
REMARK    3  A    between atoms: C_9  and  C_14 
REMARK    4  A    between atoms: C_14  and  S_12 
ROOT
ATOM      1  C   UNL d   1      45.291 -13.099  39.262  0.00  0.00     0.098 C 
ENDROOT
BRANCH   1   2
ATOM      2  C   UNL d   1      44.863 -12.598  39.759  0.00  0.00     0.272 C 
ATOM      3  N   UNL d   1      44.990 -12.617  40.576  0.00  0.00    -0.269 N 
ATOM      4  C   UNL d   1      45.543 -13.137  40.891  0.00  0.00     0.102 A 
ATOM      5  C   UNL d   1      44.565 -12.119  41.071  0.00  0.00     0.102 A 
ATOM      6  C   UNL d   1      45.669 -13.157  41.708  0.00  0.00     0.100 A 
ATOM      7  N   UNL d   1      45.242 -12.656  42.204  0.00  0.00    -0.301 N 
ATOM      8  C   UNL d   1      44.690 -12.139  41.883  0.00  0.00     0.100 A 
ATOM      9  O   UNL d   1      44.311 -12.080  39.433  0.00  0.00    -0.266 OA
BRANCH   7  10
ATOM     10  C   UNL d   1      45.366 -12.674  43.017  0.00  0.00     0.064 A 
ATOM     11  C   UNL d   1      45.799 -12.080  43.383  0.00  0.00     0.018 A 
ATOM     12  C   UNL d   1      45.923 -12.100  44.199  0.00  0.00     0.002 A 
ATOM     13  C   UNL d   1      45.616 -12.713  44.646  0.00  0.00     0.000 A 
ATOM     14  C   UNL d   1      45.182 -13.311  44.279  0.00  0.00     0.002 A 
ATOM     15  C   UNL d   1      45.057 -13.293  43.467  0.00  0.00     0.018 A 
ENDBRANCH   7  10
ENDBRANCH   1   2
BRANCH   1  16
ATOM     16  S   UNL d   1      45.173 -13.071  38.443  0.00  0.00    -0.060 SA
BRANCH  16  17
ATOM     17  C   UNL d   1      45.497 -13.667  37.961  0.00  0.00     0.137 A 
ATOM     18  C   UNL d   1      45.019 -14.259  37.648  0.00  0.00     0.141 A 
ATOM     19  O   UNL d   1      44.209 -14.405  37.716  0.00  0.00    -0.303 OA
ATOM     20  C   UNL d   1      45.349 -14.849  37.168  0.00  0.00     0.110 A 
ATOM     21  C   UNL d   1      44.036 -15.089  37.276  0.00  0.00     0.102 A 
ATOM     22  C   UNL d   1      43.327 -15.496  37.140  0.00  0.00     0.025 A 
ATOM     23  C   UNL d   1      44.743 -15.357  36.941  0.00  0.00     0.043 A 
ATOM     24  C   UNL d   1      43.333 -16.174  36.667  0.00  0.00     0.002 A 
ATOM     25  C   UNL d   1      44.035 -16.446  36.330  0.00  0.00     0.000 A 
ATOM     26  C   UNL d   1      44.745 -16.039  36.466  0.00  0.00     0.004 A 
ATOM     27  N   UNL d   1      46.157 -14.837  37.008  0.00  0.00    -0.222 NA
ATOM     28  C   UNL d   1      46.636 -14.245  37.320  0.00  0.00     0.200 A 
ATOM     29  N   UNL d   1      46.311 -13.660  37.796  0.00  0.00    -0.215 NA
ENDBRANCH  16  17
ENDBRANCH   1  16
TORSDOF 4
ENDMDL
