MODEL 1
REMARK VINA RESULT:      -3.4      0.000      0.000
REMARK  4 active torsions:
REMARK  status: ('A' for Active; 'I' for Inactive)
REMARK    1  A    between atoms: C_6  and  C_2 
REMARK    2  A    between atoms: C_7  and  C_5 
REMARK    3  A    between atoms: O_8  and  C_7 
REMARK    4  A    between atoms: C_9  and  O_8 
ROOT
ATOM      1  N   UNL d   1      33.176  18.916 -22.076  0.00  0.00    -0.121 NA
ATOM      2  C   UNL d   1      32.984  19.243 -22.802  0.00  0.00     0.204 A 
ATOM      3  O   UNL d   1      32.927  20.066 -22.701  0.00  0.00    -0.267 OA
ATOM      4  N   UNL d   1      33.241  19.525 -21.523  0.00  0.00    -0.119 NA
ATOM      5  C   UNL d   1      33.086  20.237 -21.910  0.00  0.00     0.230 A 
ENDROOT
BRANCH   5   6
ATOM      6  C   UNL d   1      33.092  20.985 -21.562  0.00  0.00     0.169 C 
BRANCH   6   7
ATOM      7  O   UNL d   1      32.411  21.279 -21.195  0.00  0.00    -0.301 OA
BRANCH   7   8
ATOM      8  C   UNL d   1      32.416  22.044 -20.879  0.00  0.00     0.100 A 
ATOM      9  C   UNL d   1      32.746  22.183 -20.136  0.00  0.00     0.025 A 
ATOM     10  C   UNL d   1      32.748  22.946 -19.827  0.00  0.00     0.002 A 
ATOM     11  C   UNL d   1      32.423  23.570 -20.256  0.00  0.00     0.000 A 
ATOM     12  C   UNL d   1      32.092  23.427 -21.002  0.00  0.00     0.002 A 
ATOM     13  C   UNL d   1      32.085  22.665 -21.321  0.00  0.00     0.025 A 
ENDBRANCH   7   8
ENDBRANCH   6   7
ENDBRANCH   5   6
BRANCH   2  14
ATOM     14  C   UNL d   1      32.866  18.835 -23.509  0.00  0.00     0.043 A 
ATOM     15  C   UNL d   1      32.386  18.162 -23.523  0.00  0.00     0.004 A 
ATOM     16  C   UNL d   1      32.268  17.753 -24.230  0.00  0.00     0.000 A 
ATOM     17  C   UNL d   1      32.630  18.017 -24.923  0.00  0.00     0.000 A 
ATOM     18  C   UNL d   1      33.110  18.691 -24.909  0.00  0.00     0.000 A 
ATOM     19  C   UNL d   1      33.227  19.099 -24.202  0.00  0.00     0.004 A 
ENDBRANCH   2  14
TORSDOF 4
ENDMDL
MODEL 2
REMARK VINA RESULT:      -3.4      0.732      4.728
REMARK  4 active torsions:
REMARK  status: ('A' for Active; 'I' for Inactive)
REMARK    1  A    between atoms: C_6  and  C_2 
REMARK    2  A    between atoms: C_7  and  C_5 
REMARK    3  A    between atoms: O_8  and  C_7 
REMARK    4  A    between atoms: C_9  and  O_8 
ROOT
ATOM      1  N   UNL d   1      33.058  20.677 -20.810  0.00  0.00    -0.121 NA
ATOM      2  C   UNL d   1      32.817  21.177 -21.414  0.00  0.00     0.204 A 
ATOM      3  O   UNL d   1      32.850  20.748 -22.125  0.00  0.00    -0.267 OA
ATOM      4  N   UNL d   1      33.241  19.942 -21.137  0.00  0.00    -0.119 NA
ATOM      5  C   UNL d   1      33.111  19.985 -21.951  0.00  0.00     0.230 A 
ENDROOT
BRANCH   5   6
ATOM      6  C   UNL d   1      33.225  19.372 -22.490  0.00  0.00     0.169 C 
BRANCH   6   7
ATOM      7  O   UNL d   1      32.575  18.991 -22.831  0.00  0.00    -0.301 OA
BRANCH   7   8
ATOM      8  C   UNL d   1      32.700  18.393 -23.392  0.00  0.00     0.100 A 
ATOM      9  C   UNL d   1      32.619  17.601 -23.178  0.00  0.00     0.025 A 
ATOM     10  C   UNL d   1      32.744  17.012 -23.739  0.00  0.00     0.002 A 
ATOM     11  C   UNL d   1      32.951  17.211 -24.511  0.00  0.00     0.000 A 
ATOM     12  C   UNL d   1      33.031  18.007 -24.723  0.00  0.00     0.002 A 
ATOM     13  C   UNL d   1      32.908  18.606 -24.168  0.00  0.00     0.025 A 
ENDBRANCH   7   8
ENDBRANCH   6   7
ENDBRANCH   5   6
BRANCH   2  14
ATOM     14  C   UNL d   1      32.584  21.964 -21.335  0.00  0.00     0.043 A 
ATOM     15  C   UNL d   1      32.236  22.225 -20.631  0.00  0.00     0.004 A 
ATOM     16  C   UNL d   1      32.003  23.012 -20.553  0.00  0.00     0.000 A 
ATOM     17  C   UNL d   1      32.116  23.539 -21.177  0.00  0.00     0.000 A 
ATOM     18  C   UNL d   1      32.464  23.278 -21.881  0.00  0.00     0.000 A 
ATOM     19  C   UNL d   1      32.697  22.491 -21.960  0.00  0.00     0.004 A 
ENDBRANCH   2  14
TORSDOF 4
ENDMDL
MODEL 3
REMARK VINA RESULT:      -3.3      1.089      1.647
REMARK  4 active torsions:
REMARK  status: ('A' for Active; 'I' for Inactive)
REMARK    1  A    between atoms: C_6  and  C_2 
REMARK    2  A    between atoms: C_7  and  C_5 
REMARK    3  A    between atoms: O_8  and  C_7 
REMARK    4  A    between atoms: C_9  and  O_8 
ROOT
ATOM      1  N   UNL d   1      32.979  18.877 -24.078  0.00  0.00    -0.121 NA
ATOM      2  C   UNL d   1      32.604  18.374 -23.551  0.00  0.00     0.204 A 
ATOM      3  O   UNL d   1      32.632  18.728 -22.799  0.00  0.00    -0.267 OA
ATOM      4  N   UNL d   1      33.241  19.541 -23.664  0.00  0.00    -0.119 NA
ATOM      5  C   UNL d   1      33.026  19.449 -22.872  0.00  0.00     0.230 A 
ENDROOT
BRANCH   5   6
ATOM      6  C   UNL d   1      33.181  19.986 -22.266  0.00  0.00     0.169 C 
BRANCH   6   7
ATOM      7  O   UNL d   1      32.562  20.414 -21.920  0.00  0.00    -0.301 OA
BRANCH   7   8
ATOM      8  C   UNL d   1      32.736  21.026 -21.389  0.00  0.00     0.100 A 
ATOM      9  C   UNL d   1      33.064  20.855 -20.653  0.00  0.00     0.025 A 
ATOM     10  C   UNL d   1      33.235  21.468 -20.130  0.00  0.00     0.002 A 
ATOM     11  C   UNL d   1      33.078  22.249 -20.340  0.00  0.00     0.000 A 
ATOM     12  C   UNL d   1      32.748  22.417 -21.081  0.00  0.00     0.002 A 
ATOM     13  C   UNL d   1      32.574  21.810 -21.612  0.00  0.00     0.025 A 
ENDBRANCH   7   8
ENDBRANCH   6   7
ENDBRANCH   5   6
BRANCH   2  14
ATOM     14  C   UNL d   1      32.259  17.646 -23.728  0.00  0.00     0.043 A 
ATOM     15  C   UNL d   1      32.719  16.958 -23.725  0.00  0.00     0.004 A 
ATOM     16  C   UNL d   1      32.374  16.231 -23.902  0.00  0.00     0.000 A 
ATOM     17  C   UNL d   1      31.570  16.189 -24.083  0.00  0.00     0.000 A 
ATOM     18  C   UNL d   1      31.111  16.877 -24.086  0.00  0.00     0.000 A 
ATOM     19  C   UNL d   1      31.456  17.605 -23.909  0.00  0.00     0.004 A 
ENDBRANCH   2  14
TORSDOF 4
ENDMDL
MODEL 4
REMARK VINA RESULT:      -2.2      3.049      4.702
REMARK  4 active torsions:
REMARK  status: ('A' for Active; 'I' for Inactive)
REMARK    1  A    between atoms: C_6  and  C_2 
REMARK    2  A    between atoms: C_7  and  C_5 
REMARK    3  A    between atoms: O_8  and  C_7 
REMARK    4  A    between atoms: C_9  and  O_8 
ROOT
ATOM      1  N   UNL d   1      30.984  15.594 -24.317  0.00  0.00    -0.121 NA
ATOM      2  C   UNL d   1      30.395  16.012 -23.930  0.00  0.00     0.204 A 
ATOM      3  O   UNL d   1      30.751  16.659 -23.550  0.00  0.00    -0.267 OA
ATOM      4  N   UNL d   1      31.704  15.974 -24.183  0.00  0.00    -0.119 NA
ATOM      5  C   UNL d   1      31.561  16.633 -23.708  0.00  0.00     0.230 A 
ENDROOT
BRANCH   5   6
ATOM      6  C   UNL d   1      32.129  17.167 -23.442  0.00  0.00     0.169 C 
BRANCH   6   7
ATOM      7  O   UNL d   1      32.511  17.670 -23.976  0.00  0.00    -0.301 OA
BRANCH   7   8
ATOM      8  C   UNL d   1      32.756  18.422 -23.727  0.00  0.00     0.100 A 
ATOM      9  C   UNL d   1      32.952  18.552 -22.936  0.00  0.00     0.025 A 
ATOM     10  C   UNL d   1      33.194  19.300 -22.695  0.00  0.00     0.002 A 
ATOM     11  C   UNL d   1      33.241  19.918 -23.238  0.00  0.00     0.000 A 
ATOM     12  C   UNL d   1      33.043  19.784 -24.030  0.00  0.00     0.002 A 
ATOM     13  C   UNL d   1      32.799  19.037 -24.283  0.00  0.00     0.025 A 
ENDBRANCH   7   8
ENDBRANCH   6   7
ENDBRANCH   5   6
BRANCH   2  14
ATOM     14  C   UNL d   1      29.591  15.827 -23.916  0.00  0.00     0.043 A 
ATOM     15  C   UNL d   1      29.158  15.809 -24.621  0.00  0.00     0.004 A 
ATOM     16  C   UNL d   1      28.354  15.625 -24.607  0.00  0.00     0.000 A 
ATOM     17  C   UNL d   1      27.983  15.459 -23.890  0.00  0.00     0.000 A 
ATOM     18  C   UNL d   1      28.415  15.477 -23.185  0.00  0.00     0.000 A 
ATOM     19  C   UNL d   1      29.219  15.661 -23.199  0.00  0.00     0.004 A 
ENDBRANCH   2  14
TORSDOF 4
ENDMDL
MODEL 5
REMARK VINA RESULT:      -1.8      2.018      4.576
REMARK  4 active torsions:
REMARK  status: ('A' for Active; 'I' for Inactive)
REMARK    1  A    between atoms: C_6  and  C_2 
REMARK    2  A    between atoms: C_7  and  C_5 
REMARK    3  A    between atoms: O_8  and  C_7 
REMARK    4  A    between atoms: C_9  and  O_8 
ROOT
ATOM      1  N   UNL d   1      33.193  21.491 -22.453  0.00  0.00    -0.121 NA
ATOM      2  C   UNL d   1      33.204  21.569 -23.269  0.00  0.00     0.204 A 
ATOM      3  O   UNL d   1      33.223  20.805 -23.596  0.00  0.00    -0.267 OA
ATOM      4  N   UNL d   1      33.206  20.687 -22.268  0.00  0.00    -0.119 NA
ATOM      5  C   UNL d   1      33.224  20.263 -22.975  0.00  0.00     0.230 A 
ENDROOT
BRANCH   5   6
ATOM      6  C   UNL d   1      33.241  19.441 -23.042  0.00  0.00     0.169 C 
BRANCH   6   7
ATOM      7  O   UNL d   1      32.543  19.021 -23.188  0.00  0.00    -0.301 OA
BRANCH   7   8
ATOM      8  C   UNL d   1      32.575  18.199 -23.290  0.00  0.00     0.100 A 
ATOM      9  C   UNL d   1      33.138  17.753 -22.884  0.00  0.00     0.025 A 
ATOM     10  C   UNL d   1      33.165  16.938 -22.989  0.00  0.00     0.002 A 
ATOM     11  C   UNL d   1      32.633  16.565 -23.497  0.00  0.00     0.000 A 
ATOM     12  C   UNL d   1      32.069  17.016 -23.903  0.00  0.00     0.002 A 
ATOM     13  C   UNL d   1      32.034  17.835 -23.804  0.00  0.00     0.025 A 
ENDBRANCH   7   8
ENDBRANCH   6   7
ENDBRANCH   5   6
BRANCH   2  14
ATOM     14  C   UNL d   1      33.197  22.276 -23.695  0.00  0.00     0.043 A 
ATOM     15  C   UNL d   1      33.241  22.262 -24.521  0.00  0.00     0.004 A 
ATOM     16  C   UNL d   1      33.234  22.969 -24.946  0.00  0.00     0.000 A 
ATOM     17  C   UNL d   1      33.183  23.689 -24.547  0.00  0.00     0.000 A 
ATOM     18  C   UNL d   1      33.139  23.702 -23.721  0.00  0.00     0.000 A 
ATOM     19  C   UNL d   1      33.146  22.996 -23.296  0.00  0.00     0.004 A 
ENDBRANCH   2  14
TORSDOF 4
ENDMDL
MODEL 6
REMARK VINA RESULT:      -1.2      3.352      5.820
REMARK  4 active torsions:
REMARK  status: ('A' for Active; 'I' for Inactive)
REMARK    1  A    between atoms: C_6  and  C_2 
REMARK    2  A    between atoms: C_7  and  C_5 
REMARK    3  A    between atoms: O_8  and  C_7 
REMARK    4  A    between atoms: C_9  and  O_8 
ROOT
ATOM      1  N   UNL d   1      31.745  17.557 -24.898  0.00  0.00    -0.121 NA
ATOM      2  C   UNL d   1      31.708  17.778 -24.109  0.00  0.00     0.204 A 
ATOM      3  O   UNL d   1      31.061  17.385 -23.767  0.00  0.00    -0.267 OA
ATOM      4  N   UNL d   1      31.128  17.032 -25.051  0.00  0.00    -0.119 NA
ATOM      5  C   UNL d   1      30.704  16.925 -24.351  0.00  0.00     0.230 A 
ENDROOT
BRANCH   5   6
ATOM      6  C   UNL d   1      30.042  16.442 -24.259  0.00  0.00     0.169 C 
BRANCH   6   7
ATOM      7  O   UNL d   1      29.440  16.657 -23.733  0.00  0.00    -0.301 OA
BRANCH   7   8
ATOM      8  C   UNL d   1      28.717  16.254 -23.754  0.00  0.00     0.100 A 
ATOM      9  C   UNL d   1      28.484  15.855 -24.438  0.00  0.00     0.025 A 
ATOM     10  C   UNL d   1      27.765  15.456 -24.453  0.00  0.00     0.002 A 
ATOM     11  C   UNL d   1      27.277  15.453 -23.789  0.00  0.00     0.000 A 
ATOM     12  C   UNL d   1      27.513  15.854 -23.104  0.00  0.00     0.002 A 
ATOM     13  C   UNL d   1      28.233  16.258 -23.079  0.00  0.00     0.025 A 
ENDBRANCH   7   8
ENDBRANCH   6   7
ENDBRANCH   5   6
BRANCH   2  14
ATOM     14  C   UNL d   1      32.219  18.295 -23.720  0.00  0.00     0.043 A 
ATOM     15  C   UNL d   1      32.429  18.156 -22.932  0.00  0.00     0.004 A 
ATOM     16  C   UNL d   1      32.940  18.674 -22.543  0.00  0.00     0.000 A 
ATOM     17  C   UNL d   1      33.241  19.331 -22.940  0.00  0.00     0.000 A 
ATOM     18  C   UNL d   1      33.031  19.470 -23.728  0.00  0.00     0.000 A 
ATOM     19  C   UNL d   1      32.520  18.952 -24.117  0.00  0.00     0.004 A 
ENDBRANCH   2  14
TORSDOF 4
ENDMDL
MODEL 7
REMARK VINA RESULT:      -1.1      2.821      5.318
REMARK  4 active torsions:
REMARK  status: ('A' for Active; 'I' for Inactive)
REMARK    1  A    between atoms: C_6  and  C_2 
REMARK    2  A    between atoms: C_7  and  C_5 
REMARK    3  A    between atoms: O_8  and  C_7 
REMARK    4  A    between atoms: C_9  and  O_8 
ROOT
ATOM      1  N   UNL d   1      31.777  22.253 -19.870  0.00  0.00    -0.121 NA
ATOM      2  C   UNL d   1      32.355  22.752 -19.573  0.00  0.00     0.204 A 
ATOM      3  O   UNL d   1      32.846  22.976 -20.206  0.00  0.00    -0.267 OA
ATOM      4  N   UNL d   1      31.902  22.162 -20.681  0.00  0.00    -0.119 NA
ATOM      5  C   UNL d   1      32.564  22.609 -20.889  0.00  0.00     0.230 A 
ENDROOT
BRANCH   5   6
ATOM      6  C   UNL d   1      32.881  22.675 -21.647  0.00  0.00     0.169 C 
BRANCH   6   7
ATOM      7  O   UNL d   1      32.464  23.073 -22.240  0.00  0.00    -0.301 OA
BRANCH   7   8
ATOM      8  C   UNL d   1      32.724  23.022 -23.026  0.00  0.00     0.100 A 
ATOM      9  C   UNL d   1      32.776  23.702 -23.489  0.00  0.00     0.025 A 
ATOM     10  C   UNL d   1      33.034  23.645 -24.269  0.00  0.00     0.002 A 
ATOM     11  C   UNL d   1      33.241  22.913 -24.586  0.00  0.00     0.000 A 
ATOM     12  C   UNL d   1      33.188  22.232 -24.117  0.00  0.00     0.002 A 
ATOM     13  C   UNL d   1      32.929  22.279 -23.334  0.00  0.00     0.025 A 
ENDBRANCH   7   8
ENDBRANCH   6   7
ENDBRANCH   5   6
BRANCH   2  14
ATOM     14  C   UNL d   1      32.440  22.994 -18.789  0.00  0.00     0.043 A 
ATOM     15  C   UNL d   1      31.806  23.351 -18.395  0.00  0.00     0.004 A 
ATOM     16  C   UNL d   1      31.891  23.593 -17.611  0.00  0.00     0.000 A 
ATOM     17  C   UNL d   1      32.608  23.477 -17.220  0.00  0.00     0.000 A 
ATOM     18  C   UNL d   1      33.241  23.119 -17.614  0.00  0.00     0.000 A 
ATOM     19  C   UNL d   1      33.157  22.878 -18.398  0.00  0.00     0.004 A 
ENDBRANCH   2  14
TORSDOF 4
ENDMDL
