MODEL 1
REMARK VINA RESULT:      -3.2      0.000      0.000
REMARK  4 active torsions:
REMARK  status: ('A' for Active; 'I' for Inactive)
REMARK    1  A    between atoms: S_10  and  C_3 
REMARK    2  A    between atoms: C_11  and  C_7 
REMARK    3  A    between atoms: C_13  and  S_10 
REMARK    4  A    between atoms: C_15  and  C_13 
ROOT
ATOM      1  N   UNL d   1      31.897  16.731 -24.380  0.00  0.00    -0.186 N 
ATOM      2  N   UNL d   1      31.116  16.777 -24.139  0.00  0.00    -0.162 NA
ATOM      3  C   UNL d   1      32.537  17.250 -24.284  0.00  0.00     0.217 A 
ATOM      4  C   UNL d   1      32.172  16.074 -24.801  0.00  0.00     0.187 A 
ATOM      5  N   UNL d   1      33.191  16.909 -24.644  0.00  0.00    -0.120 NA
ATOM      6  N   UNL d   1      32.966  16.180 -24.965  0.00  0.00    -0.127 NA
ATOM      7  C   UNL d   1      30.596  16.157 -24.321  0.00  0.00     0.102 A 
ATOM      8  C   UNL d   1      31.647  15.454 -24.982  0.00  0.00     0.042 A 
ATOM      9  C   UNL d   1      30.866  15.497 -24.743  0.00  0.00     0.024 A 
ENDROOT
BRANCH   3  10
ATOM     10  S   UNL d   1      32.539  17.982 -23.899  0.00  0.00    -0.046 SA
BRANCH  10  11
ATOM     11  C   UNL d   1      33.241  18.334 -23.682  0.00  0.00     0.038 C 
BRANCH  11  12
ATOM     12  C   UNL d   1      33.238  18.989 -23.190  0.00  0.00     0.007 A 
ATOM     13  C   UNL d   1      33.236  18.905 -22.366  0.00  0.00     0.003 A 
ATOM     14  C   UNL d   1      33.233  19.576 -21.874  0.00  0.00     0.030 A 
ATOM     15  C   UNL d   1      33.233  20.321 -22.212  0.00  0.00     0.140 A 
ATOM     16  C   UNL d   1      33.235  20.426 -23.028  0.00  0.00     0.030 A 
ATOM     17  F   UNL d   1      33.230  20.986 -21.719  0.00  0.00    -0.204 F 
ATOM     18  C   UNL d   1      33.238  19.756 -23.519  0.00  0.00     0.003 A 
ENDBRANCH  11  12
ENDBRANCH  10  11
ENDBRANCH   3  10
BRANCH   7  19
ATOM     19  C   UNL d   1      29.806  16.198 -24.080  0.00  0.00     0.022 A 
ATOM     20  C   UNL d   1      29.279  16.665 -24.494  0.00  0.00     0.022 A 
ATOM     21  C   UNL d   1      28.490  16.718 -24.268  0.00  0.00     0.099 A 
ATOM     22  N   UNL d   1      28.234  16.274 -23.593  0.00  0.00    -0.242 NA
ATOM     23  C   UNL d   1      28.765  15.807 -23.181  0.00  0.00     0.099 A 
ATOM     24  C   UNL d   1      29.551  15.769 -23.424  0.00  0.00     0.022 A 
ENDBRANCH   7  19
TORSDOF 4
ENDMDL
MODEL 2
REMARK VINA RESULT:      -2.1      1.888      2.889
REMARK  4 active torsions:
REMARK  status: ('A' for Active; 'I' for Inactive)
REMARK    1  A    between atoms: S_10  and  C_3 
REMARK    2  A    between atoms: C_11  and  C_7 
REMARK    3  A    between atoms: C_13  and  S_10 
REMARK    4  A    between atoms: C_15  and  C_13 
ROOT
ATOM      1  N   UNL d   1      32.804  19.063 -23.828  0.00  0.00    -0.186 N 
ATOM      2  N   UNL d   1      32.559  18.360 -23.487  0.00  0.00    -0.162 NA
ATOM      3  C   UNL d   1      32.902  19.825 -23.514  0.00  0.00     0.217 A 
ATOM      4  C   UNL d   1      33.009  19.096 -24.628  0.00  0.00     0.187 A 
ATOM      5  N   UNL d   1      33.163  20.312 -24.120  0.00  0.00    -0.120 NA
ATOM      6  N   UNL d   1      33.230  19.862 -24.811  0.00  0.00    -0.127 NA
ATOM      7  C   UNL d   1      32.516  17.674 -23.953  0.00  0.00     0.102 A 
ATOM      8  C   UNL d   1      32.965  18.407 -25.092  0.00  0.00     0.042 A 
ATOM      9  C   UNL d   1      32.721  17.703 -24.756  0.00  0.00     0.024 A 
ENDROOT
BRANCH   3  10
ATOM     10  S   UNL d   1      32.766  20.070 -22.736  0.00  0.00    -0.046 SA
BRANCH  10  11
ATOM     11  C   UNL d   1      33.229  20.650 -22.398  0.00  0.00     0.038 C 
BRANCH  11  12
ATOM     12  C   UNL d   1      33.026  20.966 -21.671  0.00  0.00     0.007 A 
ATOM     13  C   UNL d   1      33.240  20.588 -20.965  0.00  0.00     0.003 A 
ATOM     14  C   UNL d   1      33.030  20.917 -20.230  0.00  0.00     0.030 A 
ATOM     15  C   UNL d   1      32.609  21.619 -20.210  0.00  0.00     0.140 A 
ATOM     16  C   UNL d   1      32.387  22.010 -20.899  0.00  0.00     0.030 A 
ATOM     17  F   UNL d   1      32.402  21.943 -19.478  0.00  0.00    -0.204 F 
ATOM     18  C   UNL d   1      32.597  21.681 -21.633  0.00  0.00     0.003 A 
ENDBRANCH  11  12
ENDBRANCH  10  11
ENDBRANCH   3  10
BRANCH   7  19
ATOM     19  C   UNL d   1      32.269  16.962 -23.615  0.00  0.00     0.022 A 
ATOM     20  C   UNL d   1      32.822  16.435 -23.327  0.00  0.00     0.022 A 
ATOM     21  C   UNL d   1      32.594  15.721 -22.987  0.00  0.00     0.099 A 
ATOM     22  N   UNL d   1      31.767  15.544 -22.942  0.00  0.00    -0.242 NA
ATOM     23  C   UNL d   1      31.214  16.074 -23.232  0.00  0.00     0.099 A 
ATOM     24  C   UNL d   1      31.465  16.783 -23.568  0.00  0.00     0.022 A 
ENDBRANCH   7  19
TORSDOF 4
ENDMDL
MODEL 3
REMARK VINA RESULT:      -1.5      3.287      5.925
REMARK  4 active torsions:
REMARK  status: ('A' for Active; 'I' for Inactive)
REMARK    1  A    between atoms: S_10  and  C_3 
REMARK    2  A    between atoms: C_11  and  C_7 
REMARK    3  A    between atoms: C_13  and  S_10 
REMARK    4  A    between atoms: C_15  and  C_13 
ROOT
ATOM      1  N   UNL d   1      33.197  21.577 -23.012  0.00  0.00    -0.186 N 
ATOM      2  N   UNL d   1      33.177  21.652 -22.196  0.00  0.00    -0.162 NA
ATOM      3  C   UNL d   1      33.194  20.911 -23.506  0.00  0.00     0.217 A 
ATOM      4  C   UNL d   1      33.226  22.246 -23.497  0.00  0.00     0.187 A 
ATOM      5  N   UNL d   1      33.221  21.176 -24.282  0.00  0.00    -0.120 NA
ATOM      6  N   UNL d   1      33.241  22.003 -24.278  0.00  0.00    -0.127 NA
ATOM      7  C   UNL d   1      33.186  22.409 -21.856  0.00  0.00     0.102 A 
ATOM      8  C   UNL d   1      33.235  23.003 -23.153  0.00  0.00     0.042 A 
ATOM      9  C   UNL d   1      33.215  23.082 -22.339  0.00  0.00     0.024 A 
ENDROOT
BRANCH   3  10
ATOM     10  S   UNL d   1      33.169  20.116 -23.279  0.00  0.00    -0.046 SA
BRANCH  10  11
ATOM     11  C   UNL d   1      33.240  19.524 -23.835  0.00  0.00     0.038 C 
BRANCH  11  12
ATOM     12  C   UNL d   1      32.925  18.783 -23.690  0.00  0.00     0.007 A 
ATOM     13  C   UNL d   1      32.302  18.486 -24.148  0.00  0.00     0.003 A 
ATOM     14  C   UNL d   1      31.987  17.731 -23.993  0.00  0.00     0.030 A 
ATOM     15  C   UNL d   1      32.300  17.283 -23.383  0.00  0.00     0.140 A 
ATOM     16  C   UNL d   1      32.919  17.560 -22.918  0.00  0.00     0.030 A 
ATOM     17  F   UNL d   1      31.985  16.533 -23.233  0.00  0.00    -0.204 F 
ATOM     18  C   UNL d   1      33.233  18.313 -23.072  0.00  0.00     0.003 A 
ENDBRANCH  11  12
ENDBRANCH  10  11
ENDBRANCH   3  10
BRANCH   7  19
ATOM     19  C   UNL d   1      33.166  22.491 -21.034  0.00  0.00     0.022 A 
ATOM     20  C   UNL d   1      33.228  23.232 -20.698  0.00  0.00     0.022 A 
ATOM     21  C   UNL d   1      33.209  23.332 -19.881  0.00  0.00     0.099 A 
ATOM     22  N   UNL d   1      33.125  22.644 -19.394  0.00  0.00    -0.242 NA
ATOM     23  C   UNL d   1      33.063  21.902 -19.734  0.00  0.00     0.099 A 
ATOM     24  C   UNL d   1      33.083  21.825 -20.554  0.00  0.00     0.022 A 
ENDBRANCH   7  19
TORSDOF 4
ENDMDL
MODEL 4
REMARK VINA RESULT:      -1.5      2.890      5.244
REMARK  4 active torsions:
REMARK  status: ('A' for Active; 'I' for Inactive)
REMARK    1  A    between atoms: S_10  and  C_3 
REMARK    2  A    between atoms: C_11  and  C_7 
REMARK    3  A    between atoms: C_13  and  S_10 
REMARK    4  A    between atoms: C_15  and  C_13 
ROOT
ATOM      1  N   UNL d   1      33.238  20.528 -23.818  0.00  0.00    -0.186 N 
ATOM      2  N   UNL d   1      33.236  20.584 -23.001  0.00  0.00    -0.162 NA
ATOM      3  C   UNL d   1      33.239  19.873 -24.327  0.00  0.00     0.217 A 
ATOM      4  C   UNL d   1      33.238  21.207 -24.289  0.00  0.00     0.187 A 
ATOM      5  N   UNL d   1      33.240  20.156 -25.097  0.00  0.00    -0.120 NA
ATOM      6  N   UNL d   1      33.240  20.982 -25.075  0.00  0.00    -0.127 NA
ATOM      7  C   UNL d   1      33.235  21.334 -22.644  0.00  0.00     0.102 A 
ATOM      8  C   UNL d   1      33.237  21.957 -23.928  0.00  0.00     0.042 A 
ATOM      9  C   UNL d   1      33.236  22.017 -23.112  0.00  0.00     0.024 A 
ENDROOT
BRANCH   3  10
ATOM     10  S   UNL d   1      33.239  19.072 -24.118  0.00  0.00    -0.046 SA
BRANCH  10  11
ATOM     11  C   UNL d   1      32.709  18.555 -24.459  0.00  0.00     0.038 C 
BRANCH  11  12
ATOM     12  C   UNL d   1      32.622  17.798 -24.160  0.00  0.00     0.007 A 
ATOM     13  C   UNL d   1      31.936  17.575 -23.752  0.00  0.00     0.003 A 
ATOM     14  C   UNL d   1      31.856  16.803 -23.452  0.00  0.00     0.030 A 
ATOM     15  C   UNL d   1      32.463  16.265 -23.563  0.00  0.00     0.140 A 
ATOM     16  C   UNL d   1      33.151  16.467 -23.965  0.00  0.00     0.030 A 
ATOM     17  F   UNL d   1      32.380  15.499 -23.263  0.00  0.00    -0.204 F 
ATOM     18  C   UNL d   1      33.231  17.237 -24.265  0.00  0.00     0.003 A 
ENDBRANCH  11  12
ENDBRANCH  10  11
ENDBRANCH   3  10
BRANCH   7  19
ATOM     19  C   UNL d   1      33.233  21.397 -21.820  0.00  0.00     0.022 A 
ATOM     20  C   UNL d   1      33.224  22.134 -21.469  0.00  0.00     0.022 A 
ATOM     21  C   UNL d   1      33.222  22.215 -20.650  0.00  0.00     0.099 A 
ATOM     22  N   UNL d   1      33.230  21.513 -20.177  0.00  0.00    -0.242 NA
ATOM     23  C   UNL d   1      33.239  20.775 -20.532  0.00  0.00     0.099 A 
ATOM     24  C   UNL d   1      33.241  20.717 -21.353  0.00  0.00     0.022 A 
ENDBRANCH   7  19
TORSDOF 4
ENDMDL
