MODEL 1
REMARK VINA RESULT:      54.5      0.000      0.000
REMARK  3 active torsions:
REMARK  status: ('A' for Active; 'I' for Inactive)
REMARK    1  A    between atoms: C_8  and  S_1 
REMARK    2  A    between atoms: N_10  and  S_1 
REMARK    3  A    between atoms: C_17  and  N_10 
ROOT
ATOM      1  C   UNL d   1     -51.407  25.694  33.441  0.00  0.00     0.043 A 
ATOM      2  C   UNL d   1     -52.216  25.542  33.421  0.00  0.00     0.196 A 
ATOM      3  C   UNL d   1     -51.140  24.292  33.385  0.00  0.00     0.196 A 
ATOM      4  C   UNL d   1     -50.869  25.069  33.423  0.00  0.00     0.042 A 
ATOM      5  C   UNL d   1     -52.490  24.764  33.383  0.00  0.00     0.042 A 
ATOM      6  C   UNL d   1     -51.952  24.139  33.365  0.00  0.00     0.042 A 
ATOM      7  C   UNL d   1     -50.326  26.622  33.498  0.00  0.00     0.105 A 
ATOM      8  C   UNL d   1     -51.135  26.470  33.478  0.00  0.00     0.016 A 
ATOM      9  C   UNL d   1     -50.060  25.219  33.443  0.00  0.00     0.004 A 
ATOM     10  O   UNL d   1     -52.753  26.168  33.439  0.00  0.00    -0.287 OA
ATOM     11  O   UNL d   1     -50.602  23.666  33.367  0.00  0.00    -0.287 OA
ATOM     12  C   UNL d   1     -49.788  25.996  33.480  0.00  0.00     0.013 A 
ATOM     13  C   UNL d   1     -53.299  24.612  33.363  0.00  0.00     0.003 A 
ATOM     14  C   UNL d   1     -52.223  23.362  33.327  0.00  0.00     0.003 A 
ATOM     15  C   UNL d   1     -53.039  23.205  33.306  0.00  0.00     0.000 A 
ATOM     16  C   UNL d   1     -53.577  23.831  33.324  0.00  0.00     0.000 A 
ENDROOT
BRANCH   7  17
ATOM     17  S   UNL d   1     -50.051  27.413  33.537  0.00  0.00     0.285 S 
ATOM     18  O   UNL d   1     -49.295  27.141  33.762  0.00  0.00    -0.198 OA
ATOM     19  O   UNL d   1     -50.807  27.678  33.312  0.00  0.00    -0.198 OA
BRANCH  17  20
ATOM     20  N   UNL d   1     -49.777  28.197  33.576  0.00  0.00    -0.158 NA
BRANCH  20  21
ATOM     21  C   UNL d   1     -49.196  28.406  34.126  0.00  0.00     0.094 A 
ATOM     22  C   UNL d   1     -49.043  27.907  34.769  0.00  0.00     0.020 A 
ATOM     23  C   UNL d   1     -48.460  28.112  35.326  0.00  0.00     0.002 A 
ATOM     24  C   UNL d   1     -48.031  28.816  35.237  0.00  0.00     0.000 A 
ATOM     25  C   UNL d   1     -48.190  29.317  34.584  0.00  0.00     0.002 A 
ATOM     26  C   UNL d   1     -48.769  29.107  34.037  0.00  0.00     0.020 A 
ENDBRANCH  20  21
ENDBRANCH  17  20
ENDBRANCH   7  17
TORSDOF 3
ENDMDL
