MODEL 1
REMARK VINA RESULT:      56.4      0.000      0.000
REMARK  3 active torsions:
REMARK  status: ('A' for Active; 'I' for Inactive)
REMARK    1  A    between atoms: N_2  and  S_1 
REMARK    2  A    between atoms: C_3  and  S_1 
REMARK    3  A    between atoms: C_10  and  C_9 
ROOT
ATOM      1  C   UNL d   1     -51.533  26.885  33.570  0.00  0.00     0.104 A 
ATOM      2  C   UNL d   1     -52.633  25.651  33.502  0.00  0.00     0.000 A 
ATOM      3  C   UNL d   1     -51.278  26.103  33.600  0.00  0.00     0.013 A 
ATOM      4  C   UNL d   1     -52.340  27.055  33.505  0.00  0.00     0.013 A 
ATOM      5  C   UNL d   1     -52.891  26.436  33.471  0.00  0.00     0.001 A 
ATOM      6  C   UNL d   1     -51.829  25.485  33.566  0.00  0.00     0.001 A 
ENDROOT
BRANCH   1   7
ATOM      7  S   UNL d   1     -50.979  27.494  33.604  0.00  0.00     0.271 S 
ATOM      8  O   UNL d   1     -51.577  28.045  33.678  0.00  0.00    -0.200 OA
ATOM      9  O   UNL d   1     -50.421  28.096  33.637  0.00  0.00    -0.200 OA
BRANCH   7  10
ATOM     10  N   UNL d   1     -50.368  26.945  33.529  0.00  0.00    -0.226 N 
ATOM     11  C   UNL d   1     -50.547  26.134  33.562  0.00  0.00     0.111 A 
ATOM     12  C   UNL d   1     -49.937  25.583  33.488  0.00  0.00     0.100 A 
ATOM     13  N   UNL d   1     -49.165  25.843  33.383  0.00  0.00    -0.299 N 
ATOM     14  C   UNL d   1     -48.986  26.642  33.350  0.00  0.00     0.100 A 
ATOM     15  C   UNL d   1     -48.554  25.281  33.308  0.00  0.00     0.100 C 
ATOM     16  C   UNL d   1     -49.593  27.195  33.424  0.00  0.00     0.111 A 
ENDBRANCH   7  10
ENDBRANCH   1   7
BRANCH   2  17
ATOM     17  C   UNL d   1     -53.173  25.033  33.468  0.00  0.00     0.000 A 
ATOM     18  C   UNL d   1     -52.925  24.254  33.560  0.00  0.00     0.001 A 
ATOM     19  C   UNL d   1     -53.473  23.639  33.526  0.00  0.00     0.011 A 
ATOM     20  C   UNL d   1     -54.270  23.803  33.399  0.00  0.00     0.058 A 
ATOM     21  C   UNL d   1     -54.519  24.594  33.307  0.00  0.00     0.011 A 
ATOM     22 CL   UNL d   1     -54.812  23.194  33.365  0.00  0.00    -0.082 Cl
ATOM     23  C   UNL d   1     -53.970  25.198  33.342  0.00  0.00     0.001 A 
ENDBRANCH   2  17
TORSDOF 3
ENDMDL
