MODEL 1
REMARK VINA RESULT:      14.1      0.000      0.000
REMARK  7 active torsions:
REMARK  status: ('A' for Active; 'I' for Inactive)
REMARK    1  A    between atoms: C_7  and  C_1 
REMARK    2  A    between atoms: C_10  and  C_2 
REMARK    3  A    between atoms: S_12  and  C_5 
REMARK    4  A    between atoms: C_11  and  C_6 
REMARK    5  A    between atoms: O_15  and  C_7 
REMARK    6  A    between atoms: C_21  and  S_12 
REMARK    7  A    between atoms: C_22  and  O_15 
ROOT
ATOM      1  C   UNL d   1      59.398  -9.330  31.187  0.00  0.00     0.082 A 
ATOM      2  C   UNL d   1      58.781  -9.442  31.752  0.00  0.00     0.087 A 
ATOM      3  C   UNL d   1      58.489  -9.534  30.128  0.00  0.00     0.092 A 
ATOM      4  N   UNL d   1      57.999  -9.605  31.471  0.00  0.00    -0.238 NA
ATOM      5  C   UNL d   1      57.872  -9.647  30.664  0.00  0.00     0.120 A 
ATOM      6  C   UNL d   1      59.246  -9.376  30.386  0.00  0.00     0.020 A 
ATOM      7  C   UNL d   1      58.338  -9.581  29.298  0.00  0.00     0.103 C 
ATOM      8  N   UNL d   1      58.189  -9.628  28.465  0.00  0.00    -0.191 NA
ENDROOT
BRANCH   6   9
ATOM      9  C   UNL d   1      59.863  -9.264  29.850  0.00  0.00     0.020 A 
ATOM     10  C   UNL d   1      60.512  -9.772  29.865  0.00  0.00     0.099 A 
ATOM     11  N   UNL d   1      61.128  -9.659  29.329  0.00  0.00    -0.242 NA
ATOM     12  C   UNL d   1      61.096  -9.038  28.777  0.00  0.00     0.099 A 
ATOM     13  C   UNL d   1      60.440  -8.537  28.774  0.00  0.00     0.021 A 
ATOM     14  C   UNL d   1      59.823  -8.650  29.310  0.00  0.00     0.003 A 
ENDBRANCH   6   9
BRANCH   5  15
ATOM     15  S   UNL d   1      57.079  -9.812  30.393  0.00  0.00    -0.067 SA
BRANCH  15  16
ATOM     16  C   UNL d   1      56.466  -9.255  30.512  0.00  0.00     0.037 C 
ATOM     17  C   UNL d   1      55.743  -9.355  30.150  0.00  0.00     0.007 C 
ENDBRANCH  15  16
ENDBRANCH   5  15
BRANCH   1  18
ATOM     18  C   UNL d   1      60.180  -9.167  31.468  0.00  0.00     0.302 C 
ATOM     19  O   UNL d   1      60.684  -9.811  31.591  0.00  0.00    -0.259 OA
BRANCH  18  20
ATOM     20  O   UNL d   1      60.408  -8.410  31.605  0.00  0.00    -0.271 OA
BRANCH  20  21
ATOM     21  C   UNL d   1      61.113  -8.247  32.012  0.00  0.00     0.126 C 
ATOM     22  C   UNL d   1      61.123  -7.710  32.638  0.00  0.00     0.029 C 
ENDBRANCH  20  21
ENDBRANCH  18  20
ENDBRANCH   1  18
BRANCH   2  23
ATOM     23  C   UNL d   1      58.929  -9.396  32.555  0.00  0.00     0.018 A 
ATOM     24  C   UNL d   1      59.588  -9.743  32.868  0.00  0.00     0.002 A 
ATOM     25  C   UNL d   1      59.743  -9.699  33.680  0.00  0.00     0.000 A 
ATOM     26  C   UNL d   1      59.222  -9.298  34.179  0.00  0.00     0.000 A 
ATOM     27  C   UNL d   1      58.534  -8.936  33.848  0.00  0.00     0.000 A 
ATOM     28  C   UNL d   1      58.402  -8.992  33.045  0.00  0.00     0.002 A 
ENDBRANCH   2  23
TORSDOF 7
ENDMDL
