MODEL 1
REMARK VINA RESULT:      -7.6      0.000      0.000
REMARK  8 active torsions:
REMARK  status: ('A' for Active; 'I' for Inactive)
REMARK    1  A    between atoms: N_6  and  C_1 
REMARK    2  A    between atoms: N_7  and  C_2 
REMARK       I    between atoms: C_8  and  N_6 
REMARK       I    between atoms: C_9  and  N_7 
REMARK    3  A    between atoms: C_14  and  C_8 
REMARK    4  A    between atoms: C_15  and  C_9 
REMARK    5  A    between atoms: O_12  and  C_14 
REMARK    6  A    between atoms: C_16  and  O_12 
REMARK    7  A    between atoms: O_13  and  C_15 
REMARK    8  A    between atoms: C_17  and  O_13 
ROOT
ATOM      1  C   UNL d   1      54.242  33.430  54.773  0.00  0.00     0.232 A 
ATOM      2  C   UNL d   1      53.881  34.143  54.979  0.00  0.00     0.232 A 
ATOM      3  N   UNL d   1      53.925  32.848  55.280  0.00  0.00    -0.081 NA
ATOM      4  N   UNL d   1      53.363  34.008  55.588  0.00  0.00    -0.081 NA
ATOM      5  O   UNL d   1      53.378  33.230  55.780  0.00  0.00    -0.103 OA
ENDROOT
BRANCH   1   6
ATOM      6  N   UNL d   1      54.799  33.413  54.163  0.00  0.00    -0.182 NA
ATOM      7  C   UNL d   1      54.822  32.763  53.646  0.00  0.00     0.306 C 
ATOM      8  O   UNL d   1      55.373  32.729  53.031  0.00  0.00    -0.263 OA
BRANCH   7   9
ATOM      9  C   UNL d   1      54.282  32.136  53.750  0.00  0.00     0.185 C 
BRANCH   9  10
ATOM     10  O   UNL d   1      54.235  31.536  53.180  0.00  0.00    -0.300 OA
BRANCH  10  11
ATOM     11  C   UNL d   1      53.677  30.934  53.255  0.00  0.00     0.100 A 
ATOM     12  C   UNL d   1      52.933  31.032  52.903  0.00  0.00     0.025 A 
ATOM     13  C   UNL d   1      52.372  30.433  52.976  0.00  0.00     0.002 A 
ATOM     14  C   UNL d   1      52.542  29.746  53.389  0.00  0.00     0.000 A 
ATOM     15  C   UNL d   1      53.289  29.646  53.743  0.00  0.00     0.002 A 
ATOM     16  C   UNL d   1      53.860  30.249  53.673  0.00  0.00     0.025 A 
ENDBRANCH  10  11
ENDBRANCH   9  10
ENDBRANCH   7   9
ENDBRANCH   1   6
BRANCH   2  17
ATOM     17  N   UNL d   1      54.034  34.887  54.610  0.00  0.00    -0.182 NA
ATOM     18  C   UNL d   1      53.451  35.264  54.161  0.00  0.00     0.306 C 
ATOM     19  O   UNL d   1      53.612  35.982  53.810  0.00  0.00    -0.263 OA
BRANCH  18  20
ATOM     20  C   UNL d   1      52.698  34.900  54.071  0.00  0.00     0.185 C 
BRANCH  20  21
ATOM     21  O   UNL d   1      52.126  35.232  53.586  0.00  0.00    -0.300 OA
BRANCH  21  22
ATOM     22  C   UNL d   1      51.606  34.738  53.176  0.00  0.00     0.100 A 
ATOM     23  C   UNL d   1      51.751  34.491  52.407  0.00  0.00     0.025 A 
ATOM     24  C   UNL d   1      51.259  34.003  51.972  0.00  0.00     0.002 A 
ATOM     25  C   UNL d   1      50.561  33.751  52.367  0.00  0.00     0.000 A 
ATOM     26  C   UNL d   1      50.405  33.991  53.138  0.00  0.00     0.002 A 
ATOM     27  C   UNL d   1      50.918  34.484  53.552  0.00  0.00     0.025 A 
ENDBRANCH  21  22
ENDBRANCH  20  21
ENDBRANCH  18  20
ENDBRANCH   2  17
TORSDOF 8
ENDMDL
MODEL 2
REMARK VINA RESULT:      -7.4      2.464      3.667
REMARK  8 active torsions:
REMARK  status: ('A' for Active; 'I' for Inactive)
REMARK    1  A    between atoms: N_6  and  C_1 
REMARK    2  A    between atoms: N_7  and  C_2 
REMARK       I    between atoms: C_8  and  N_6 
REMARK       I    between atoms: C_9  and  N_7 
REMARK    3  A    between atoms: C_14  and  C_8 
REMARK    4  A    between atoms: C_15  and  C_9 
REMARK    5  A    between atoms: O_12  and  C_14 
REMARK    6  A    between atoms: C_16  and  O_12 
REMARK    7  A    between atoms: O_13  and  C_15 
REMARK    8  A    between atoms: C_17  and  O_13 
ROOT
ATOM      1  C   UNL d   1      51.549  33.768  53.004  0.00  0.00     0.232 A 
ATOM      2  C   UNL d   1      51.104  34.298  52.555  0.00  0.00     0.232 A 
ATOM      3  N   UNL d   1      51.773  34.173  53.698  0.00  0.00    -0.081 NA
ATOM      4  N   UNL d   1      51.055  35.002  52.955  0.00  0.00    -0.081 NA
ATOM      5  O   UNL d   1      51.455  34.942  53.648  0.00  0.00    -0.103 OA
ENDROOT
BRANCH   1   6
ATOM      6  N   UNL d   1      51.685  33.004  52.721  0.00  0.00    -0.182 NA
ATOM      7  C   UNL d   1      52.363  32.590  52.963  0.00  0.00     0.306 C 
ATOM      8  O   UNL d   1      52.514  31.825  52.690  0.00  0.00    -0.263 OA
BRANCH   7   9
ATOM      9  C   UNL d   1      52.899  32.952  53.490  0.00  0.00     0.185 C 
BRANCH   9  10
ATOM     10  O   UNL d   1      53.552  32.525  53.769  0.00  0.00    -0.300 OA
BRANCH  10  11
ATOM     11  C   UNL d   1      54.112  32.890  54.252  0.00  0.00     0.100 A 
ATOM     12  C   UNL d   1      54.002  32.875  55.073  0.00  0.00     0.025 A 
ATOM     13  C   UNL d   1      54.560  33.239  55.559  0.00  0.00     0.002 A 
ATOM     14  C   UNL d   1      55.216  33.612  55.240  0.00  0.00     0.000 A 
ATOM     15  C   UNL d   1      55.327  33.627  54.416  0.00  0.00     0.002 A 
ATOM     16  C   UNL d   1      54.767  33.261  53.919  0.00  0.00     0.025 A 
ENDBRANCH  10  11
ENDBRANCH   9  10
ENDBRANCH   7   9
ENDBRANCH   1   6
BRANCH   2  17
ATOM     17  N   UNL d   1      50.760  34.127  51.804  0.00  0.00    -0.182 NA
ATOM     18  C   UNL d   1      49.987  34.363  51.629  0.00  0.00     0.306 C 
ATOM     19  O   UNL d   1      49.667  34.191  50.899  0.00  0.00    -0.263 OA
BRANCH  18  20
ATOM     20  C   UNL d   1      49.540  34.779  52.208  0.00  0.00     0.185 C 
BRANCH  20  21
ATOM     21  O   UNL d   1      48.725  34.849  52.140  0.00  0.00    -0.300 OA
BRANCH  21  22
ATOM     22  C   UNL d   1      48.339  35.467  52.529  0.00  0.00     0.100 A 
ATOM     23  C   UNL d   1      48.419  35.594  53.336  0.00  0.00     0.025 A 
ATOM     24  C   UNL d   1      48.051  36.195  53.753  0.00  0.00     0.002 A 
ATOM     25  C   UNL d   1      47.562  36.704  53.297  0.00  0.00     0.000 A 
ATOM     26  C   UNL d   1      47.474  36.586  52.488  0.00  0.00     0.002 A 
ATOM     27  C   UNL d   1      47.856  35.973  52.094  0.00  0.00     0.025 A 
ENDBRANCH  21  22
ENDBRANCH  20  21
ENDBRANCH  18  20
ENDBRANCH   2  17
TORSDOF 8
ENDMDL
MODEL 3
REMARK VINA RESULT:      -7.3      2.442      5.326
REMARK  8 active torsions:
REMARK  status: ('A' for Active; 'I' for Inactive)
REMARK    1  A    between atoms: N_6  and  C_1 
REMARK    2  A    between atoms: N_7  and  C_2 
REMARK       I    between atoms: C_8  and  N_6 
REMARK       I    between atoms: C_9  and  N_7 
REMARK    3  A    between atoms: C_14  and  C_8 
REMARK    4  A    between atoms: C_15  and  C_9 
REMARK    5  A    between atoms: O_12  and  C_14 
REMARK    6  A    between atoms: C_16  and  O_12 
REMARK    7  A    between atoms: O_13  and  C_15 
REMARK    8  A    between atoms: C_17  and  O_13 
ROOT
ATOM      1  C   UNL d   1      51.127  34.294  52.557  0.00  0.00     0.232 A 
ATOM      2  C   UNL d   1      51.575  33.727  52.956  0.00  0.00     0.232 A 
ATOM      3  N   UNL d   1      51.145  34.984  53.024  0.00  0.00    -0.081 NA
ATOM      4  N   UNL d   1      51.858  34.054  53.642  0.00  0.00    -0.081 NA
ATOM      5  O   UNL d   1      51.606  34.813  53.697  0.00  0.00    -0.103 OA
ENDROOT
BRANCH   1   6
ATOM      6  N   UNL d   1      50.773  34.103  51.835  0.00  0.00    -0.182 NA
ATOM      7  C   UNL d   1      50.002  34.367  51.673  0.00  0.00     0.306 C 
ATOM      8  O   UNL d   1      49.632  34.186  50.957  0.00  0.00    -0.263 OA
BRANCH   7   9
ATOM      9  C   UNL d   1      49.596  34.822  52.243  0.00  0.00     0.185 C 
BRANCH   9  10
ATOM     10  O   UNL d   1      48.767  34.842  52.236  0.00  0.00    -0.300 OA
BRANCH  10  11
ATOM     11  C   UNL d   1      48.363  35.461  52.600  0.00  0.00     0.100 A 
ATOM     12  C   UNL d   1      47.904  35.969  52.133  0.00  0.00     0.025 A 
ATOM     13  C   UNL d   1      47.499  36.590  52.494  0.00  0.00     0.002 A 
ATOM     14  C   UNL d   1      47.546  36.709  53.304  0.00  0.00     0.000 A 
ATOM     15  C   UNL d   1      48.007  36.199  53.773  0.00  0.00     0.002 A 
ATOM     16  C   UNL d   1      48.419  35.570  53.414  0.00  0.00     0.025 A 
ENDBRANCH  10  11
ENDBRANCH   9  10
ENDBRANCH   7   9
ENDBRANCH   1   6
BRANCH   2  17
ATOM     17  N   UNL d   1      51.710  32.939  52.686  0.00  0.00    -0.182 NA
ATOM     18  C   UNL d   1      52.391  32.526  52.910  0.00  0.00     0.306 C 
ATOM     19  O   UNL d   1      52.509  31.765  52.642  0.00  0.00    -0.263 OA
BRANCH  18  20
ATOM     20  C   UNL d   1      52.953  32.898  53.414  0.00  0.00     0.185 C 
BRANCH  20  21
ATOM     21  O   UNL d   1      53.646  32.514  53.626  0.00  0.00    -0.300 OA
BRANCH  21  22
ATOM     22  C   UNL d   1      54.158  32.872  54.167  0.00  0.00     0.100 A 
ATOM     23  C   UNL d   1      54.027  32.848  54.977  0.00  0.00     0.025 A 
ATOM     24  C   UNL d   1      54.513  33.191  55.539  0.00  0.00     0.002 A 
ATOM     25  C   UNL d   1      55.187  33.591  55.236  0.00  0.00     0.000 A 
ATOM     26  C   UNL d   1      55.329  33.622  54.427  0.00  0.00     0.002 A 
ATOM     27  C   UNL d   1      54.823  33.268  53.883  0.00  0.00     0.025 A 
ENDBRANCH  21  22
ENDBRANCH  20  21
ENDBRANCH  18  20
ENDBRANCH   2  17
TORSDOF 8
ENDMDL
MODEL 4
REMARK VINA RESULT:      -7.1      0.068      3.637
REMARK  8 active torsions:
REMARK  status: ('A' for Active; 'I' for Inactive)
REMARK    1  A    between atoms: N_6  and  C_1 
REMARK    2  A    between atoms: N_7  and  C_2 
REMARK       I    between atoms: C_8  and  N_6 
REMARK       I    between atoms: C_9  and  N_7 
REMARK    3  A    between atoms: C_14  and  C_8 
REMARK    4  A    between atoms: C_15  and  C_9 
REMARK    5  A    between atoms: O_12  and  C_14 
REMARK    6  A    between atoms: C_16  and  O_12 
REMARK    7  A    between atoms: O_13  and  C_15 
REMARK    8  A    between atoms: C_17  and  O_13 
ROOT
ATOM      1  C   UNL d   1      53.837  34.160  54.977  0.00  0.00     0.232 A 
ATOM      2  C   UNL d   1      54.247  33.472  54.780  0.00  0.00     0.232 A 
ATOM      3  N   UNL d   1      53.289  33.951  55.569  0.00  0.00    -0.081 NA
ATOM      4  N   UNL d   1      53.963  32.860  55.232  0.00  0.00    -0.081 NA
ATOM      5  O   UNL d   1      53.383  33.135  55.713  0.00  0.00    -0.103 OA
ENDROOT
BRANCH   1   6
ATOM      6  N   UNL d   1      54.020  34.870  54.595  0.00  0.00    -0.182 NA
ATOM      7  C   UNL d   1      53.442  35.250  54.135  0.00  0.00     0.306 C 
ATOM      8  O   UNL d   1      53.608  35.960  53.746  0.00  0.00    -0.263 OA
BRANCH   7   9
ATOM      9  C   UNL d   1      52.684  34.909  54.065  0.00  0.00     0.185 C 
BRANCH   9  10
ATOM     10  O   UNL d   1      52.137  35.230  53.530  0.00  0.00    -0.300 OA
BRANCH  10  11
ATOM     11  C   UNL d   1      51.593  34.743  53.150  0.00  0.00     0.100 A 
ATOM     12  C   UNL d   1      51.745  34.502  52.372  0.00  0.00     0.025 A 
ATOM     13  C   UNL d   1      51.202  34.014  51.989  0.00  0.00     0.002 A 
ATOM     14  C   UNL d   1      50.518  33.767  52.367  0.00  0.00     0.000 A 
ATOM     15  C   UNL d   1      50.365  34.008  53.149  0.00  0.00     0.002 A 
ATOM     16  C   UNL d   1      50.910  34.501  53.542  0.00  0.00     0.025 A 
ENDBRANCH  10  11
ENDBRANCH   9  10
ENDBRANCH   7   9
ENDBRANCH   1   6
BRANCH   2  17
ATOM     17  N   UNL d   1      54.859  33.420  54.201  0.00  0.00    -0.182 NA
ATOM     18  C   UNL d   1      54.893  32.783  53.676  0.00  0.00     0.306 C 
ATOM     19  O   UNL d   1      55.490  32.747  53.122  0.00  0.00    -0.263 OA
BRANCH  18  20
ATOM     20  C   UNL d   1      54.308  32.180  53.719  0.00  0.00     0.185 C 
BRANCH  20  21
ATOM     21  O   UNL d   1      54.269  31.591  53.150  0.00  0.00    -0.300 OA
BRANCH  21  22
ATOM     22  C   UNL d   1      53.701  30.995  53.222  0.00  0.00     0.100 A 
ATOM     23  C   UNL d   1      53.847  30.298  53.631  0.00  0.00     0.025 A 
ATOM     24  C   UNL d   1      53.308  29.689  53.722  0.00  0.00     0.002 A 
ATOM     25  C   UNL d   1      52.560  29.812  53.361  0.00  0.00     0.000 A 
ATOM     26  C   UNL d   1      52.402  30.506  52.949  0.00  0.00     0.002 A 
ATOM     27  C   UNL d   1      52.963  31.103  52.873  0.00  0.00     0.025 A 
ENDBRANCH  21  22
ENDBRANCH  20  21
ENDBRANCH  18  20
ENDBRANCH   2  17
TORSDOF 8
ENDMDL
MODEL 5
REMARK VINA RESULT:      -6.5      4.726      6.318
REMARK  8 active torsions:
REMARK  status: ('A' for Active; 'I' for Inactive)
REMARK    1  A    between atoms: N_6  and  C_1 
REMARK    2  A    between atoms: N_7  and  C_2 
REMARK       I    between atoms: C_8  and  N_6 
REMARK       I    between atoms: C_9  and  N_7 
REMARK    3  A    between atoms: C_14  and  C_8 
REMARK    4  A    between atoms: C_15  and  C_9 
REMARK    5  A    between atoms: O_12  and  C_14 
REMARK    6  A    between atoms: C_16  and  O_12 
REMARK    7  A    between atoms: O_13  and  C_15 
REMARK    8  A    between atoms: C_17  and  O_13 
ROOT
ATOM      1  C   UNL d   1      48.237  35.658  52.483  0.00  0.00     0.232 A 
ATOM      2  C   UNL d   1      47.687  36.262  52.601  0.00  0.00     0.232 A 
ATOM      3  N   UNL d   1      48.711  35.630  53.169  0.00  0.00    -0.081 NA
ATOM      4  N   UNL d   1      47.815  36.594  53.330  0.00  0.00    -0.081 NA
ATOM      5  O   UNL d   1      48.431  36.223  53.685  0.00  0.00    -0.103 OA
ENDROOT
BRANCH   1   6
ATOM      6  N   UNL d   1      48.227  35.226  51.779  0.00  0.00    -0.182 NA
ATOM      7  C   UNL d   1      48.864  34.725  51.596  0.00  0.00     0.306 C 
ATOM      8  O   UNL d   1      48.871  34.285  50.896  0.00  0.00    -0.263 OA
BRANCH   7   9
ATOM      9  C   UNL d   1      49.505  34.664  52.127  0.00  0.00     0.185 C 
BRANCH   9  10
ATOM     10  O   UNL d   1      50.124  34.138  51.963  0.00  0.00    -0.300 OA
BRANCH  10  11
ATOM     11  C   UNL d   1      50.789  34.115  52.449  0.00  0.00     0.100 A 
ATOM     12  C   UNL d   1      51.474  34.515  52.211  0.00  0.00     0.025 A 
ATOM     13  C   UNL d   1      52.141  34.494  52.695  0.00  0.00     0.002 A 
ATOM     14  C   UNL d   1      52.132  34.084  53.405  0.00  0.00     0.000 A 
ATOM     15  C   UNL d   1      51.445  33.682  53.646  0.00  0.00     0.002 A 
ATOM     16  C   UNL d   1      50.767  33.700  53.160  0.00  0.00     0.025 A 
ENDBRANCH  10  11
ENDBRANCH   9  10
ENDBRANCH   7   9
ENDBRANCH   1   6
BRANCH   2  17
ATOM     17  N   UNL d   1      47.091  36.490  52.047  0.00  0.00    -0.182 NA
ATOM     18  C   UNL d   1      46.292  36.487  52.261  0.00  0.00     0.306 C 
ATOM     19  O   UNL d   1      45.728  36.709  51.716  0.00  0.00    -0.263 OA
BRANCH  18  20
ATOM     20  C   UNL d   1      46.073  36.255  53.038  0.00  0.00     0.185 C 
BRANCH  20  21
ATOM     21  O   UNL d   1      45.286  36.253  53.270  0.00  0.00    -0.300 OA
BRANCH  21  22
ATOM     22  C   UNL d   1      45.078  35.916  53.996  0.00  0.00     0.100 A 
ATOM     23  C   UNL d   1      45.038  36.357  54.688  0.00  0.00     0.025 A 
ATOM     24  C   UNL d   1      44.837  36.057  55.422  0.00  0.00     0.002 A 
ATOM     25  C   UNL d   1      44.663  35.235  55.439  0.00  0.00     0.000 A 
ATOM     26  C   UNL d   1      44.700  34.783  54.753  0.00  0.00     0.002 A 
ATOM     27  C   UNL d   1      44.906  35.112  54.027  0.00  0.00     0.025 A 
ENDBRANCH  21  22
ENDBRANCH  20  21
ENDBRANCH  18  20
ENDBRANCH   2  17
TORSDOF 8
ENDMDL
MODEL 6
REMARK VINA RESULT:      -6.5      2.769      3.950
REMARK  8 active torsions:
REMARK  status: ('A' for Active; 'I' for Inactive)
REMARK    1  A    between atoms: N_6  and  C_1 
REMARK    2  A    between atoms: N_7  and  C_2 
REMARK       I    between atoms: C_8  and  N_6 
REMARK       I    between atoms: C_9  and  N_7 
REMARK    3  A    between atoms: C_14  and  C_8 
REMARK    4  A    between atoms: C_15  and  C_9 
REMARK    5  A    between atoms: O_12  and  C_14 
REMARK    6  A    between atoms: C_16  and  O_12 
REMARK    7  A    between atoms: O_13  and  C_15 
REMARK    8  A    between atoms: C_17  and  O_13 
ROOT
ATOM      1  C   UNL d   1      50.995  34.245  52.890  0.00  0.00     0.232 A 
ATOM      2  C   UNL d   1      50.231  34.078  52.628  0.00  0.00     0.232 A 
ATOM      3  N   UNL d   1      51.036  33.992  53.683  0.00  0.00    -0.081 NA
ATOM      4  N   UNL d   1      49.816  33.735  53.234  0.00  0.00    -0.081 NA
ATOM      5  O   UNL d   1      50.289  33.676  53.879  0.00  0.00    -0.103 OA
ENDROOT
BRANCH   1   6
ATOM      6  N   UNL d   1      51.537  34.599  52.376  0.00  0.00    -0.182 NA
ATOM      7  C   UNL d   1      52.352  34.505  52.509  0.00  0.00     0.306 C 
ATOM      8  O   UNL d   1      52.907  34.852  52.005  0.00  0.00    -0.263 OA
BRANCH   7   9
ATOM      9  C   UNL d   1      52.612  34.053  53.160  0.00  0.00     0.185 C 
BRANCH   9  10
ATOM     10  O   UNL d   1      53.412  33.847  53.222  0.00  0.00    -0.300 OA
BRANCH  10  11
ATOM     11  C   UNL d   1      53.697  33.490  53.908  0.00  0.00     0.100 A 
ATOM     12  C   UNL d   1      53.717  32.663  53.952  0.00  0.00     0.025 A 
ATOM     13  C   UNL d   1      54.001  32.303  54.637  0.00  0.00     0.002 A 
ATOM     14  C   UNL d   1      54.263  32.752  55.270  0.00  0.00     0.000 A 
ATOM     15  C   UNL d   1      54.244  33.583  55.228  0.00  0.00     0.002 A 
ATOM     16  C   UNL d   1      53.957  33.953  54.538  0.00  0.00     0.025 A 
ENDBRANCH  10  11
ENDBRANCH   9  10
ENDBRANCH   7   9
ENDBRANCH   1   6
BRANCH   2  17
ATOM     17  N   UNL d   1      49.938  34.241  51.853  0.00  0.00    -0.182 NA
ATOM     18  C   UNL d   1      49.271  34.718  51.744  0.00  0.00     0.306 C 
ATOM     19  O   UNL d   1      48.999  34.867  50.991  0.00  0.00    -0.263 OA
BRANCH  18  20
ATOM     20  C   UNL d   1      48.882  35.043  52.415  0.00  0.00     0.185 C 
BRANCH  20  21
ATOM     21  O   UNL d   1      48.303  35.618  52.328  0.00  0.00    -0.300 OA
BRANCH  21  22
ATOM     22  C   UNL d   1      47.906  35.898  52.996  0.00  0.00     0.100 A 
ATOM     23  C   UNL d   1      48.257  36.414  53.530  0.00  0.00     0.025 A 
ATOM     24  C   UNL d   1      47.893  36.709  54.201  0.00  0.00     0.002 A 
ATOM     25  C   UNL d   1      47.104  36.450  54.327  0.00  0.00     0.000 A 
ATOM     26  C   UNL d   1      46.742  35.933  53.799  0.00  0.00     0.002 A 
ATOM     27  C   UNL d   1      47.132  35.651  53.132  0.00  0.00     0.025 A 
ENDBRANCH  21  22
ENDBRANCH  20  21
ENDBRANCH  18  20
ENDBRANCH   2  17
TORSDOF 8
ENDMDL
MODEL 7
REMARK VINA RESULT:      -6.0      2.170      4.972
REMARK  8 active torsions:
REMARK  status: ('A' for Active; 'I' for Inactive)
REMARK    1  A    between atoms: N_6  and  C_1 
REMARK    2  A    between atoms: N_7  and  C_2 
REMARK       I    between atoms: C_8  and  N_6 
REMARK       I    between atoms: C_9  and  N_7 
REMARK    3  A    between atoms: C_14  and  C_8 
REMARK    4  A    between atoms: C_15  and  C_9 
REMARK    5  A    between atoms: O_12  and  C_14 
REMARK    6  A    between atoms: C_16  and  O_12 
REMARK    7  A    between atoms: O_13  and  C_15 
REMARK    8  A    between atoms: C_17  and  O_13 
ROOT
ATOM      1  C   UNL d   1      51.320  33.653  52.860  0.00  0.00     0.232 A 
ATOM      2  C   UNL d   1      51.984  33.566  53.342  0.00  0.00     0.232 A 
ATOM      3  N   UNL d   1      50.661  33.428  53.319  0.00  0.00    -0.081 NA
ATOM      4  N   UNL d   1      51.746  33.299  54.070  0.00  0.00    -0.081 NA
ATOM      5  O   UNL d   1      50.949  33.211  54.071  0.00  0.00    -0.103 OA
ENDROOT
BRANCH   1   6
ATOM      6  N   UNL d   1      51.409  33.920  52.083  0.00  0.00    -0.182 NA
ATOM      7  C   UNL d   1      50.781  34.317  51.711  0.00  0.00     0.306 C 
ATOM      8  O   UNL d   1      50.853  34.591  50.935  0.00  0.00    -0.263 OA
BRANCH   7   9
ATOM      9  C   UNL d   1      50.069  34.440  52.127  0.00  0.00     0.185 C 
BRANCH   9  10
ATOM     10  O   UNL d   1      49.361  34.542  51.707  0.00  0.00    -0.300 OA
BRANCH  10  11
ATOM     11  C   UNL d   1      48.773  35.040  51.999  0.00  0.00     0.100 A 
ATOM     12  C   UNL d   1      48.107  35.192  51.530  0.00  0.00     0.025 A 
ATOM     13  C   UNL d   1      47.517  35.690  51.819  0.00  0.00     0.002 A 
ATOM     14  C   UNL d   1      47.582  36.033  52.560  0.00  0.00     0.000 A 
ATOM     15  C   UNL d   1      48.250  35.881  53.032  0.00  0.00     0.002 A 
ATOM     16  C   UNL d   1      48.850  35.378  52.746  0.00  0.00     0.025 A 
ENDBRANCH  10  11
ENDBRANCH   9  10
ENDBRANCH   7   9
ENDBRANCH   1   6
BRANCH   2  17
ATOM     17  N   UNL d   1      52.778  33.731  53.107  0.00  0.00    -0.182 NA
ATOM     18  C   UNL d   1      53.353  33.137  53.112  0.00  0.00     0.306 C 
ATOM     19  O   UNL d   1      54.116  33.310  52.883  0.00  0.00    -0.263 OA
BRANCH  18  20
ATOM     20  C   UNL d   1      53.142  32.360  53.355  0.00  0.00     0.185 C 
BRANCH  20  21
ATOM     21  O   UNL d   1      53.687  31.746  53.322  0.00  0.00    -0.300 OA
BRANCH  21  22
ATOM     22  C   UNL d   1      53.430  30.970  53.441  0.00  0.00     0.100 A 
ATOM     23  C   UNL d   1      53.025  30.549  52.863  0.00  0.00     0.025 A 
ATOM     24  C   UNL d   1      52.757  29.781  52.947  0.00  0.00     0.002 A 
ATOM     25  C   UNL d   1      52.921  29.421  53.688  0.00  0.00     0.000 A 
ATOM     26  C   UNL d   1      53.325  29.832  54.274  0.00  0.00     0.002 A 
ATOM     27  C   UNL d   1      53.584  30.605  54.163  0.00  0.00     0.025 A 
ENDBRANCH  21  22
ENDBRANCH  20  21
ENDBRANCH  18  20
ENDBRANCH   2  17
TORSDOF 8
ENDMDL
MODEL 8
REMARK VINA RESULT:      -6.0      4.629      7.133
REMARK  8 active torsions:
REMARK  status: ('A' for Active; 'I' for Inactive)
REMARK    1  A    between atoms: N_6  and  C_1 
REMARK    2  A    between atoms: N_7  and  C_2 
REMARK       I    between atoms: C_8  and  N_6 
REMARK       I    between atoms: C_9  and  N_7 
REMARK    3  A    between atoms: C_14  and  C_8 
REMARK    4  A    between atoms: C_15  and  C_9 
REMARK    5  A    between atoms: O_12  and  C_14 
REMARK    6  A    between atoms: C_16  and  O_12 
REMARK    7  A    between atoms: O_13  and  C_15 
REMARK    8  A    between atoms: C_17  and  O_13 
ROOT
ATOM      1  C   UNL d   1      47.832  36.129  52.640  0.00  0.00     0.232 A 
ATOM      2  C   UNL d   1      48.375  35.531  52.474  0.00  0.00     0.232 A 
ATOM      3  N   UNL d   1      47.991  36.387  53.417  0.00  0.00    -0.081 NA
ATOM      4  N   UNL d   1      48.852  35.423  53.121  0.00  0.00    -0.081 NA
ATOM      5  O   UNL d   1      48.632  35.934  53.699  0.00  0.00    -0.103 OA
ENDROOT
BRANCH   1   6
ATOM      6  N   UNL d   1      47.277  36.350  52.068  0.00  0.00    -0.182 NA
ATOM      7  C   UNL d   1      46.474  36.406  52.275  0.00  0.00     0.306 C 
ATOM      8  O   UNL d   1      45.907  36.626  51.716  0.00  0.00    -0.263 OA
BRANCH   7   9
ATOM      9  C   UNL d   1      46.239  36.239  53.058  0.00  0.00     0.185 C 
BRANCH   9  10
ATOM     10  O   UNL d   1      45.434  36.253  53.256  0.00  0.00    -0.300 OA
BRANCH  10  11
ATOM     11  C   UNL d   1      45.184  35.994  53.996  0.00  0.00     0.100 A 
ATOM     12  C   UNL d   1      45.140  36.539  54.619  0.00  0.00     0.025 A 
ATOM     13  C   UNL d   1      44.890  36.282  55.361  0.00  0.00     0.002 A 
ATOM     14  C   UNL d   1      44.686  35.498  55.489  0.00  0.00     0.000 A 
ATOM     15  C   UNL d   1      44.730  34.950  54.864  0.00  0.00     0.002 A 
ATOM     16  C   UNL d   1      44.982  35.204  54.111  0.00  0.00     0.025 A 
ENDBRANCH  10  11
ENDBRANCH   9  10
ENDBRANCH   7   9
ENDBRANCH   1   6
BRANCH   2  17
ATOM     17  N   UNL d   1      48.421  35.106  51.746  0.00  0.00    -0.182 NA
ATOM     18  C   UNL d   1      49.091  34.661  51.557  0.00  0.00     0.306 C 
ATOM     19  O   UNL d   1      49.122  34.255  50.850  0.00  0.00    -0.263 OA
BRANCH  18  20
ATOM     20  C   UNL d   1      49.735  34.632  52.097  0.00  0.00     0.185 C 
BRANCH  20  21
ATOM     21  O   UNL d   1      50.458  34.314  51.875  0.00  0.00    -0.300 OA
BRANCH  21  22
ATOM     22  C   UNL d   1      51.016  34.131  52.457  0.00  0.00     0.100 A 
ATOM     23  C   UNL d   1      50.962  33.454  52.917  0.00  0.00     0.025 A 
ATOM     24  C   UNL d   1      51.495  33.242  53.500  0.00  0.00     0.002 A 
ATOM     25  C   UNL d   1      52.135  33.775  53.614  0.00  0.00     0.000 A 
ATOM     26  C   UNL d   1      52.199  34.456  53.159  0.00  0.00     0.002 A 
ATOM     27  C   UNL d   1      51.647  34.645  52.578  0.00  0.00     0.025 A 
ENDBRANCH  21  22
ENDBRANCH  20  21
ENDBRANCH  18  20
ENDBRANCH   2  17
TORSDOF 8
ENDMDL
MODEL 9
REMARK VINA RESULT:      -6.0      3.020      5.682
REMARK  8 active torsions:
REMARK  status: ('A' for Active; 'I' for Inactive)
REMARK    1  A    between atoms: N_6  and  C_1 
REMARK    2  A    between atoms: N_7  and  C_2 
REMARK       I    between atoms: C_8  and  N_6 
REMARK       I    between atoms: C_9  and  N_7 
REMARK    3  A    between atoms: C_14  and  C_8 
REMARK    4  A    between atoms: C_15  and  C_9 
REMARK    5  A    between atoms: O_12  and  C_14 
REMARK    6  A    between atoms: C_16  and  O_12 
REMARK    7  A    between atoms: O_13  and  C_15 
REMARK    8  A    between atoms: C_17  and  O_13 
ROOT
ATOM      1  C   UNL d   1      50.006  34.710  52.950  0.00  0.00     0.232 A 
ATOM      2  C   UNL d   1      50.806  34.626  52.764  0.00  0.00     0.232 A 
ATOM      3  N   UNL d   1      49.586  34.215  52.427  0.00  0.00    -0.081 NA
ATOM      4  N   UNL d   1      50.877  34.100  52.150  0.00  0.00    -0.081 NA
ATOM      5  O   UNL d   1      50.148  33.843  51.935  0.00  0.00    -0.103 OA
ENDROOT
BRANCH   1   6
ATOM      6  N   UNL d   1      49.779  35.218  53.561  0.00  0.00    -0.182 NA
ATOM      7  C   UNL d   1      49.060  35.631  53.505  0.00  0.00     0.306 C 
ATOM      8  O   UNL d   1      48.817  36.143  54.106  0.00  0.00    -0.263 OA
BRANCH   7   9
ATOM      9  C   UNL d   1      48.578  35.528  52.832  0.00  0.00     0.185 C 
BRANCH   9  10
ATOM     10  O   UNL d   1      48.029  36.115  52.627  0.00  0.00    -0.300 OA
BRANCH  10  11
ATOM     11  C   UNL d   1      47.340  35.916  52.222  0.00  0.00     0.100 A 
ATOM     12  C   UNL d   1      46.624  35.887  52.638  0.00  0.00     0.025 A 
ATOM     13  C   UNL d   1      45.933  35.688  52.236  0.00  0.00     0.002 A 
ATOM     14  C   UNL d   1      45.947  35.519  51.434  0.00  0.00     0.000 A 
ATOM     15  C   UNL d   1      46.665  35.548  51.015  0.00  0.00     0.002 A 
ATOM     16  C   UNL d   1      47.367  35.749  51.416  0.00  0.00     0.025 A 
ENDBRANCH  10  11
ENDBRANCH   9  10
ENDBRANCH   7   9
ENDBRANCH   1   6
BRANCH   2  17
ATOM     17  N   UNL d   1      51.439  35.026  53.153  0.00  0.00    -0.182 NA
ATOM     18  C   UNL d   1      52.142  34.630  53.332  0.00  0.00     0.306 C 
ATOM     19  O   UNL d   1      52.745  35.029  53.709  0.00  0.00    -0.263 OA
BRANCH  18  20
ATOM     20  C   UNL d   1      52.226  33.820  53.123  0.00  0.00     0.185 C 
BRANCH  20  21
ATOM     21  O   UNL d   1      52.969  33.483  53.034  0.00  0.00    -0.300 OA
BRANCH  21  22
ATOM     22  C   UNL d   1      53.077  32.686  53.224  0.00  0.00     0.100 A 
ATOM     23  C   UNL d   1      52.726  32.082  52.793  0.00  0.00     0.025 A 
ATOM     24  C   UNL d   1      52.811  31.284  52.952  0.00  0.00     0.002 A 
ATOM     25  C   UNL d   1      53.300  31.098  53.610  0.00  0.00     0.000 A 
ATOM     26  C   UNL d   1      53.658  31.695  54.049  0.00  0.00     0.002 A 
ATOM     27  C   UNL d   1      53.554  32.491  53.866  0.00  0.00     0.025 A 
ENDBRANCH  21  22
ENDBRANCH  20  21
ENDBRANCH  18  20
ENDBRANCH   2  17
TORSDOF 8
ENDMDL
