MODEL 1
REMARK VINA RESULT:      -8.1      0.000      0.000
REMARK  3 active torsions:
REMARK  status: ('A' for Active; 'I' for Inactive)
REMARK    1  A    between atoms: C_13  and  N_2 
REMARK    2  A    between atoms: N_5  and  C_14 
REMARK    3  A    between atoms: C_14  and  C_13 
ROOT
ATOM      1  C   UNL d   1     -46.738  12.534  23.231  0.00  0.00     0.166 A 
ATOM      2  N   UNL d   1     -47.378  13.071  23.187  0.00  0.00    -0.288 N 
ATOM      3  C   UNL d   1     -46.050  12.927  22.985  0.00  0.00     0.117 A 
ATOM      4  N   UNL d   1     -46.715  11.736  23.469  0.00  0.00    -0.225 NA
ATOM      5  N   UNL d   1     -45.336  12.524  22.976  0.00  0.00    -0.241 NA
ATOM      6  C   UNL d   1     -46.265  13.712  22.787  0.00  0.00     0.037 A 
ATOM      7  C   UNL d   1     -47.074  13.788  22.914  0.00  0.00     0.067 A 
ATOM      8  C   UNL d   1     -45.998  11.326  23.461  0.00  0.00     0.101 A 
ATOM      9  C   UNL d   1     -45.310  11.720  23.215  0.00  0.00     0.099 A 
ATOM     10  C   UNL d   1     -45.799  14.358  22.506  0.00  0.00     0.003 A 
ATOM     11  C   UNL d   1     -47.444  14.534  22.756  0.00  0.00     0.018 A 
ATOM     12  C   UNL d   1     -45.967  10.522  23.698  0.00  0.00     0.021 A 
ATOM     13  C   UNL d   1     -44.620  11.304  23.213  0.00  0.00     0.021 A 
ATOM     14  C   UNL d   1     -46.156  15.077  22.355  0.00  0.00     0.000 A 
ATOM     15  C   UNL d   1     -46.969  15.159  22.479  0.00  0.00     0.002 A 
ATOM     16  C   UNL d   1     -44.566  10.510  23.444  0.00  0.00     0.002 A 
ATOM     17  C   UNL d   1     -45.255  10.115  23.690  0.00  0.00     0.002 A 
ENDROOT
BRANCH   2  18
ATOM     18  C   UNL d   1     -48.174  13.288  23.267  0.00  0.00     0.101 C 
BRANCH  18  19
ATOM     19  C   UNL d   1     -48.693  12.807  23.690  0.00  0.00     0.104 C 
BRANCH  19  20
ATOM     20  N   UNL d   1     -49.499  12.983  23.691  0.00  0.00    -0.250 N 
ATOM     21  C   UNL d   1     -49.865  13.545  23.692  0.00  0.00     0.378 A 
ATOM     22  O   UNL d   1     -50.512  13.370  23.692  0.00  0.00    -0.258 OA
ATOM     23  O   UNL d   1     -49.628  14.169  23.692  0.00  0.00    -0.237 OA
ATOM     24  C   UNL d   1     -50.544  12.699  23.691  0.00  0.00     0.121 A 
ATOM     25  C   UNL d   1     -49.917  12.460  23.690  0.00  0.00     0.092 A 
ATOM     26  C   UNL d   1     -51.064  12.270  23.691  0.00  0.00     0.026 A 
ATOM     27  C   UNL d   1     -49.804  11.800  23.689  0.00  0.00     0.020 A 
ATOM     28  C   UNL d   1     -50.327  11.374  23.689  0.00  0.00     0.002 A 
ATOM     29  C   UNL d   1     -50.950  11.610  23.690  0.00  0.00     0.002 A 
ENDBRANCH  19  20
ENDBRANCH  18  19
ENDBRANCH   2  18
TORSDOF 3
ENDMDL
MODEL 2
REMARK VINA RESULT:      -8.0      8.296     10.066
REMARK  3 active torsions:
REMARK  status: ('A' for Active; 'I' for Inactive)
REMARK    1  A    between atoms: C_13  and  N_2 
REMARK    2  A    between atoms: N_5  and  C_14 
REMARK    3  A    between atoms: C_14  and  C_13 
ROOT
ATOM      1  C   UNL d   1     -39.265  14.356  20.760  0.00  0.00     0.166 A 
ATOM      2  N   UNL d   1     -39.435  14.645  19.993  0.00  0.00    -0.288 N 
ATOM      3  C   UNL d   1     -39.853  14.629  21.277  0.00  0.00     0.117 A 
ATOM      4  N   UNL d   1     -38.640  13.877  21.034  0.00  0.00    -0.225 NA
ATOM      5  N   UNL d   1     -39.819  14.424  22.071  0.00  0.00    -0.241 NA
ATOM      6  C   UNL d   1     -40.391  15.089  20.829  0.00  0.00     0.037 A 
ATOM      7  C   UNL d   1     -40.126  15.092  20.051  0.00  0.00     0.067 A 
ATOM      8  C   UNL d   1     -38.602  13.669  21.831  0.00  0.00     0.101 A 
ATOM      9  C   UNL d   1     -39.191  13.942  22.349  0.00  0.00     0.099 A 
ATOM     10  C   UNL d   1     -41.090  15.502  21.060  0.00  0.00     0.003 A 
ATOM     11  C   UNL d   1     -40.570  15.521  19.470  0.00  0.00     0.018 A 
ATOM     12  C   UNL d   1     -37.977  13.188  22.115  0.00  0.00     0.021 A 
ATOM     13  C   UNL d   1     -39.138  13.728  23.125  0.00  0.00     0.021 A 
ATOM     14  C   UNL d   1     -41.517  15.915  20.500  0.00  0.00     0.000 A 
ATOM     15  C   UNL d   1     -41.257  15.922  19.716  0.00  0.00     0.002 A 
ATOM     16  C   UNL d   1     -38.529  13.254  23.425  0.00  0.00     0.002 A 
ATOM     17  C   UNL d   1     -37.940  12.981  22.907  0.00  0.00     0.002 A 
ENDROOT
BRANCH   2  18
ATOM     18  C   UNL d   1     -39.288  14.734  19.183  0.00  0.00     0.101 C 
BRANCH  18  19
ATOM     19  C   UNL d   1     -38.737  14.248  18.806  0.00  0.00     0.104 C 
BRANCH  19  20
ATOM     20  N   UNL d   1     -38.459  14.456  18.058  0.00  0.00    -0.250 N 
ATOM     21  C   UNL d   1     -38.241  15.020  17.769  0.00  0.00     0.378 A 
ATOM     22  O   UNL d   1     -38.078  14.878  17.134  0.00  0.00    -0.258 OA
ATOM     23  O   UNL d   1     -38.195  15.619  18.061  0.00  0.00    -0.237 OA
ATOM     24  C   UNL d   1     -38.196  14.224  17.033  0.00  0.00     0.121 A 
ATOM     25  C   UNL d   1     -38.432  13.963  17.604  0.00  0.00     0.092 A 
ATOM     26  C   UNL d   1     -38.120  13.828  16.494  0.00  0.00     0.026 A 
ATOM     27  C   UNL d   1     -38.592  13.314  17.642  0.00  0.00     0.020 A 
ATOM     28  C   UNL d   1     -38.514  12.922  17.100  0.00  0.00     0.002 A 
ATOM     29  C   UNL d   1     -38.280  13.179  16.532  0.00  0.00     0.002 A 
ENDBRANCH  19  20
ENDBRANCH  18  19
ENDBRANCH   2  18
TORSDOF 3
ENDMDL
MODEL 3
REMARK VINA RESULT:      -6.9      8.831     10.449
REMARK  3 active torsions:
REMARK  status: ('A' for Active; 'I' for Inactive)
REMARK    1  A    between atoms: C_13  and  N_2 
REMARK    2  A    between atoms: N_5  and  C_14 
REMARK    3  A    between atoms: C_14  and  C_13 
ROOT
ATOM      1  C   UNL d   1     -39.872  14.850  18.917  0.00  0.00     0.166 A 
ATOM      2  N   UNL d   1     -39.747  14.631  18.119  0.00  0.00    -0.288 N 
ATOM      3  C   UNL d   1     -40.522  15.365  18.947  0.00  0.00     0.117 A 
ATOM      4  N   UNL d   1     -39.462  14.634  19.610  0.00  0.00    -0.225 NA
ATOM      5  N   UNL d   1     -40.765  15.666  19.670  0.00  0.00    -0.241 NA
ATOM      6  C   UNL d   1     -40.801  15.465  18.164  0.00  0.00     0.037 A 
ATOM      7  C   UNL d   1     -40.322  15.014  17.670  0.00  0.00     0.067 A 
ATOM      8  C   UNL d   1     -39.703  14.935  20.340  0.00  0.00     0.101 A 
ATOM      9  C   UNL d   1     -40.354  15.450  20.369  0.00  0.00     0.099 A 
ATOM     10  C   UNL d   1     -41.443  15.922  17.861  0.00  0.00     0.003 A 
ATOM     11  C   UNL d   1     -40.482  15.012  16.837  0.00  0.00     0.018 A 
ATOM     12  C   UNL d   1     -39.297  14.723  21.041  0.00  0.00     0.021 A 
ATOM     13  C   UNL d   1     -40.576  15.733  21.091  0.00  0.00     0.021 A 
ATOM     14  C   UNL d   1     -41.596  15.920  17.059  0.00  0.00     0.000 A 
ATOM     15  C   UNL d   1     -41.119  15.469  16.557  0.00  0.00     0.002 A 
ATOM     16  C   UNL d   1     -40.188  15.536  21.796  0.00  0.00     0.002 A 
ATOM     17  C   UNL d   1     -39.537  15.021  21.767  0.00  0.00     0.002 A 
ENDROOT
BRANCH   2  18
ATOM     18  C   UNL d   1     -39.352  14.229  17.512  0.00  0.00     0.101 C 
BRANCH  18  19
ATOM     19  C   UNL d   1     -38.691  13.766  17.683  0.00  0.00     0.104 C 
BRANCH  19  20
ATOM     20  N   UNL d   1     -38.433  13.208  17.133  0.00  0.00    -0.250 N 
ATOM     21  C   UNL d   1     -38.314  13.208  16.473  0.00  0.00     0.378 A 
ATOM     22  O   UNL d   1     -38.109  12.593  16.300  0.00  0.00    -0.258 OA
ATOM     23  O   UNL d   1     -38.386  13.727  16.060  0.00  0.00    -0.237 OA
ATOM     24  C   UNL d   1     -38.103  12.215  16.856  0.00  0.00     0.121 A 
ATOM     25  C   UNL d   1     -38.303  12.595  17.370  0.00  0.00     0.092 A 
ATOM     26  C   UNL d   1     -37.940  11.570  16.962  0.00  0.00     0.026 A 
ATOM     27  C   UNL d   1     -38.343  12.340  17.988  0.00  0.00     0.020 A 
ATOM     28  C   UNL d   1     -38.179  11.694  18.091  0.00  0.00     0.002 A 
ATOM     29  C   UNL d   1     -37.979  11.315  17.580  0.00  0.00     0.002 A 
ENDBRANCH  19  20
ENDBRANCH  18  19
ENDBRANCH   2  18
TORSDOF 3
ENDMDL
MODEL 4
REMARK VINA RESULT:      -6.8      8.654     10.820
REMARK  3 active torsions:
REMARK  status: ('A' for Active; 'I' for Inactive)
REMARK    1  A    between atoms: C_13  and  N_2 
REMARK    2  A    between atoms: N_5  and  C_14 
REMARK    3  A    between atoms: C_14  and  C_13 
ROOT
ATOM      1  C   UNL d   1     -38.391  14.446  17.509  0.00  0.00     0.166 A 
ATOM      2  N   UNL d   1     -38.501  14.308  18.327  0.00  0.00    -0.288 N 
ATOM      3  C   UNL d   1     -38.165  13.732  17.152  0.00  0.00     0.117 A 
ATOM      4  N   UNL d   1     -38.474  15.144  17.060  0.00  0.00    -0.225 NA
ATOM      5  N   UNL d   1     -38.021  13.712  16.345  0.00  0.00    -0.241 NA
ATOM      6  C   UNL d   1     -38.135  13.149  17.752  0.00  0.00     0.037 A 
ATOM      7  C   UNL d   1     -38.341  13.511  18.461  0.00  0.00     0.067 A 
ATOM      8  C   UNL d   1     -38.330  15.128  16.247  0.00  0.00     0.101 A 
ATOM      9  C   UNL d   1     -38.104  14.413  15.891  0.00  0.00     0.099 A 
ATOM     10  C   UNL d   1     -37.940  12.328  17.714  0.00  0.00     0.003 A 
ATOM     11  C   UNL d   1     -38.356  13.044  19.169  0.00  0.00     0.018 A 
ATOM     12  C   UNL d   1     -38.411  15.825  15.789  0.00  0.00     0.021 A 
ATOM     13  C   UNL d   1     -37.967  14.417  15.096  0.00  0.00     0.021 A 
ATOM     14  C   UNL d   1     -37.954  11.879  18.396  0.00  0.00     0.000 A 
ATOM     15  C   UNL d   1     -38.160  12.236  19.112  0.00  0.00     0.002 A 
ATOM     16  C   UNL d   1     -38.041  15.094  14.625  0.00  0.00     0.002 A 
ATOM     17  C   UNL d   1     -38.267  15.809  14.981  0.00  0.00     0.002 A 
ENDROOT
BRANCH   2  18
ATOM     18  C   UNL d   1     -38.688  14.538  19.101  0.00  0.00     0.101 C 
BRANCH  18  19
ATOM     19  C   UNL d   1     -39.256  15.120  19.235  0.00  0.00     0.104 C 
BRANCH  19  20
ATOM     20  N   UNL d   1     -39.320  15.459  19.984  0.00  0.00    -0.250 N 
ATOM     21  C   UNL d   1     -38.889  15.702  20.436  0.00  0.00     0.378 A 
ATOM     22  O   UNL d   1     -39.243  15.916  20.965  0.00  0.00    -0.258 OA
ATOM     23  O   UNL d   1     -38.224  15.727  20.374  0.00  0.00    -0.237 OA
ATOM     24  C   UNL d   1     -39.892  15.804  20.836  0.00  0.00     0.121 A 
ATOM     25  C   UNL d   1     -39.940  15.521  20.230  0.00  0.00     0.092 A 
ATOM     26  C   UNL d   1     -40.451  15.922  21.193  0.00  0.00     0.026 A 
ATOM     27  C   UNL d   1     -40.537  15.356  19.977  0.00  0.00     0.020 A 
ATOM     28  C   UNL d   1     -41.095  15.476  20.337  0.00  0.00     0.002 A 
ATOM     29  C   UNL d   1     -41.049  15.757  20.940  0.00  0.00     0.002 A 
ENDBRANCH  19  20
ENDBRANCH  18  19
ENDBRANCH   2  18
TORSDOF 3
ENDMDL
MODEL 5
REMARK VINA RESULT:      -6.7      1.617      4.365
REMARK  3 active torsions:
REMARK  status: ('A' for Active; 'I' for Inactive)
REMARK    1  A    between atoms: C_13  and  N_2 
REMARK    2  A    between atoms: N_5  and  C_14 
REMARK    3  A    between atoms: C_14  and  C_13 
ROOT
ATOM      1  C   UNL d   1     -48.342  13.079  23.090  0.00  0.00     0.166 A 
ATOM      2  N   UNL d   1     -47.573  13.382  22.963  0.00  0.00    -0.288 N 
ATOM      3  C   UNL d   1     -48.888  13.692  22.970  0.00  0.00     0.117 A 
ATOM      4  N   UNL d   1     -48.595  12.313  23.302  0.00  0.00    -0.225 NA
ATOM      5  N   UNL d   1     -49.689  13.542  23.060  0.00  0.00    -0.241 NA
ATOM      6  C   UNL d   1     -48.455  14.379  22.767  0.00  0.00     0.037 A 
ATOM      7  C   UNL d   1     -47.657  14.179  22.766  0.00  0.00     0.067 A 
ATOM      8  C   UNL d   1     -49.401  12.158  23.394  0.00  0.00     0.101 A 
ATOM      9  C   UNL d   1     -49.946  12.773  23.273  0.00  0.00     0.099 A 
ATOM     10  C   UNL d   1     -48.715  15.162  22.584  0.00  0.00     0.003 A 
ATOM     11  C   UNL d   1     -47.086  14.776  22.576  0.00  0.00     0.018 A 
ATOM     12  C   UNL d   1     -49.663  11.391  23.607  0.00  0.00     0.021 A 
ATOM     13  C   UNL d   1     -50.729  12.603  23.368  0.00  0.00     0.021 A 
ATOM     14  C   UNL d   1     -48.164  15.737  22.402  0.00  0.00     0.000 A 
ATOM     15  C   UNL d   1     -47.361  15.542  22.399  0.00  0.00     0.002 A 
ATOM     16  C   UNL d   1     -51.010  11.852  23.577  0.00  0.00     0.002 A 
ATOM     17  C   UNL d   1     -50.464  11.238  23.698  0.00  0.00     0.002 A 
ENDROOT
BRANCH   2  18
ATOM     18  C   UNL d   1     -46.747  13.324  22.924  0.00  0.00     0.101 C 
BRANCH  18  19
ATOM     19  C   UNL d   1     -46.395  12.747  22.451  0.00  0.00     0.104 C 
BRANCH  19  20
ATOM     20  N   UNL d   1     -45.680  12.411  22.688  0.00  0.00    -0.250 N 
ATOM     21  C   UNL d   1     -45.479  12.027  23.200  0.00  0.00     0.378 A 
ATOM     22  O   UNL d   1     -44.822  11.909  23.124  0.00  0.00    -0.258 OA
ATOM     23  O   UNL d   1     -45.862  11.802  23.698  0.00  0.00    -0.237 OA
ATOM     24  C   UNL d   1     -44.621  12.221  22.564  0.00  0.00     0.121 A 
ATOM     25  C   UNL d   1     -45.151  12.531  22.295  0.00  0.00     0.092 A 
ATOM     26  C   UNL d   1     -44.021  12.265  22.261  0.00  0.00     0.026 A 
ATOM     27  C   UNL d   1     -45.089  12.883  21.728  0.00  0.00     0.020 A 
ATOM     28  C   UNL d   1     -44.486  12.924  21.428  0.00  0.00     0.002 A 
ATOM     29  C   UNL d   1     -43.958  12.616  21.695  0.00  0.00     0.002 A 
ENDBRANCH  19  20
ENDBRANCH  18  19
ENDBRANCH   2  18
TORSDOF 3
ENDMDL
MODEL 6
REMARK VINA RESULT:      -6.2      1.778      2.825
REMARK  3 active torsions:
REMARK  status: ('A' for Active; 'I' for Inactive)
REMARK    1  A    between atoms: C_13  and  N_2 
REMARK    2  A    between atoms: N_5  and  C_14 
REMARK    3  A    between atoms: C_14  and  C_13 
ROOT
ATOM      1  C   UNL d   1     -45.827  12.890  22.412  0.00  0.00     0.166 A 
ATOM      2  N   UNL d   1     -46.628  12.945  22.647  0.00  0.00    -0.288 N 
ATOM      3  C   UNL d   1     -45.539  12.146  22.638  0.00  0.00     0.117 A 
ATOM      4  N   UNL d   1     -45.338  13.439  22.019  0.00  0.00    -0.225 NA
ATOM      5  N   UNL d   1     -44.761  11.947  22.472  0.00  0.00    -0.241 NA
ATOM      6  C   UNL d   1     -46.165  11.737  23.016  0.00  0.00     0.037 A 
ATOM      7  C   UNL d   1     -46.821  12.233  23.015  0.00  0.00     0.067 A 
ATOM      8  C   UNL d   1     -44.554  13.243  21.850  0.00  0.00     0.101 A 
ATOM      9  C   UNL d   1     -44.267  12.497  22.077  0.00  0.00     0.099 A 
ATOM     10  C   UNL d   1     -46.194  10.965  23.357  0.00  0.00     0.003 A 
ATOM     11  C   UNL d   1     -47.542  11.957  23.367  0.00  0.00     0.018 A 
ATOM     12  C   UNL d   1     -44.056  13.789  21.454  0.00  0.00     0.021 A 
ATOM     13  C   UNL d   1     -43.499  12.323  21.903  0.00  0.00     0.021 A 
ATOM     14  C   UNL d   1     -46.888  10.700  23.695  0.00  0.00     0.000 A 
ATOM     15  C   UNL d   1     -47.551  11.193  23.698  0.00  0.00     0.002 A 
ATOM     16  C   UNL d   1     -42.990  12.848  21.514  0.00  0.00     0.002 A 
ATOM     17  C   UNL d   1     -43.277  13.593  21.287  0.00  0.00     0.002 A 
ENDROOT
BRANCH   2  18
ATOM     18  C   UNL d   1     -47.358  13.332  22.717  0.00  0.00     0.101 C 
BRANCH  18  19
ATOM     19  C   UNL d   1     -47.642  13.796  22.098  0.00  0.00     0.104 C 
BRANCH  19  20
ATOM     20  N   UNL d   1     -48.233  14.352  22.246  0.00  0.00    -0.250 N 
ATOM     21  C   UNL d   1     -48.272  14.928  22.586  0.00  0.00     0.378 A 
ATOM     22  O   UNL d   1     -48.898  15.162  22.526  0.00  0.00    -0.258 OA
ATOM     23  O   UNL d   1     -47.776  15.219  22.926  0.00  0.00    -0.237 OA
ATOM     24  C   UNL d   1     -49.244  14.728  22.147  0.00  0.00     0.121 A 
ATOM     25  C   UNL d   1     -48.832  14.227  21.974  0.00  0.00     0.092 A 
ATOM     26  C   UNL d   1     -49.883  14.721  21.935  0.00  0.00     0.026 A 
ATOM     27  C   UNL d   1     -49.051  13.722  21.593  0.00  0.00     0.020 A 
ATOM     28  C   UNL d   1     -49.692  13.719  21.382  0.00  0.00     0.002 A 
ATOM     29  C   UNL d   1     -50.102  14.217  21.554  0.00  0.00     0.002 A 
ENDBRANCH  19  20
ENDBRANCH  18  19
ENDBRANCH   2  18
TORSDOF 3
ENDMDL
MODEL 7
REMARK VINA RESULT:      -5.3      7.805     10.034
REMARK  3 active torsions:
REMARK  status: ('A' for Active; 'I' for Inactive)
REMARK    1  A    between atoms: C_13  and  N_2 
REMARK    2  A    between atoms: N_5  and  C_14 
REMARK    3  A    between atoms: C_14  and  C_13 
ROOT
ATOM      1  C   UNL d   1     -40.254  14.515  19.827  0.00  0.00     0.166 A 
ATOM      2  N   UNL d   1     -39.659  14.821  19.325  0.00  0.00    -0.288 N 
ATOM      3  C   UNL d   1     -40.058  14.704  20.610  0.00  0.00     0.117 A 
ATOM      4  N   UNL d   1     -40.948  14.088  19.649  0.00  0.00    -0.225 NA
ATOM      5  N   UNL d   1     -40.553  14.467  21.219  0.00  0.00    -0.241 NA
ATOM      6  C   UNL d   1     -39.336  15.129  20.594  0.00  0.00     0.037 A 
ATOM      7  C   UNL d   1     -39.104  15.194  19.808  0.00  0.00     0.067 A 
ATOM      8  C   UNL d   1     -41.450  13.848  20.259  0.00  0.00     0.101 A 
ATOM      9  C   UNL d   1     -41.252  14.038  21.043  0.00  0.00     0.099 A 
ATOM     10  C   UNL d   1     -38.876  15.459  21.220  0.00  0.00     0.003 A 
ATOM     11  C   UNL d   1     -38.383  15.603  19.627  0.00  0.00     0.018 A 
ATOM     12  C   UNL d   1     -42.149  13.419  20.088  0.00  0.00     0.021 A 
ATOM     13  C   UNL d   1     -41.754  13.795  21.625  0.00  0.00     0.021 A 
ATOM     14  C   UNL d   1     -38.182  15.853  21.046  0.00  0.00     0.000 A 
ATOM     15  C   UNL d   1     -37.943  15.922  20.258  0.00  0.00     0.002 A 
ATOM     16  C   UNL d   1     -42.450  13.370  21.478  0.00  0.00     0.002 A 
ATOM     17  C   UNL d   1     -42.648  13.180  20.694  0.00  0.00     0.002 A 
ENDROOT
BRANCH   2  18
ATOM     18  C   UNL d   1     -39.307  14.960  18.588  0.00  0.00     0.101 C 
BRANCH  18  19
ATOM     19  C   UNL d   1     -39.442  14.443  17.960  0.00  0.00     0.104 C 
BRANCH  19  20
ATOM     20  N   UNL d   1     -39.223  14.666  17.197  0.00  0.00    -0.250 N 
ATOM     21  C   UNL d   1     -39.319  15.206  16.811  0.00  0.00     0.378 A 
ATOM     22  O   UNL d   1     -39.015  15.098  16.224  0.00  0.00    -0.258 OA
ATOM     23  O   UNL d   1     -39.658  15.756  16.981  0.00  0.00    -0.237 OA
ATOM     24  C   UNL d   1     -38.731  14.490  16.249  0.00  0.00     0.121 A 
ATOM     25  C   UNL d   1     -38.860  14.223  16.850  0.00  0.00     0.092 A 
ATOM     26  C   UNL d   1     -38.369  14.140  15.800  0.00  0.00     0.026 A 
ATOM     27  C   UNL d   1     -38.632  13.614  17.009  0.00  0.00     0.020 A 
ATOM     28  C   UNL d   1     -38.271  13.267  16.558  0.00  0.00     0.002 A 
ATOM     29  C   UNL d   1     -38.142  13.530  15.959  0.00  0.00     0.002 A 
ENDBRANCH  19  20
ENDBRANCH  18  19
ENDBRANCH   2  18
TORSDOF 3
ENDMDL
