MODEL 1
REMARK VINA RESULT:      -3.1      0.000      0.000
REMARK  1 active torsions:
REMARK  status: ('A' for Active; 'I' for Inactive)
REMARK    1  A    between atoms: C_14  and  C_6 
ROOT
ATOM      1  C   UNL d   1      31.219  17.374 -24.404  0.00  0.00     0.174 A 
ATOM      2  N   UNL d   1      32.023  17.225 -24.289  0.00  0.00    -0.250 N 
ATOM      3  C   UNL d   1      30.638  16.892 -24.061  0.00  0.00     0.061 A 
ATOM      4  C   UNL d   1      30.868  16.251 -23.596  0.00  0.00     0.115 A 
ATOM      5  N   UNL d   1      31.672  16.116 -23.492  0.00  0.00    -0.221 NA
ATOM      6  C   UNL d   1      32.254  16.584 -23.824  0.00  0.00     0.151 A 
ATOM      7  N   UNL d   1      31.160  18.083 -24.916  0.00  0.00    -0.128 NA
ATOM      8  C   UNL d   1      32.501  17.826 -24.718  0.00  0.00     0.228 A 
ATOM      9  S   UNL d   1      30.292  15.784 -23.264  0.00  0.00    -0.068 SA
ATOM     10  C   UNL d   1      29.279  16.566 -23.837  0.00  0.00     0.011 A 
ATOM     11  C   UNL d   1      29.510  15.925 -23.373  0.00  0.00     0.031 A 
ATOM     12  N   UNL d   1      31.932  18.341 -25.095  0.00  0.00    -0.117 NA
ATOM     13  S   UNL d   1      33.241  17.806 -24.698  0.00  0.00    -0.036 SA
ATOM     14  C   UNL d   1      28.460  16.711 -23.950  0.00  0.00     0.001 A 
ATOM     15  C   UNL d   1      28.913  15.453 -23.037  0.00  0.00     0.006 A 
ATOM     16  C   UNL d   1      27.894  16.233 -23.609  0.00  0.00     0.000 A 
ATOM     17  C   UNL d   1      28.124  15.592 -23.144  0.00  0.00     0.001 A 
ENDROOT
BRANCH   6  18
ATOM     18  C   UNL d   1      32.890  16.435 -23.712  0.00  0.00     0.037 C 
ATOM     19  C   UNL d   1      33.189  15.978 -23.341  0.00  0.00     0.003 C 
ENDBRANCH   6  18
TORSDOF 1
ENDMDL
MODEL 2
REMARK VINA RESULT:      -2.9      4.413      5.579
REMARK  1 active torsions:
REMARK  status: ('A' for Active; 'I' for Inactive)
REMARK    1  A    between atoms: C_14  and  C_6 
ROOT
ATOM      1  C   UNL d   1      33.237  21.692 -22.550  0.00  0.00     0.174 A 
ATOM      2  N   UNL d   1      33.239  22.132 -21.851  0.00  0.00    -0.250 N 
ATOM      3  C   UNL d   1      33.237  20.863 -22.539  0.00  0.00     0.061 A 
ATOM      4  C   UNL d   1      33.238  20.470 -21.813  0.00  0.00     0.115 A 
ATOM      5  N   UNL d   1      33.239  20.921 -21.126  0.00  0.00    -0.221 NA
ATOM      6  C   UNL d   1      33.240  21.738 -21.126  0.00  0.00     0.151 A 
ATOM      7  N   UNL d   1      33.237  22.264 -23.213  0.00  0.00    -0.128 NA
ATOM      8  C   UNL d   1      33.239  22.990 -22.040  0.00  0.00     0.228 A 
ATOM      9  S   UNL d   1      33.237  19.658 -21.811  0.00  0.00    -0.068 SA
ATOM     10  C   UNL d   1      33.235  19.619 -23.213  0.00  0.00     0.011 A 
ATOM     11  C   UNL d   1      33.236  19.226 -22.487  0.00  0.00     0.031 A 
ATOM     12  N   UNL d   1      33.238  23.035 -22.894  0.00  0.00    -0.117 NA
ATOM     13  S   UNL d   1      33.240  23.497 -21.499  0.00  0.00    -0.036 SA
ATOM     14  C   UNL d   1      33.234  19.165 -23.919  0.00  0.00     0.001 A 
ATOM     15  C   UNL d   1      33.235  18.394 -22.495  0.00  0.00     0.006 A 
ATOM     16  C   UNL d   1      33.233  18.350 -23.900  0.00  0.00     0.000 A 
ATOM     17  C   UNL d   1      33.234  17.957 -23.175  0.00  0.00     0.001 A 
ENDROOT
BRANCH   6  18
ATOM     18  C   UNL d   1      33.241  22.060 -20.546  0.00  0.00     0.037 C 
ATOM     19  C   UNL d   1      33.229  21.858 -19.917  0.00  0.00     0.003 C 
ENDBRANCH   6  18
TORSDOF 1
ENDMDL
MODEL 3
REMARK VINA RESULT:      -2.9      3.430      4.824
REMARK  1 active torsions:
REMARK  status: ('A' for Active; 'I' for Inactive)
REMARK    1  A    between atoms: C_14  and  C_6 
ROOT
ATOM      1  C   UNL d   1      33.221  19.797 -23.720  0.00  0.00     0.174 A 
ATOM      2  N   UNL d   1      33.212  18.987 -23.879  0.00  0.00    -0.250 N 
ATOM      3  C   UNL d   1      33.213  20.085 -22.943  0.00  0.00     0.061 A 
ATOM      4  C   UNL d   1      33.195  19.550 -22.315  0.00  0.00     0.115 A 
ATOM      5  N   UNL d   1      33.186  18.747 -22.488  0.00  0.00    -0.221 NA
ATOM      6  C   UNL d   1      33.194  18.452 -23.251  0.00  0.00     0.151 A 
ATOM      7  N   UNL d   1      33.240  20.209 -24.493  0.00  0.00    -0.128 NA
ATOM      8  C   UNL d   1      33.223  18.853 -24.747  0.00  0.00     0.228 A 
ATOM      9  S   UNL d   1      33.188  19.841 -21.556  0.00  0.00    -0.068 SA
ATOM     10  C   UNL d   1      33.215  21.162 -22.025  0.00  0.00     0.011 A 
ATOM     11  C   UNL d   1      33.197  20.627 -21.397  0.00  0.00     0.031 A 
ATOM     12  N   UNL d   1      33.240  19.633 -25.097  0.00  0.00    -0.117 NA
ATOM     13  S   UNL d   1      33.217  18.166 -25.025  0.00  0.00    -0.036 SA
ATOM     14  C   UNL d   1      33.225  21.984 -21.857  0.00  0.00     0.001 A 
ATOM     15  C   UNL d   1      33.190  20.935 -20.625  0.00  0.00     0.006 A 
ATOM     16  C   UNL d   1      33.217  22.261 -21.089  0.00  0.00     0.000 A 
ATOM     17  C   UNL d   1      33.199  21.726 -20.461  0.00  0.00     0.001 A 
ENDROOT
BRANCH   6  18
ATOM     18  C   UNL d   1      33.185  17.795 -23.341  0.00  0.00     0.037 C 
ATOM     19  C   UNL d   1      33.192  17.281 -22.927  0.00  0.00     0.003 C 
ENDBRANCH   6  18
TORSDOF 1
ENDMDL
MODEL 4
REMARK VINA RESULT:      -2.7      4.207      5.588
REMARK  1 active torsions:
REMARK  status: ('A' for Active; 'I' for Inactive)
REMARK    1  A    between atoms: C_14  and  C_6 
ROOT
ATOM      1  C   UNL d   1      33.188  20.766 -21.400  0.00  0.00     0.174 A 
ATOM      2  N   UNL d   1      33.201  21.590 -21.441  0.00  0.00    -0.250 N 
ATOM      3  C   UNL d   1      33.201  20.299 -22.085  0.00  0.00     0.061 A 
ATOM      4  C   UNL d   1      33.228  20.667 -22.823  0.00  0.00     0.115 A 
ATOM      5  N   UNL d   1      33.241  21.488 -22.848  0.00  0.00    -0.221 NA
ATOM      6  C   UNL d   1      33.228  21.958 -22.179  0.00  0.00     0.151 A 
ATOM      7  N   UNL d   1      33.159  20.551 -20.551  0.00  0.00    -0.128 NA
ATOM      8  C   UNL d   1      33.182  21.929 -20.630  0.00  0.00     0.228 A 
ATOM      9  S   UNL d   1      33.241  20.202 -23.489  0.00  0.00    -0.068 SA
ATOM     10  C   UNL d   1      33.201  19.033 -22.717  0.00  0.00     0.011 A 
ATOM     11  C   UNL d   1      33.228  19.401 -23.455  0.00  0.00     0.031 A 
ATOM     12  N   UNL d   1      33.157  21.256 -20.103  0.00  0.00    -0.117 NA
ATOM     13  S   UNL d   1      33.190  22.662 -20.525  0.00  0.00    -0.036 SA
ATOM     14  C   UNL d   1      33.188  18.194 -22.683  0.00  0.00     0.001 A 
ATOM     15  C   UNL d   1      33.241  18.917 -24.131  0.00  0.00     0.006 A 
ATOM     16  C   UNL d   1      33.201  17.741 -23.361  0.00  0.00     0.000 A 
ATOM     17  C   UNL d   1      33.228  18.109 -24.099  0.00  0.00     0.001 A 
ENDROOT
BRANCH   6  18
ATOM     18  C   UNL d   1      33.240  22.618 -22.249  0.00  0.00     0.037 C 
ATOM     19  C   UNL d   1      33.212  23.017 -22.774  0.00  0.00     0.003 C 
ENDBRANCH   6  18
TORSDOF 1
ENDMDL
MODEL 5
REMARK VINA RESULT:      -2.2      1.429      3.596
REMARK  1 active torsions:
REMARK  status: ('A' for Active; 'I' for Inactive)
REMARK    1  A    between atoms: C_14  and  C_6 
ROOT
ATOM      1  C   UNL d   1      29.643  16.997 -24.415  0.00  0.00     0.174 A 
ATOM      2  N   UNL d   1      29.245  16.440 -23.954  0.00  0.00    -0.250 N 
ATOM      3  C   UNL d   1      30.447  17.161 -24.296  0.00  0.00     0.061 A 
ATOM      4  C   UNL d   1      30.858  16.758 -23.705  0.00  0.00     0.115 A 
ATOM      5  N   UNL d   1      30.448  16.206 -23.255  0.00  0.00    -0.221 NA
ATOM      6  C   UNL d   1      29.656  16.036 -23.363  0.00  0.00     0.151 A 
ATOM      7  N   UNL d   1      29.061  17.322 -24.983  0.00  0.00    -0.128 NA
ATOM      8  C   UNL d   1      28.405  16.388 -24.208  0.00  0.00     0.228 A 
ATOM      9  S   UNL d   1      31.645  16.924 -23.596  0.00  0.00    -0.068 SA
ATOM     10  C   UNL d   1      31.626  17.869 -24.632  0.00  0.00     0.011 A 
ATOM     11  C   UNL d   1      32.036  17.466 -24.041  0.00  0.00     0.031 A 
ATOM     12  N   UNL d   1      28.327  16.949 -24.848  0.00  0.00    -0.117 NA
ATOM     13  S   UNL d   1      27.936  15.922 -23.873  0.00  0.00    -0.036 SA
ATOM     14  C   UNL d   1      32.036  18.434 -25.097  0.00  0.00     0.001 A 
ATOM     15  C   UNL d   1      32.842  17.643 -23.937  0.00  0.00     0.006 A 
ATOM     16  C   UNL d   1      32.827  18.590 -24.975  0.00  0.00     0.000 A 
ATOM     17  C   UNL d   1      33.238  18.187 -24.384  0.00  0.00     0.001 A 
ENDROOT
BRANCH   6  18
ATOM     18  C   UNL d   1      29.368  15.582 -22.974  0.00  0.00     0.037 C 
ATOM     19  C   UNL d   1      29.404  15.453 -22.328  0.00  0.00     0.003 C 
ENDBRANCH   6  18
TORSDOF 1
ENDMDL
MODEL 6
REMARK VINA RESULT:      -2.2      4.508      5.984
REMARK  1 active torsions:
REMARK  status: ('A' for Active; 'I' for Inactive)
REMARK    1  A    between atoms: C_14  and  C_6 
ROOT
ATOM      1  C   UNL d   1      33.183  19.918 -22.014  0.00  0.00     0.174 A 
ATOM      2  N   UNL d   1      33.194  19.694 -22.808  0.00  0.00    -0.250 N 
ATOM      3  C   UNL d   1      33.197  20.716 -21.790  0.00  0.00     0.061 A 
ATOM      4  C   UNL d   1      33.223  21.298 -22.375  0.00  0.00     0.115 A 
ATOM      5  N   UNL d   1      33.234  21.059 -23.161  0.00  0.00    -0.221 NA
ATOM      6  C   UNL d   1      33.220  20.276 -23.393  0.00  0.00     0.151 A 
ATOM      7  N   UNL d   1      33.155  19.182 -21.540  0.00  0.00    -0.128 NA
ATOM      8  C   UNL d   1      33.175  18.817 -22.870  0.00  0.00     0.228 A 
ATOM      9  S   UNL d   1      33.236  22.078 -22.147  0.00  0.00    -0.068 SA
ATOM     10  C   UNL d   1      33.199  21.719 -20.792  0.00  0.00     0.011 A 
ATOM     11  C   UNL d   1      33.225  22.301 -21.376  0.00  0.00     0.031 A 
ATOM     12  N   UNL d   1      33.151  18.533 -22.065  0.00  0.00    -0.117 NA
ATOM     13  S   UNL d   1      33.181  18.484 -23.532  0.00  0.00    -0.036 SA
ATOM     14  C   UNL d   1      33.187  21.954 -19.987  0.00  0.00     0.001 A 
ATOM     15  C   UNL d   1      33.239  23.096 -21.133  0.00  0.00     0.006 A 
ATOM     16  C   UNL d   1      33.202  22.742 -19.774  0.00  0.00     0.000 A 
ATOM     17  C   UNL d   1      33.228  23.324 -20.358  0.00  0.00     0.001 A 
ENDROOT
BRANCH   6  18
ATOM     18  C   UNL d   1      33.231  20.131 -24.040  0.00  0.00     0.037 C 
ATOM     19  C   UNL d   1      33.212  20.502 -24.586  0.00  0.00     0.003 C 
ENDBRANCH   6  18
TORSDOF 1
ENDMDL
MODEL 7
REMARK VINA RESULT:      -1.8      3.066      4.141
REMARK  1 active torsions:
REMARK  status: ('A' for Active; 'I' for Inactive)
REMARK    1  A    between atoms: C_14  and  C_6 
ROOT
ATOM      1  C   UNL d   1      33.129  19.407 -22.840  0.00  0.00     0.174 A 
ATOM      2  N   UNL d   1      33.176  20.171 -23.147  0.00  0.00    -0.250 N 
ATOM      3  C   UNL d   1      33.105  18.742 -23.336  0.00  0.00     0.061 A 
ATOM      4  C   UNL d   1      33.129  18.849 -24.154  0.00  0.00     0.115 A 
ATOM      5  N   UNL d   1      33.175  19.617 -24.444  0.00  0.00    -0.221 NA
ATOM      6  C   UNL d   1      33.199  20.278 -23.965  0.00  0.00     0.151 A 
ATOM      7  N   UNL d   1      33.114  19.481 -21.967  0.00  0.00    -0.128 NA
ATOM      8  C   UNL d   1      33.191  20.755 -22.490  0.00  0.00     0.228 A 
ATOM      9  S   UNL d   1      33.105  18.194 -24.633  0.00  0.00    -0.068 SA
ATOM     10  C   UNL d   1      33.037  17.341 -23.521  0.00  0.00     0.011 A 
ATOM     11  C   UNL d   1      33.060  17.448 -24.339  0.00  0.00     0.031 A 
ATOM     12  N   UNL d   1      33.152  20.292 -21.773  0.00  0.00    -0.117 NA
ATOM     13  S   UNL d   1      33.232  21.482 -22.630  0.00  0.00    -0.036 SA
ATOM     14  C   UNL d   1      32.989  16.561 -23.216  0.00  0.00     0.001 A 
ATOM     15  C   UNL d   1      33.036  16.771 -24.821  0.00  0.00     0.006 A 
ATOM     16  C   UNL d   1      32.966  15.912 -23.710  0.00  0.00     0.000 A 
ATOM     17  C   UNL d   1      32.990  16.019 -24.528  0.00  0.00     0.001 A 
ENDROOT
BRANCH   6  18
ATOM     18  C   UNL d   1      33.236  20.878 -24.245  0.00  0.00     0.037 C 
ATOM     19  C   UNL d   1      33.232  21.085 -24.872  0.00  0.00     0.003 C 
ENDBRANCH   6  18
TORSDOF 1
ENDMDL
