MODEL 1
REMARK VINA RESULT:      59.9      0.000      0.000
REMARK  3 active torsions:
REMARK  status: ('A' for Active; 'I' for Inactive)
REMARK    1  A    between atoms: C_5  and  C_1 
REMARK    2  A    between atoms: N_8  and  C_5 
REMARK    3  A    between atoms: C_10  and  C_5 
ROOT
ATOM      1  C   UNL d   1      44.907 -14.933  44.280  0.00  0.00     0.067 C 
ENDROOT
BRANCH   1   2
ATOM      2  C   UNL d   1      45.279 -15.644  44.075  0.00  0.00     0.057 A 
ATOM      3  C   UNL d   1      45.161 -15.958  43.324  0.00  0.00     0.214 A 
ATOM      4  C   UNL d   1      45.532 -16.666  43.121  0.00  0.00     0.121 A 
ATOM      5  O   UNL d   1      44.682 -15.580  42.774  0.00  0.00    -0.285 OA
ATOM      6  N   UNL d   1      45.415 -16.983  42.367  0.00  0.00    -0.241 NA
ATOM      7  C   UNL d   1      46.021 -17.058  43.670  0.00  0.00     0.032 A 
ATOM      8  C   UNL d   1      45.785 -17.685  42.170  0.00  0.00     0.099 A 
ATOM      9  C   UNL d   1      46.273 -18.077  42.719  0.00  0.00     0.021 A 
ATOM     10  C   UNL d   1      46.382 -17.759  43.456  0.00  0.00     0.004 A 
ATOM     11  C   UNL d   1      46.136 -16.740  44.421  0.00  0.00     0.059 A 
ATOM     12  C   UNL d   1      45.767 -16.036  44.624  0.00  0.00     0.016 A 
ATOM     13 CL   UNL d   1      46.617 -17.133  44.952  0.00  0.00    -0.082 Cl
ENDBRANCH   1   2
BRANCH   1  14
ATOM     14  N   UNL d   1      44.111 -14.926  44.481  0.00  0.00    -0.304 N 
ATOM     15  C   UNL d   1      43.676 -14.229  44.418  0.00  0.00     0.080 A 
ATOM     16  C   UNL d   1      42.883 -14.211  44.615  0.00  0.00     0.021 A 
ATOM     17  C   UNL d   1      42.943 -15.611  44.950  0.00  0.00     0.021 A 
ATOM     18  C   UNL d   1      43.743 -15.618  44.748  0.00  0.00     0.080 A 
ENDBRANCH   1  14
BRANCH   1  19
ATOM     19  C   UNL d   1      45.344 -14.220  44.283  0.00  0.00     0.016 A 
ATOM     20  C   UNL d   1      45.197 -13.644  43.725  0.00  0.00     0.002 A 
ATOM     21  C   UNL d   1      45.623 -12.943  43.724  0.00  0.00     0.011 A 
ATOM     22  C   UNL d   1      46.212 -12.819  44.300  0.00  0.00     0.058 A 
ATOM     23  C   UNL d   1      46.362 -13.405  44.869  0.00  0.00     0.011 A 
ATOM     24 CL   UNL d   1      46.642 -12.126  44.308  0.00  0.00    -0.082 Cl
ATOM     25  C   UNL d   1      45.922 -14.108  44.856  0.00  0.00     0.002 A 
ENDBRANCH   1  19
TORSDOF 3
ENDMDL
MODEL 2
REMARK VINA RESULT:      62.2      6.292      7.521
REMARK  3 active torsions:
REMARK  status: ('A' for Active; 'I' for Inactive)
REMARK    1  A    between atoms: C_5  and  C_1 
REMARK    2  A    between atoms: N_8  and  C_5 
REMARK    3  A    between atoms: C_10  and  C_5 
ROOT
ATOM      1  C   UNL d   1      44.306 -15.882  37.533  0.00  0.00     0.067 C 
ENDROOT
BRANCH   1   2
ATOM      2  C   UNL d   1      43.536 -15.824  37.234  0.00  0.00     0.057 A 
ATOM      3  C   UNL d   1      43.160 -15.093  37.229  0.00  0.00     0.214 A 
ATOM      4  C   UNL d   1      42.392 -15.037  36.931  0.00  0.00     0.121 A 
ATOM      5  O   UNL d   1      43.533 -14.419  37.515  0.00  0.00    -0.285 OA
ATOM      6  N   UNL d   1      42.013 -14.303  36.926  0.00  0.00    -0.241 NA
ATOM      7  C   UNL d   1      42.004 -15.713  36.639  0.00  0.00     0.032 A 
ATOM      8  C   UNL d   1      41.252 -14.252  36.629  0.00  0.00     0.099 A 
ATOM      9  C   UNL d   1      40.864 -14.928  36.337  0.00  0.00     0.021 A 
ATOM     10  C   UNL d   1      41.244 -15.643  36.346  0.00  0.00     0.004 A 
ATOM     11  C   UNL d   1      42.384 -16.443  36.646  0.00  0.00     0.059 A 
ATOM     12  C   UNL d   1      43.148 -16.501  36.942  0.00  0.00     0.016 A 
ATOM     13 CL   UNL d   1      41.994 -17.100  36.356  0.00  0.00    -0.082 Cl
ENDBRANCH   1   2
BRANCH   1  14
ATOM     14  N   UNL d   1      44.491 -16.456  38.091  0.00  0.00    -0.304 N 
ATOM     15  C   UNL d   1      44.134 -16.439  38.833  0.00  0.00     0.080 A 
ATOM     16  C   UNL d   1      44.310 -17.004  39.396  0.00  0.00     0.021 A 
ATOM     17  C   UNL d   1      45.222 -17.628  38.470  0.00  0.00     0.021 A 
ATOM     18  C   UNL d   1      45.036 -17.052  37.909  0.00  0.00     0.080 A 
ENDBRANCH   1  14
BRANCH   1  19
ATOM     19  C   UNL d   1      44.898 -15.355  37.265  0.00  0.00     0.016 A 
ATOM     20  C   UNL d   1      44.979 -14.619  37.607  0.00  0.00     0.002 A 
ATOM     21  C   UNL d   1      45.557 -14.099  37.348  0.00  0.00     0.011 A 
ATOM     22  C   UNL d   1      46.067 -14.325  36.729  0.00  0.00     0.058 A 
ATOM     23  C   UNL d   1      45.985 -15.075  36.381  0.00  0.00     0.011 A 
ATOM     24 CL   UNL d   1      46.646 -13.816  36.464  0.00  0.00    -0.082 Cl
ATOM     25  C   UNL d   1      45.395 -15.589  36.655  0.00  0.00     0.002 A 
ENDBRANCH   1  19
TORSDOF 3
ENDMDL
