MODEL 1
REMARK VINA RESULT:      45.5      0.000      0.000
REMARK  8 active torsions:
REMARK  status: ('A' for Active; 'I' for Inactive)
REMARK    1  A    between atoms: C_6  and  C_1 
REMARK    2  A    between atoms: C_8  and  N_3 
REMARK    3  A    between atoms: C_7  and  C_6 
REMARK    4  A    between atoms: C_9  and  C_7 
REMARK    5  A    between atoms: C_14  and  C_8 
REMARK    6  A    between atoms: C_17  and  C_14 
REMARK    7  A    between atoms: C_15  and  C_16 
REMARK    8  A    between atoms: C_16  and  C_17 
ROOT
ATOM      1  C   UNL d   1     -57.000 -99.158 -45.108  0.00  0.00     0.148 A 
ATOM      2  N   UNL d   1     -57.188 -99.294 -46.011  0.00  0.00    -0.227 NA
ATOM      3  N   UNL d   1     -57.800 -98.948 -44.695  0.00  0.00    -0.289 N 
ATOM      4  C   UNL d   1     -58.478 -98.951 -45.324  0.00  0.00     0.083 A 
ATOM      5  C   UNL d   1     -58.090 -99.171 -46.157  0.00  0.00     0.099 A 
ATOM      6  C   UNL d   1     -59.392 -98.786 -45.259  0.00  0.00     0.019 A 
ATOM      7  C   UNL d   1     -58.629 -99.218 -46.900  0.00  0.00     0.021 A 
ATOM      8  C   UNL d   1     -59.909 -98.841 -46.019  0.00  0.00     0.002 A 
ATOM      9  C   UNL d   1     -59.522 -99.060 -46.852  0.00  0.00     0.002 A 
ENDROOT
BRANCH   1  10
ATOM     10  C   UNL d   1     -56.540 -99.119 -44.481  0.00  0.00     0.037 C 
BRANCH  10  11
ATOM     11  C   UNL d   1     -55.737 -99.271 -44.491  0.00  0.00     0.003 C 
BRANCH  11  12
ATOM     12  C   UNL d   1     -55.401 -99.978 -44.217  0.00  0.00     0.000 A 
ATOM     13  C   UNL d   1     -55.275-100.611 -44.719  0.00  0.00     0.000 A 
ATOM     14  C   UNL d   1     -54.942-101.308 -44.443  0.00  0.00     0.000 A 
ATOM     15  C   UNL d   1     -54.729-101.371 -43.640  0.00  0.00     0.000 A 
ATOM     16  C   UNL d   1     -54.856-100.736 -43.137  0.00  0.00     0.000 A 
ATOM     17  C   UNL d   1     -55.188-100.041 -43.414  0.00  0.00     0.000 A 
ENDBRANCH  11  12
ENDBRANCH  10  11
ENDBRANCH   1  10
BRANCH   3  18
ATOM     18  C   UNL d   1     -58.449 -98.758 -44.258  0.00  0.00     0.082 C 
BRANCH  18  19
ATOM     19  C   UNL d   1     -58.507 -99.004 -43.479  0.00  0.00     0.019 C 
BRANCH  19  20
ATOM     20  C   UNL d   1     -59.211 -99.295 -43.186  0.00  0.00     0.002 C 
BRANCH  20  21
ATOM     21  C   UNL d   1     -59.665 -98.854 -42.657  0.00  0.00     0.000 C 
BRANCH  21  22
ATOM     22  C   UNL d   1     -59.534 -98.896 -41.846  0.00  0.00     0.000 C 
ATOM     23  C   UNL d   1     -59.823 -99.527 -41.400  0.00  0.00     0.000 C 
ENDBRANCH  21  22
ENDBRANCH  20  21
ENDBRANCH  19  20
ENDBRANCH  18  19
ENDBRANCH   3  18
TORSDOF 8
ENDMDL
