MODEL 1
REMARK VINA RESULT:      -0.3      0.000      0.000
REMARK  8 active torsions:
REMARK  status: ('A' for Active; 'I' for Inactive)
REMARK    1  A    between atoms: N_5  and  C_1 
REMARK    2  A    between atoms: N_8  and  C_3 
REMARK    3  A    between atoms: C_17  and  N_8 
REMARK    4  A    between atoms: C_28  and  N_9 
REMARK    5  A    between atoms: C_10  and  C_17 
REMARK    6  A    between atoms: C_20  and  O_27 
REMARK    7  A    between atoms: O_27  and  C_29 
REMARK    8  A    between atoms: C_29  and  C_28 
ROOT
ATOM      1  C   UNL d   1      58.721  -0.050  30.408  0.00  0.00     0.737 A 
ATOM      2  N   UNL d   1      58.441  -0.519  29.814  0.00  0.00    -0.041 NA
ATOM      3  C   UNL d   1      58.901  -0.690  29.182  0.00  0.00     0.182 A 
ATOM      4  N   UNL d   1      59.469   0.248  30.365  0.00  0.00    -0.060 NA
ATOM      5  C   UNL d   1      59.648  -0.394  29.136  0.00  0.00     0.055 A 
ATOM      6  C   UNL d   1      59.935   0.073  29.721  0.00  0.00     0.103 A 
ATOM      7  C   UNL d   1      60.107  -0.568  28.500  0.00  0.00     0.005 A 
ATOM      8  C   UNL d   1      60.682   0.368  29.674  0.00  0.00     0.020 A 
ATOM      9  C   UNL d   1      60.844  -0.276  28.455  0.00  0.00     0.000 A 
ATOM     10  C   UNL d   1      61.131   0.191  29.041  0.00  0.00     0.002 A 
ENDROOT
BRANCH   1  11
ATOM     11  N   UNL d   1      58.253   0.127  31.057  0.00  0.00    -0.134 N 
ATOM     12  C   UNL d   1      58.521  -0.053  31.828  0.00  0.00     0.117 A 
ATOM     13  C   UNL d   1      58.049   0.127  32.479  0.00  0.00     0.100 A 
ATOM     14  N   UNL d   1      57.310   0.485  32.376  0.00  0.00    -0.298 N 
ATOM     15  C   UNL d   1      57.041   0.665  31.605  0.00  0.00     0.100 A 
ATOM     16  C   UNL d   1      57.517   0.484  30.952  0.00  0.00     0.117 A 
BRANCH  14  17
ATOM     17  C   UNL d   1      56.838   0.664  33.027  0.00  0.00     0.107 C 
BRANCH  17  18
ATOM     18  C   UNL d   1      56.322   0.098  33.340  0.00  0.00     0.142 C 
BRANCH  18  19
ATOM     19  O   UNL d   1      56.020   0.177  34.112  0.00  0.00    -0.304 OA
BRANCH  19  20
ATOM     20  C   UNL d   1      55.217   0.300  34.242  0.00  0.00     0.100 A 
ATOM     21  C   UNL d   1      54.949   0.555  34.988  0.00  0.00     0.025 A 
ATOM     22  C   UNL d   1      54.143   0.678  35.114  0.00  0.00     0.002 A 
ATOM     23  C   UNL d   1      53.594   0.548  34.499  0.00  0.00     0.000 A 
ATOM     24  C   UNL d   1      53.862   0.293  33.753  0.00  0.00     0.002 A 
ATOM     25  C   UNL d   1      52.780   0.673  34.630  0.00  0.00     0.000 C 
ATOM     26  C   UNL d   1      54.681   0.169  33.629  0.00  0.00     0.025 A 
ENDBRANCH  19  20
ENDBRANCH  18  19
ENDBRANCH  17  18
ENDBRANCH  14  17
ENDBRANCH   1  11
BRANCH   3  27
ATOM     27  N   UNL d   1      58.617  -1.151  28.604  0.00  0.00    -0.223 NA
BRANCH  27  28
ATOM     28  C   UNL d   1      58.455  -1.891  28.737  0.00  0.00     0.125 C 
BRANCH  28  29
ATOM     29  C   UNL d   1      58.699  -2.759  28.700  0.00  0.00     0.119 A 
ATOM     30  O   UNL d   1      59.512  -3.404  28.693  0.00  0.00    -0.304 OA
ATOM     31  C   UNL d   1      59.133  -4.411  28.627  0.00  0.00     0.123 A 
ATOM     32  C   UNL d   1      58.343  -4.061  28.619  0.00  0.00     0.029 A 
ATOM     33  C   UNL d   1      58.151  -3.378  28.649  0.00  0.00     0.028 A 
ENDBRANCH  28  29
ENDBRANCH  27  28
ENDBRANCH   3  27
TORSDOF 8
ENDMDL
