MODEL 1
REMARK VINA RESULT:      72.4      0.000      0.000
REMARK  3 active torsions:
REMARK  status: ('A' for Active; 'I' for Inactive)
REMARK    1  A    between atoms: C_15  and  N_1 
REMARK       I    between atoms: C_6  and  N_7 
REMARK    2  A    between atoms: C_11  and  C_6 
REMARK    3  A    between atoms: N_7  and  C_8 
ROOT
ATOM      1  N   UNL d   1      56.890  49.255  50.653  0.00  0.00    -0.273 N 
ATOM      2  C   UNL d   1      56.726  49.225  51.710  0.00  0.00     0.265 A 
ATOM      3  C   UNL d   1      57.703  49.370  50.597  0.00  0.00     0.067 A 
ATOM      4  C   UNL d   1      57.994  49.405  51.368  0.00  0.00     0.022 A 
ATOM      5  C   UNL d   1      57.487  49.330  51.991  0.00  0.00     0.058 A 
ATOM      6  C   UNL d   1      59.305  49.593  50.852  0.00  0.00     0.084 A 
ATOM      7  C   UNL d   1      58.795  49.517  51.496  0.00  0.00     0.019 A 
ATOM      8  C   UNL d   1      58.213  49.446  49.953  0.00  0.00     0.019 A 
ATOM      9  O   UNL d   1      56.094  49.132  52.231  0.00  0.00    -0.267 OA
ATOM     10  C   UNL d   1      59.014  49.558  50.080  0.00  0.00     0.021 A 
ATOM     11  C   UNL d   1      57.777  49.365  52.762  0.00  0.00     0.005 A 
ATOM     12  C   UNL d   1      59.088  49.553  52.246  0.00  0.00     0.002 A 
ATOM     13  C   UNL d   1      58.578  49.477  52.889  0.00  0.00     0.000 A 
ENDROOT
BRANCH   6  14
ATOM     14  N   UNL d   1      60.105  49.705  50.980  0.00  0.00    -0.212 NA
ATOM     15  C   UNL d   1      60.654  49.253  50.561  0.00  0.00     0.255 C 
ATOM     16  O   UNL d   1      60.396  48.703  50.030  0.00  0.00    -0.270 OA
BRANCH  15  17
ATOM     17  C   UNL d   1      61.454  49.364  50.689  0.00  0.00     0.073 C 
ATOM     18  C   UNL d   1      61.781  49.183  51.424  0.00  0.00     0.009 C 
ATOM     19  C   UNL d   1      61.929  49.657  50.081  0.00  0.00     0.009 C 
ATOM     20  C   UNL d   1      62.374  49.495  50.826  0.00  0.00     0.009 C 
ENDBRANCH  15  17
ENDBRANCH   6  14
BRANCH   1  21
ATOM     21  C   UNL d   1      56.449  49.198  49.944  0.00  0.00     0.083 C 
ATOM     22  C   UNL d   1      56.462  48.513  49.528  0.00  0.00     0.021 C 
ENDBRANCH   1  21
TORSDOF 3
ENDMDL
