MODEL 1
REMARK VINA RESULT:      -5.0      0.000      0.000
REMARK  5 active torsions:
REMARK  status: ('A' for Active; 'I' for Inactive)
REMARK    1  A    between atoms: N_2  and  C_7 
REMARK    2  A    between atoms: N_6  and  C_3 
REMARK    3  A    between atoms: N_8  and  N_6 
REMARK    4  A    between atoms: C_15  and  N_8 
REMARK    5  A    between atoms: C_16  and  C_15 
ROOT
ATOM      1  C   UNL d   1      56.030  -0.036  32.822  0.00  0.00     0.127 A 
ATOM      2  C   UNL d   1      56.265   0.679  32.487  0.00  0.00     0.024 A 
ATOM      3  C   UNL d   1      56.308  -0.741  32.492  0.00  0.00     0.024 A 
ATOM      4  C   UNL d   1      57.041  -0.005  31.510  0.00  0.00     0.021 A 
ATOM      5  C   UNL d   1      56.814  -0.719  31.835  0.00  0.00     0.003 A 
ATOM      6  C   UNL d   1      56.769   0.682  31.834  0.00  0.00     0.003 A 
ENDROOT
BRANCH   4   7
ATOM      7  C   UNL d   1      57.545   0.016  30.856  0.00  0.00     0.122 C 
BRANCH   7   8
ATOM      8  N   UNL d   1      57.772  -0.682  30.495  0.00  0.00    -0.144 NA
BRANCH   8   9
ATOM      9  N   UNL d   1      58.130  -0.654  29.727  0.00  0.00    -0.121 NA
BRANCH   9  10
ATOM     10  C   UNL d   1      58.542  -1.336  29.468  0.00  0.00     0.217 A 
ATOM     11  N   UNL d   1      58.217  -2.069  29.460  0.00  0.00    -0.181 NA
ATOM     12  C   UNL d   1      58.784  -2.605  29.171  0.00  0.00     0.288 A 
ATOM     13  O   UNL d   1      58.634  -3.427  29.087  0.00  0.00    -0.265 OA
ATOM     14  C   UNL d   1      59.460  -2.198  29.000  0.00  0.00     0.101 A 
ATOM     15  S   UNL d   1      59.307  -1.402  29.187  0.00  0.00    -0.041 SA
ENDBRANCH   9  10
ENDBRANCH   8   9
ENDBRANCH   7   8
ENDBRANCH   4   7
BRANCH   1  16
ATOM     16  N   UNL d   1      55.544  -0.071  33.454  0.00  0.00    -0.114 N 
ATOM     17  O   UNL d   1      55.756   0.176  34.218  0.00  0.00    -0.532 OA
ATOM     18  O   UNL d   1      54.785  -0.343  33.462  0.00  0.00    -0.532 OA
ENDBRANCH   1  16
TORSDOF 5
ENDMDL
MODEL 2
REMARK VINA RESULT:      -4.5      2.201      4.693
REMARK  5 active torsions:
REMARK  status: ('A' for Active; 'I' for Inactive)
REMARK    1  A    between atoms: N_2  and  C_7 
REMARK    2  A    between atoms: N_6  and  C_3 
REMARK    3  A    between atoms: N_8  and  N_6 
REMARK    4  A    between atoms: C_15  and  N_8 
REMARK    5  A    between atoms: C_16  and  C_15 
ROOT
ATOM      1  C   UNL d   1      59.961  -0.284  29.253  0.00  0.00     0.127 A 
ATOM      2  C   UNL d   1      59.251  -0.640  29.035  0.00  0.00     0.024 A 
ATOM      3  C   UNL d   1      59.949   0.308  29.830  0.00  0.00     0.024 A 
ATOM      4  C   UNL d   1      58.531   0.174  29.954  0.00  0.00     0.021 A 
ATOM      5  C   UNL d   1      59.230   0.533  30.177  0.00  0.00     0.003 A 
ATOM      6  C   UNL d   1      58.545  -0.403  29.391  0.00  0.00     0.003 A 
ENDROOT
BRANCH   4   7
ATOM      7  C   UNL d   1      57.816   0.399  30.300  0.00  0.00     0.122 C 
BRANCH   7   8
ATOM      8  N   UNL d   1      57.528  -0.015  30.945  0.00  0.00    -0.144 NA
BRANCH   8   9
ATOM      9  N   UNL d   1      56.804   0.234  31.307  0.00  0.00    -0.121 NA
BRANCH   9  10
ATOM     10  C   UNL d   1      56.556  -0.174  31.996  0.00  0.00     0.217 A 
ATOM     11  N   UNL d   1      56.423  -0.965  32.015  0.00  0.00    -0.181 NA
ATOM     12  C   UNL d   1      56.186  -1.174  32.784  0.00  0.00     0.288 A 
ATOM     13  O   UNL d   1      56.000  -1.961  33.007  0.00  0.00    -0.265 OA
ATOM     14  C   UNL d   1      56.175  -0.507  33.240  0.00  0.00     0.101 A 
ATOM     15  S   UNL d   1      56.407   0.120  32.744  0.00  0.00    -0.041 SA
ENDBRANCH   9  10
ENDBRANCH   8   9
ENDBRANCH   7   8
ENDBRANCH   4   7
BRANCH   1  16
ATOM     16  N   UNL d   1      60.659  -0.491  28.927  0.00  0.00    -0.114 N 
ATOM     17  O   UNL d   1      61.018  -1.232  29.030  0.00  0.00    -0.532 OA
ATOM     18  O   UNL d   1      61.124  -0.032  28.455  0.00  0.00    -0.532 OA
ENDBRANCH   1  16
TORSDOF 5
ENDMDL
MODEL 3
REMARK VINA RESULT:      -4.1      1.483      4.978
REMARK  5 active torsions:
REMARK  status: ('A' for Active; 'I' for Inactive)
REMARK    1  A    between atoms: N_2  and  C_7 
REMARK    2  A    between atoms: N_6  and  C_3 
REMARK    3  A    between atoms: N_8  and  N_6 
REMARK    4  A    between atoms: C_15  and  N_8 
REMARK    5  A    between atoms: C_16  and  C_15 
ROOT
ATOM      1  C   UNL d   1      59.856  -2.762  28.858  0.00  0.00     0.127 A 
ATOM      2  C   UNL d   1      59.036  -2.841  28.891  0.00  0.00     0.024 A 
ATOM      3  C   UNL d   1      60.194  -2.038  29.070  0.00  0.00     0.024 A 
ATOM      4  C   UNL d   1      58.899  -1.498  29.340  0.00  0.00     0.021 A 
ATOM      5  C   UNL d   1      59.710  -1.409  29.311  0.00  0.00     0.003 A 
ATOM      6  C   UNL d   1      58.570  -2.205  29.133  0.00  0.00     0.003 A 
ENDROOT
BRANCH   4   7
ATOM      7  C   UNL d   1      58.417  -0.871  29.580  0.00  0.00     0.122 C 
BRANCH   7   8
ATOM      8  N   UNL d   1      58.082  -0.878  30.326  0.00  0.00    -0.144 NA
BRANCH   8   9
ATOM      9  N   UNL d   1      57.498  -0.296  30.522  0.00  0.00    -0.121 NA
BRANCH   9  10
ATOM     10  C   UNL d   1      57.180  -0.315  31.298  0.00  0.00     0.217 A 
ATOM     11  N   UNL d   1      56.715  -0.910  31.568  0.00  0.00    -0.181 NA
ATOM     12  C   UNL d   1      56.504  -0.743  32.355  0.00  0.00     0.288 A 
ATOM     13  O   UNL d   1      56.018  -1.249  32.815  0.00  0.00    -0.265 OA
ATOM     14  C   UNL d   1      56.842  -0.041  32.568  0.00  0.00     0.101 A 
ATOM     15  S   UNL d   1      57.265   0.227  31.904  0.00  0.00    -0.041 SA
ENDBRANCH   9  10
ENDBRANCH   8   9
ENDBRANCH   7   8
ENDBRANCH   4   7
BRANCH   1  16
ATOM     16  N   UNL d   1      60.332  -3.359  28.629  0.00  0.00    -0.114 N 
ATOM     17  O   UNL d   1      60.066  -4.126  28.455  0.00  0.00    -0.532 OA
ATOM     18  O   UNL d   1      61.131  -3.325  28.528  0.00  0.00    -0.532 OA
ENDBRANCH   1  16
TORSDOF 5
ENDMDL
MODEL 4
REMARK VINA RESULT:      -3.6      8.495      9.742
REMARK  5 active torsions:
REMARK  status: ('A' for Active; 'I' for Inactive)
REMARK    1  A    between atoms: N_2  and  C_7 
REMARK    2  A    between atoms: N_6  and  C_3 
REMARK    3  A    between atoms: N_8  and  N_6 
REMARK    4  A    between atoms: C_15  and  N_8 
REMARK    5  A    between atoms: C_16  and  C_15 
ROOT
ATOM      1  C   UNL d   1      58.680  -9.795  31.519  0.00  0.00     0.127 A 
ATOM      2  C   UNL d   1      58.075  -9.758  32.079  0.00  0.00     0.024 A 
ATOM      3  C   UNL d   1      59.463  -9.817  31.782  0.00  0.00     0.024 A 
ATOM      4  C   UNL d   1      59.022  -9.766  33.140  0.00  0.00     0.021 A 
ATOM      5  C   UNL d   1      59.628  -9.803  32.595  0.00  0.00     0.003 A 
ATOM      6  C   UNL d   1      58.258  -9.744  32.883  0.00  0.00     0.003 A 
ENDROOT
BRANCH   4   7
ATOM      7  C   UNL d   1      59.187  -9.752  33.950  0.00  0.00     0.122 C 
BRANCH   7   8
ATOM      8  N   UNL d   1      59.495  -9.074  34.290  0.00  0.00    -0.144 NA
BRANCH   8   9
ATOM      9  N   UNL d   1      59.534  -9.016  35.134  0.00  0.00    -0.121 NA
BRANCH   9  10
ATOM     10  C   UNL d   1      59.852  -8.311  35.459  0.00  0.00     0.217 A 
ATOM     11  N   UNL d   1      59.403  -7.676  35.656  0.00  0.00    -0.181 NA
ATOM     12  C   UNL d   1      59.904  -7.085  35.958  0.00  0.00     0.288 A 
ATOM     13  O   UNL d   1      59.623  -6.339  36.221  0.00  0.00    -0.265 OA
ATOM     14  C   UNL d   1      60.663  -7.359  35.946  0.00  0.00     0.101 A 
ATOM     15  S   UNL d   1      60.629  -8.129  35.633  0.00  0.00    -0.041 SA
ENDBRANCH   9  10
ENDBRANCH   8   9
ENDBRANCH   7   8
ENDBRANCH   4   7
BRANCH   1  16
ATOM     16  N   UNL d   1      58.534  -9.809  30.735  0.00  0.00    -0.114 N 
ATOM     17  O   UNL d   1      59.126  -9.818  30.153  0.00  0.00    -0.532 OA
ATOM     18  O   UNL d   1      57.810  -9.818  30.381  0.00  0.00    -0.532 OA
ENDBRANCH   1  16
TORSDOF 5
ENDMDL
MODEL 5
REMARK VINA RESULT:      -2.3      8.307      8.865
REMARK  5 active torsions:
REMARK  status: ('A' for Active; 'I' for Inactive)
REMARK    1  A    between atoms: N_2  and  C_7 
REMARK    2  A    between atoms: N_6  and  C_3 
REMARK    3  A    between atoms: N_8  and  N_6 
REMARK    4  A    between atoms: C_15  and  N_8 
REMARK    5  A    between atoms: C_16  and  C_15 
ROOT
ATOM      1  C   UNL d   1      60.168  -6.542  36.028  0.00  0.00     0.127 A 
ATOM      2  C   UNL d   1      60.803  -7.061  36.110  0.00  0.00     0.024 A 
ATOM      3  C   UNL d   1      59.439  -6.841  35.780  0.00  0.00     0.024 A 
ATOM      4  C   UNL d   1      59.993  -8.156  35.702  0.00  0.00     0.021 A 
ATOM      5  C   UNL d   1      59.357  -7.650  35.617  0.00  0.00     0.003 A 
ATOM      6  C   UNL d   1      60.703  -7.863  35.944  0.00  0.00     0.003 A 
ENDROOT
BRANCH   4   7
ATOM      7  C   UNL d   1      59.911  -8.962  35.540  0.00  0.00     0.122 C 
BRANCH   7   8
ATOM      8  N   UNL d   1      59.568  -9.203  34.837  0.00  0.00    -0.144 NA
BRANCH   8   9
ATOM      9  N   UNL d   1      59.950  -9.803  34.375  0.00  0.00    -0.121 NA
BRANCH   9  10
ATOM     10  C   UNL d   1      59.801  -9.807  33.549  0.00  0.00     0.217 A 
ATOM     11  N   UNL d   1      60.384  -9.804  32.998  0.00  0.00    -0.181 NA
ATOM     12  C   UNL d   1      60.032  -9.810  32.244  0.00  0.00     0.288 A 
ATOM     13  O   UNL d   1      60.477  -9.809  31.532  0.00  0.00    -0.265 OA
ATOM     14  C   UNL d   1      59.230  -9.817  32.335  0.00  0.00     0.101 A 
ATOM     15  S   UNL d   1      59.086  -9.815  33.154  0.00  0.00    -0.041 SA
ENDBRANCH   9  10
ENDBRANCH   8   9
ENDBRANCH   7   8
ENDBRANCH   4   7
BRANCH   1  16
ATOM     16  N   UNL d   1      60.234  -5.761  36.181  0.00  0.00    -0.114 N 
ATOM     17  O   UNL d   1      60.955  -5.353  36.213  0.00  0.00    -0.532 OA
ATOM     18  O   UNL d   1      59.629  -5.248  36.327  0.00  0.00    -0.532 OA
ENDBRANCH   1  16
TORSDOF 5
ENDMDL
MODEL 6
REMARK VINA RESULT:      -2.2      8.861      9.132
REMARK  5 active torsions:
REMARK  status: ('A' for Active; 'I' for Inactive)
REMARK    1  A    between atoms: N_2  and  C_7 
REMARK    2  A    between atoms: N_6  and  C_3 
REMARK    3  A    between atoms: N_8  and  N_6 
REMARK    4  A    between atoms: C_15  and  N_8 
REMARK    5  A    between atoms: C_16  and  C_15 
ROOT
ATOM      1  C   UNL d   1      60.213  -8.701  34.286  0.00  0.00     0.127 A 
ATOM      2  C   UNL d   1      60.444  -9.162  33.643  0.00  0.00     0.024 A 
ATOM      3  C   UNL d   1      59.406  -8.616  34.444  0.00  0.00     0.024 A 
ATOM      4  C   UNL d   1      59.086  -9.445  33.325  0.00  0.00     0.021 A 
ATOM      5  C   UNL d   1      58.847  -8.990  33.960  0.00  0.00     0.003 A 
ATOM      6  C   UNL d   1      59.873  -9.527  33.172  0.00  0.00     0.003 A 
ENDROOT
BRANCH   4   7
ATOM      7  C   UNL d   1      58.528  -9.818  32.843  0.00  0.00     0.122 C 
BRANCH   7   8
ATOM      8  N   UNL d   1      58.452  -9.592  32.060  0.00  0.00    -0.144 NA
BRANCH   8   9
ATOM      9  N   UNL d   1      57.748  -9.801  31.636  0.00  0.00    -0.121 NA
BRANCH   9  10
ATOM     10  C   UNL d   1      57.766  -9.733  30.801  0.00  0.00     0.217 A 
ATOM     11  N   UNL d   1      58.435  -9.818  30.368  0.00  0.00    -0.181 NA
ATOM     12  C   UNL d   1      58.244  -9.715  29.565  0.00  0.00     0.288 A 
ATOM     13  O   UNL d   1      58.812  -9.766  28.949  0.00  0.00    -0.265 OA
ATOM     14  C   UNL d   1      57.452  -9.567  29.506  0.00  0.00     0.101 A 
ATOM     15  S   UNL d   1      57.153  -9.579  30.283  0.00  0.00    -0.041 SA
ENDBRANCH   9  10
ENDBRANCH   8   9
ENDBRANCH   7   8
ENDBRANCH   4   7
BRANCH   1  16
ATOM     16  N   UNL d   1      60.740  -8.336  34.759  0.00  0.00    -0.114 N 
ATOM     17  O   UNL d   1      61.128  -8.703  35.394  0.00  0.00    -0.532 OA
ATOM     18  O   UNL d   1      60.983  -7.568  34.706  0.00  0.00    -0.532 OA
ENDBRANCH   1  16
TORSDOF 5
ENDMDL
