MODEL 1
REMARK VINA RESULT:      26.8      0.000      0.000
REMARK  4 active torsions:
REMARK  status: ('A' for Active; 'I' for Inactive)
REMARK    1  A    between atoms: C_17  and  C_4 
REMARK    2  A    between atoms: C_6  and  C_8 
REMARK       I    between atoms: C_8  and  N_16 
REMARK    3  A    between atoms: N_16  and  C_18 
REMARK    4  A    between atoms: C_18  and  C_17 
ROOT
ATOM      1  C   UNL d   1      15.449  12.914  -1.067  0.00  0.00     0.042 C 
ENDROOT
BRANCH   1   2
ATOM      2  C   UNL d   1      14.849  12.637  -1.568  0.00  0.00     0.103 A 
ATOM      3  N   UNL d   1      14.862  12.629  -2.395  0.00  0.00    -0.221 NA
ATOM      4  C   UNL d   1      14.145  12.303  -2.662  0.00  0.00     0.179 A 
ATOM      5  N   UNL d   1      13.690  12.110  -1.997  0.00  0.00    -0.282 N 
ATOM      6  S   UNL d   1      13.714  12.099  -3.334  0.00  0.00    -0.048 SA
ATOM      7  C   UNL d   1      14.129  12.319  -1.322  0.00  0.00     0.101 A 
ATOM      8  C   UNL d   1      12.981  11.788  -2.261  0.00  0.00     0.089 A 
ATOM      9  C   UNL d   1      12.992  11.780  -3.084  0.00  0.00     0.057 A 
ENDBRANCH   1   2
BRANCH   1  10
ATOM     10  C   UNL d   1      15.282  13.516  -0.525  0.00  0.00     0.104 C 
BRANCH  10  11
ATOM     11  N   UNL d   1      15.485  14.305  -0.701  0.00  0.00    -0.206 NA
ATOM     12  C   UNL d   1      14.999  14.924  -0.446  0.00  0.00     0.285 C 
ATOM     13  O   UNL d   1      14.313  14.760  -0.015  0.00  0.00    -0.265 OA
BRANCH  12  14
ATOM     14  C   UNL d   1      15.200  15.705  -0.620  0.00  0.00     0.087 A 
ATOM     15  S   UNL d   1      15.733  16.182  -0.192  0.00  0.00    -0.082 SA
ATOM     16  C   UNL d   1      15.765  16.918  -0.562  0.00  0.00     0.036 A 
ATOM     17  C   UNL d   1      15.250  16.891  -1.218  0.00  0.00     0.008 A 
ATOM     18  C   UNL d   1      14.915  16.149  -1.241  0.00  0.00     0.012 A 
ENDBRANCH  12  14
ENDBRANCH  10  11
ENDBRANCH   1  10
TORSDOF 4
ENDMDL
MODEL 2
REMARK VINA RESULT:      27.0      1.953      2.343
REMARK  4 active torsions:
REMARK  status: ('A' for Active; 'I' for Inactive)
REMARK    1  A    between atoms: C_17  and  C_4 
REMARK    2  A    between atoms: C_6  and  C_8 
REMARK       I    between atoms: C_8  and  N_16 
REMARK    3  A    between atoms: N_16  and  C_18 
REMARK    4  A    between atoms: C_18  and  C_17 
ROOT
ATOM      1  C   UNL d   1      15.551  14.677  -0.050  0.00  0.00     0.042 C 
ENDROOT
BRANCH   1   2
ATOM      2  C   UNL d   1      15.130  13.963  -0.049  0.00  0.00     0.103 A 
ATOM      3  N   UNL d   1      15.453  13.202  -0.081  0.00  0.00    -0.221 NA
ATOM      4  C   UNL d   1      14.826  12.654  -0.067  0.00  0.00     0.179 A 
ATOM      5  N   UNL d   1      14.117  13.081  -0.028  0.00  0.00    -0.282 N 
ATOM      6  S   UNL d   1      14.641  11.852  -0.079  0.00  0.00    -0.048 SA
ATOM      7  C   UNL d   1      14.310  13.890  -0.017  0.00  0.00     0.101 A 
ATOM      8  C   UNL d   1      13.498  12.540  -0.014  0.00  0.00     0.089 A 
ATOM      9  C   UNL d   1      13.817  11.782  -0.046  0.00  0.00     0.057 A 
ENDBRANCH   1   2
BRANCH   1  10
ATOM     10  C   UNL d   1      15.170  15.374  -0.280  0.00  0.00     0.104 C 
BRANCH  10  11
ATOM     11  N   UNL d   1      15.082  15.555  -1.089  0.00  0.00    -0.206 NA
ATOM     12  C   UNL d   1      15.092  16.343  -1.341  0.00  0.00     0.285 C 
ATOM     13  O   UNL d   1      15.188  16.951  -0.789  0.00  0.00    -0.265 OA
BRANCH  12  14
ATOM     14  C   UNL d   1      15.006  16.522  -2.142  0.00  0.00     0.087 A 
ATOM     15  S   UNL d   1      14.857  17.276  -2.462  0.00  0.00    -0.082 SA
ATOM     16  C   UNL d   1      14.813  17.197  -3.282  0.00  0.00     0.036 A 
ATOM     17  C   UNL d   1      14.934  16.392  -3.462  0.00  0.00     0.008 A 
ATOM     18  C   UNL d   1      15.050  15.994  -2.761  0.00  0.00     0.012 A 
ENDBRANCH  12  14
ENDBRANCH  10  11
ENDBRANCH   1  10
TORSDOF 4
ENDMDL
