MODEL 1
REMARK VINA RESULT:      -5.7      0.000      0.000
REMARK  4 active torsions:
REMARK  status: ('A' for Active; 'I' for Inactive)
REMARK    1  A    between atoms: C_4  and  S_1 
REMARK    2  A    between atoms: N_5  and  S_1 
REMARK    3  A    between atoms: C_3  and  C_12 
REMARK    4  A    between atoms: C_12  and  N_5 
ROOT
ATOM      1  S   UNL d   1      57.803  -0.021  30.940  0.00  0.00     0.285 S 
ATOM      2  O   UNL d   1      57.317  -0.447  30.427  0.00  0.00    -0.198 OA
ATOM      3  O   UNL d   1      58.305   0.413  31.455  0.00  0.00    -0.198 OA
ENDROOT
BRANCH   1   4
ATOM      4  C   UNL d   1      57.215  -0.026  31.515  0.00  0.00     0.105 A 
ATOM      5  C   UNL d   1      56.929  -0.754  31.809  0.00  0.00     0.013 A 
ATOM      6  C   UNL d   1      56.338  -0.733  32.386  0.00  0.00     0.001 A 
ATOM      7  C   UNL d   1      56.055  -1.460  32.677  0.00  0.00     0.000 A 
ATOM      8  C   UNL d   1      56.036  -0.022  32.667  0.00  0.00     0.000 A 
ATOM      9  C   UNL d   1      55.464  -1.452  33.255  0.00  0.00     0.000 A 
ATOM     10  C   UNL d   1      55.159  -0.742  33.539  0.00  0.00     0.000 A 
ATOM     11  C   UNL d   1      55.452  -0.029  33.238  0.00  0.00     0.000 A 
ATOM     12  C   UNL d   1      56.326   0.677  32.370  0.00  0.00     0.001 A 
ATOM     13  C   UNL d   1      56.914   0.681  31.795  0.00  0.00     0.013 A 
ENDBRANCH   1   4
BRANCH   1  14
ATOM     14  N   UNL d   1      58.406  -0.012  30.362  0.00  0.00    -0.155 NA
BRANCH  14  15
ATOM     15  C   UNL d   1      58.389  -0.537  29.729  0.00  0.00     0.132 C 
BRANCH  15  16
ATOM     16  C   UNL d   1      59.082  -0.696  29.294  0.00  0.00     0.108 A 
ATOM     17  N   UNL d   1      59.492  -1.407  29.294  0.00  0.00    -0.237 NA
ATOM     18  C   UNL d   1      60.149  -1.326  28.784  0.00  0.00     0.111 A 
ATOM     19  C   UNL d   1      60.717  -1.912  28.618  0.00  0.00     0.028 C 
ATOM     20  S   UNL d   1      60.130  -0.560  28.479  0.00  0.00    -0.066 SA
ATOM     21  C   UNL d   1      59.469  -0.170  28.794  0.00  0.00     0.058 A 
ENDBRANCH  15  16
ENDBRANCH  14  15
ENDBRANCH   1  14
TORSDOF 4
ENDMDL
MODEL 2
REMARK VINA RESULT:      -5.6      1.061      1.398
REMARK  4 active torsions:
REMARK  status: ('A' for Active; 'I' for Inactive)
REMARK    1  A    between atoms: C_4  and  S_1 
REMARK    2  A    between atoms: N_5  and  S_1 
REMARK    3  A    between atoms: C_3  and  C_12 
REMARK    4  A    between atoms: C_12  and  N_5 
ROOT
ATOM      1  S   UNL d   1      57.121  -0.140  31.495  0.00  0.00     0.285 S 
ATOM      2  O   UNL d   1      57.250   0.655  31.315  0.00  0.00    -0.198 OA
ATOM      3  O   UNL d   1      56.992  -0.951  31.670  0.00  0.00    -0.198 OA
ENDROOT
BRANCH   1   4
ATOM      4  C   UNL d   1      56.850   0.065  32.244  0.00  0.00     0.105 A 
ATOM      5  C   UNL d   1      56.030   0.041  32.409  0.00  0.00     0.013 A 
ATOM      6  C   UNL d   1      55.782   0.251  33.168  0.00  0.00     0.001 A 
ATOM      7  C   UNL d   1      54.966   0.226  33.329  0.00  0.00     0.000 A 
ATOM      8  C   UNL d   1      56.318   0.479  33.749  0.00  0.00     0.000 A 
ATOM      9  C   UNL d   1      54.705   0.434  34.085  0.00  0.00     0.000 A 
ATOM     10  C   UNL d   1      55.238   0.662  34.669  0.00  0.00     0.000 A 
ATOM     11  C   UNL d   1      56.046   0.682  34.492  0.00  0.00     0.000 A 
ATOM     12  C   UNL d   1      57.111   0.497  33.571  0.00  0.00     0.001 A 
ATOM     13  C   UNL d   1      57.382   0.292  32.823  0.00  0.00     0.013 A 
ENDBRANCH   1   4
BRANCH   1  14
ATOM     14  N   UNL d   1      57.394  -0.357  30.737  0.00  0.00    -0.155 NA
BRANCH  14  15
ATOM     15  C   UNL d   1      58.030   0.034  30.392  0.00  0.00     0.132 C 
BRANCH  15  16
ATOM     16  C   UNL d   1      58.385  -0.265  29.699  0.00  0.00     0.108 A 
ATOM     17  N   UNL d   1      58.607  -1.045  29.576  0.00  0.00    -0.237 NA
ATOM     18  C   UNL d   1      58.938  -1.103  28.811  0.00  0.00     0.111 A 
ATOM     19  C   UNL d   1      59.237  -1.793  28.456  0.00  0.00     0.028 C 
ATOM     20  S   UNL d   1      58.912  -0.349  28.477  0.00  0.00    -0.066 SA
ATOM     21  C   UNL d   1      58.570   0.169  29.026  0.00  0.00     0.058 A 
ENDBRANCH  15  16
ENDBRANCH  14  15
ENDBRANCH   1  14
TORSDOF 4
ENDMDL
MODEL 3
REMARK VINA RESULT:      -4.8      1.372      4.891
REMARK  4 active torsions:
REMARK  status: ('A' for Active; 'I' for Inactive)
REMARK    1  A    between atoms: C_4  and  S_1 
REMARK    2  A    between atoms: N_5  and  S_1 
REMARK    3  A    between atoms: C_3  and  C_12 
REMARK    4  A    between atoms: C_12  and  N_5 
ROOT
ATOM      1  S   UNL d   1      57.740  -0.133  30.545  0.00  0.00     0.285 S 
ATOM      2  O   UNL d   1      57.795   0.678  30.688  0.00  0.00    -0.198 OA
ATOM      3  O   UNL d   1      57.676  -0.959  30.406  0.00  0.00    -0.198 OA
ENDROOT
BRANCH   1   4
ATOM      4  C   UNL d   1      58.379  -0.094  30.029  0.00  0.00     0.105 A 
ATOM      5  C   UNL d   1      59.092   0.264  30.279  0.00  0.00     0.013 A 
ATOM      6  C   UNL d   1      59.720   0.291  29.744  0.00  0.00     0.001 A 
ATOM      7  C   UNL d   1      60.429   0.649  29.995  0.00  0.00     0.000 A 
ATOM      8  C   UNL d   1      59.654  -0.022  28.987  0.00  0.00     0.000 A 
ATOM      9  C   UNL d   1      61.064   0.682  29.468  0.00  0.00     0.000 A 
ATOM     10  C   UNL d   1      61.002   0.370  28.710  0.00  0.00     0.000 A 
ATOM     11  C   UNL d   1      60.290   0.018  28.476  0.00  0.00     0.000 A 
ATOM     12  C   UNL d   1      58.954  -0.367  28.760  0.00  0.00     0.001 A 
ATOM     13  C   UNL d   1      58.314  -0.406  29.275  0.00  0.00     0.013 A 
ENDBRANCH   1   4
BRANCH   1  14
ATOM     14  N   UNL d   1      57.090  -0.182  31.067  0.00  0.00    -0.155 NA
BRANCH  14  15
ATOM     15  C   UNL d   1      57.188  -0.462  31.835  0.00  0.00     0.132 C 
BRANCH  15  16
ATOM     16  C   UNL d   1      56.544  -0.479  32.364  0.00  0.00     0.108 A 
ATOM     17  N   UNL d   1      56.183   0.179  32.694  0.00  0.00    -0.237 NA
ATOM     18  C   UNL d   1      55.565  -0.086  33.190  0.00  0.00     0.111 A 
ATOM     19  C   UNL d   1      55.052   0.394  33.636  0.00  0.00     0.028 C 
ATOM     20  S   UNL d   1      55.559  -0.910  33.153  0.00  0.00    -0.066 SA
ATOM     21  C   UNL d   1      56.165  -1.153  32.642  0.00  0.00     0.058 A 
ENDBRANCH  15  16
ENDBRANCH  14  15
ENDBRANCH   1  14
TORSDOF 4
ENDMDL
MODEL 4
REMARK VINA RESULT:      -4.5      1.513      4.711
REMARK  4 active torsions:
REMARK  status: ('A' for Active; 'I' for Inactive)
REMARK    1  A    between atoms: C_4  and  S_1 
REMARK    2  A    between atoms: N_5  and  S_1 
REMARK    3  A    between atoms: C_3  and  C_12 
REMARK    4  A    between atoms: C_12  and  N_5 
ROOT
ATOM      1  S   UNL d   1      57.532   0.090  31.057  0.00  0.00     0.285 S 
ATOM      2  O   UNL d   1      56.950  -0.471  30.895  0.00  0.00    -0.198 OA
ATOM      3  O   UNL d   1      58.120   0.664  31.229  0.00  0.00    -0.198 OA
ENDROOT
BRANCH   1   4
ATOM      4  C   UNL d   1      57.986  -0.187  30.429  0.00  0.00     0.105 A 
ATOM      5  C   UNL d   1      58.128  -1.007  30.352  0.00  0.00     0.013 A 
ATOM      6  C   UNL d   1      58.587  -1.262  29.713  0.00  0.00     0.001 A 
ATOM      7  C   UNL d   1      58.727  -2.079  29.639  0.00  0.00     0.000 A 
ATOM      8  C   UNL d   1      58.896  -0.731  29.167  0.00  0.00     0.000 A 
ATOM      9  C   UNL d   1      59.184  -2.346  29.004  0.00  0.00     0.000 A 
ATOM     10  C   UNL d   1      59.496  -1.818  28.455  0.00  0.00     0.000 A 
ATOM     11  C   UNL d   1      59.346  -1.009  28.544  0.00  0.00     0.000 A 
ATOM     12  C   UNL d   1      58.748   0.063  29.257  0.00  0.00     0.001 A 
ATOM     13  C   UNL d   1      58.294   0.340  29.885  0.00  0.00     0.013 A 
ENDBRANCH   1   4
BRANCH   1  14
ATOM     14  N   UNL d   1      57.079   0.378  31.696  0.00  0.00    -0.155 NA
BRANCH  14  15
ATOM     15  C   UNL d   1      56.727  -0.141  32.229  0.00  0.00     0.132 C 
BRANCH  15  16
ATOM     16  C   UNL d   1      56.326   0.150  32.899  0.00  0.00     0.108 A 
ATOM     17  N   UNL d   1      55.512   0.169  32.997  0.00  0.00    -0.237 NA
ATOM     18  C   UNL d   1      55.348   0.502  33.745  0.00  0.00     0.111 A 
ATOM     19  C   UNL d   1      54.594   0.627  34.073  0.00  0.00     0.028 C 
ATOM     20  S   UNL d   1      56.073   0.682  34.096  0.00  0.00    -0.066 SA
ATOM     21  C   UNL d   1      56.678   0.464  33.573  0.00  0.00     0.058 A 
ENDBRANCH  15  16
ENDBRANCH  14  15
ENDBRANCH   1  14
TORSDOF 4
ENDMDL
MODEL 5
REMARK VINA RESULT:      -2.9      9.473     10.111
REMARK  4 active torsions:
REMARK  status: ('A' for Active; 'I' for Inactive)
REMARK    1  A    between atoms: C_4  and  S_1 
REMARK    2  A    between atoms: N_5  and  S_1 
REMARK    3  A    between atoms: C_3  and  C_12 
REMARK    4  A    between atoms: C_12  and  N_5 
ROOT
ATOM      1  S   UNL d   1      59.065  -9.817  32.553  0.00  0.00     0.285 S 
ATOM      2  O   UNL d   1      58.277  -9.817  32.799  0.00  0.00    -0.198 OA
ATOM      3  O   UNL d   1      59.869  -9.817  32.312  0.00  0.00    -0.198 OA
ENDROOT
BRANCH   1   4
ATOM      4  C   UNL d   1      58.828  -9.816  31.765  0.00  0.00     0.105 A 
ATOM      5  C   UNL d   1      58.013  -9.816  31.578  0.00  0.00     0.013 A 
ATOM      6  C   UNL d   1      57.799  -9.816  30.780  0.00  0.00     0.001 A 
ATOM      7  C   UNL d   1      56.987  -9.816  30.597  0.00  0.00     0.000 A 
ATOM      8  C   UNL d   1      58.365  -9.815  30.183  0.00  0.00     0.000 A 
ATOM      9  C   UNL d   1      56.761  -9.815  29.802  0.00  0.00     0.000 A 
ATOM     10  C   UNL d   1      57.324  -9.815  29.201  0.00  0.00     0.000 A 
ATOM     11  C   UNL d   1      58.127  -9.815  29.401  0.00  0.00     0.000 A 
ATOM     12  C   UNL d   1      59.153  -9.815  30.383  0.00  0.00     0.001 A 
ATOM     13  C   UNL d   1      59.390  -9.816  31.170  0.00  0.00     0.013 A 
ENDBRANCH   1   4
BRANCH   1  14
ATOM     14  N   UNL d   1      59.315  -9.818  33.349  0.00  0.00    -0.155 NA
BRANCH  14  15
ATOM     15  C   UNL d   1      59.109  -9.201  33.855  0.00  0.00     0.132 C 
BRANCH  15  16
ATOM     16  C   UNL d   1      59.438  -9.155  34.619  0.00  0.00     0.108 A 
ATOM     17  N   UNL d   1      59.777  -8.486  34.953  0.00  0.00    -0.237 NA
ATOM     18  C   UNL d   1      60.034  -8.682  35.722  0.00  0.00     0.111 A 
ATOM     19  C   UNL d   1      60.410  -8.170  36.261  0.00  0.00     0.028 C 
ATOM     20  S   UNL d   1      59.846  -9.476  35.848  0.00  0.00    -0.066 SA
ATOM     21  C   UNL d   1      59.477  -9.768  35.166  0.00  0.00     0.058 A 
ENDBRANCH  15  16
ENDBRANCH  14  15
ENDBRANCH   1  14
TORSDOF 4
ENDMDL
