MODEL 1
REMARK VINA RESULT:      32.8      0.000      0.000
REMARK  4 active torsions:
REMARK  status: ('A' for Active; 'I' for Inactive)
REMARK    1  A    between atoms: C_5  and  C_1 
REMARK       I    between atoms: N_7  and  C_5 
REMARK    2  A    between atoms: C_9  and  N_7 
REMARK    3  A    between atoms: C_8  and  C_9 
REMARK    4  A    between atoms: O_13  and  C_11 
ROOT
ATOM      1  C   UNL d   1     -56.713 -99.169 -44.189  0.00  0.00     0.299 C 
ATOM      2  N   UNL d   1     -56.237 -99.704 -43.769  0.00  0.00    -0.205 NA
ATOM      3  O   UNL d   1     -56.402 -98.757 -44.830  0.00  0.00    -0.263 OA
ENDROOT
BRANCH   1   4
ATOM      4  C   UNL d   1     -57.502 -99.049 -43.961  0.00  0.00     0.162 A 
ATOM      5  N   UNL d   1     -57.774 -98.997 -43.186  0.00  0.00    -0.143 NA
ATOM      6  N   UNL d   1     -58.601 -98.876 -43.205  0.00  0.00    -0.148 NA
ATOM      7  C   UNL d   1     -58.827 -98.856 -44.011  0.00  0.00     0.105 A 
ATOM      8  C   UNL d   1     -58.146 -98.964 -44.475  0.00  0.00     0.044 A 
ATOM      9  C   UNL d   1     -59.557 -98.755 -44.366  0.00  0.00     0.021 A 
ATOM     10  C   UNL d   1     -58.214 -98.967 -45.297  0.00  0.00     0.003 A 
ATOM     11  C   UNL d   1     -58.941 -98.867 -45.650  0.00  0.00     0.000 A 
ATOM     12  C   UNL d   1     -59.612 -98.761 -45.189  0.00  0.00     0.002 A 
ENDBRANCH   1   4
BRANCH   2  13
ATOM     13  C   UNL d   1     -55.452 -99.822 -43.998  0.00  0.00     0.104 C 
BRANCH  13  14
ATOM     14  C   UNL d   1     -55.204-100.540 -44.315  0.00  0.00     0.042 A 
ATOM     15  C   UNL d   1     -55.058-101.188 -43.817  0.00  0.00     0.096 A 
ATOM     16  C   UNL d   1     -54.814-101.895 -44.142  0.00  0.00     0.024 A 
ATOM     17  C   UNL d   1     -54.711-101.970 -44.957  0.00  0.00     0.002 A 
ATOM     18  C   UNL d   1     -54.852-101.338 -45.456  0.00  0.00     0.000 A 
ATOM     19  C   UNL d   1     -55.102-100.612 -45.137  0.00  0.00     0.004 A 
BRANCH  15  20
ATOM     20  O   UNL d   1     -55.158-101.124 -42.998  0.00  0.00    -0.328 OA
ATOM     21  C   UNL d   1     -54.712-101.574 -42.477  0.00  0.00     0.181 C 
ENDBRANCH  15  20
ENDBRANCH  13  14
ENDBRANCH   2  13
TORSDOF 4
ENDMDL
