MODEL 1
REMARK VINA RESULT:      -2.8      0.000      0.000
REMARK  3 active torsions:
REMARK  status: ('A' for Active; 'I' for Inactive)
REMARK    1  A    between atoms: C_11  and  C_4 
REMARK    2  A    between atoms: N_14  and  C_7 
REMARK    3  A    between atoms: C_10  and  C_12 
ROOT
ATOM      1  C   UNL d   1     -41.476-122.482 -52.482  0.00  0.00     0.186 A 
ATOM      2  N   UNL d   1     -41.374-123.110 -51.953  0.00  0.00    -0.193 N 
ATOM      3  N   UNL d   1     -41.505-121.700 -52.196  0.00  0.00    -0.204 NA
ATOM      4  C   UNL d   1     -41.531-122.796 -53.244  0.00  0.00     0.140 A 
ATOM      5  N   UNL d   1     -41.366-123.817 -52.388  0.00  0.00    -0.058 NA
ATOM      6  N   UNL d   1     -41.463-123.622 -53.189  0.00  0.00    -0.127 NA
ATOM      7  C   UNL d   1     -41.432-121.545 -51.374  0.00  0.00     0.188 A 
ATOM      8  C   UNL d   1     -41.331-122.183 -50.854  0.00  0.00     0.056 A 
ATOM      9  C   UNL d   1     -41.301-122.967 -51.136  0.00  0.00     0.089 A 
ATOM     10  C   UNL d   1     -41.258-122.037 -50.043  0.00  0.00     0.005 A 
ATOM     11  C   UNL d   1     -41.200-123.586 -50.609  0.00  0.00     0.019 A 
ATOM     12  C   UNL d   1     -41.156-122.664 -49.519  0.00  0.00     0.000 A 
ATOM     13  C   UNL d   1     -41.127-123.439 -49.802  0.00  0.00     0.002 A 
ENDROOT
BRANCH   4  14
ATOM     14  C   UNL d   1     -41.636-122.360 -53.939  0.00  0.00     0.022 A 
ATOM     15  C   UNL d   1     -42.259-122.543 -54.445  0.00  0.00     0.005 A 
ATOM     16  C   UNL d   1     -42.368-122.114 -55.136  0.00  0.00     0.071 A 
ATOM     17  C   UNL d   1     -41.854-121.498 -55.326  0.00  0.00     0.004 A 
ATOM     18  C   UNL d   1     -41.225-121.316 -54.811  0.00  0.00    -0.000 A 
ATOM     19  C   UNL d   1     -41.123-121.749 -54.124  0.00  0.00     0.002 A 
BRANCH  16  20
ATOM     20  C   UNL d   1     -42.992-122.297 -55.643  0.00  0.00     0.419 C 
ATOM     21  F   UNL d   1     -43.583-122.503 -56.181  0.00  0.00    -0.166 F 
ATOM     22  F   UNL d   1     -43.534-121.929 -55.152  0.00  0.00    -0.166 F 
ATOM     23  F   UNL d   1     -42.445-122.673 -56.148  0.00  0.00    -0.166 F 
ENDBRANCH  16  20
ENDBRANCH   4  14
BRANCH   7  24
ATOM     24  N   UNL d   1     -41.461-120.771 -51.091  0.00  0.00    -0.108 NA
ATOM     25  N   UNL d   1     -41.124-120.155 -51.536  0.00  0.00    -0.021 N 
ENDBRANCH   7  24
TORSDOF 3
ENDMDL
MODEL 2
REMARK VINA RESULT:      -2.6      2.261      4.196
REMARK  3 active torsions:
REMARK  status: ('A' for Active; 'I' for Inactive)
REMARK    1  A    between atoms: C_11  and  C_4 
REMARK    2  A    between atoms: N_14  and  C_7 
REMARK    3  A    between atoms: C_10  and  C_12 
ROOT
ATOM      1  C   UNL d   1     -41.707-122.669 -52.723  0.00  0.00     0.186 A 
ATOM      2  N   UNL d   1     -41.483-123.123 -53.377  0.00  0.00    -0.193 N 
ATOM      3  N   UNL d   1     -42.085-121.935 -52.838  0.00  0.00    -0.204 NA
ATOM      4  C   UNL d   1     -41.488-123.078 -52.040  0.00  0.00     0.140 A 
ATOM      5  N   UNL d   1     -41.123-123.817 -53.099  0.00  0.00    -0.058 NA
ATOM      6  N   UNL d   1     -41.126-123.790 -52.270  0.00  0.00    -0.127 NA
ATOM      7  C   UNL d   1     -42.239-121.653 -53.614  0.00  0.00     0.188 A 
ATOM      8  C   UNL d   1     -42.009-122.119 -54.261  0.00  0.00     0.056 A 
ATOM      9  C   UNL d   1     -41.631-122.853 -54.151  0.00  0.00     0.089 A 
ATOM     10  C   UNL d   1     -42.159-121.846 -55.028  0.00  0.00     0.005 A 
ATOM     11  C   UNL d   1     -41.411-123.299 -54.801  0.00  0.00     0.019 A 
ATOM     12  C   UNL d   1     -41.934-122.301 -55.677  0.00  0.00     0.000 A 
ATOM     13  C   UNL d   1     -41.560-123.028 -55.564  0.00  0.00     0.002 A 
ENDROOT
BRANCH   4  14
ATOM     14  C   UNL d   1     -41.610-122.821 -51.264  0.00  0.00     0.022 A 
ATOM     15  C   UNL d   1     -42.222-123.145 -50.818  0.00  0.00     0.005 A 
ATOM     16  C   UNL d   1     -42.348-122.894 -50.046  0.00  0.00     0.071 A 
ATOM     17  C   UNL d   1     -41.862-122.315 -49.716  0.00  0.00     0.004 A 
ATOM     18  C   UNL d   1     -41.244-121.990 -50.169  0.00  0.00    -0.000 A 
ATOM     19  C   UNL d   1     -41.125-122.246 -50.938  0.00  0.00     0.002 A 
BRANCH  16  20
ATOM     20  C   UNL d   1     -42.960-123.218 -49.601  0.00  0.00     0.419 C 
ATOM     21  F   UNL d   1     -43.604-123.507 -49.174  0.00  0.00    -0.166 F 
ATOM     22  F   UNL d   1     -42.463-123.783 -49.280  0.00  0.00    -0.166 F 
ATOM     23  F   UNL d   1     -43.473-122.645 -49.924  0.00  0.00    -0.166 F 
ENDBRANCH  16  20
ENDBRANCH   4  14
BRANCH   7  24
ATOM     24  N   UNL d   1     -42.614-120.927 -53.728  0.00  0.00    -0.108 NA
ATOM     25  N   UNL d   1     -42.264-120.232 -53.435  0.00  0.00    -0.021 N 
ENDBRANCH   7  24
TORSDOF 3
ENDMDL
MODEL 3
REMARK VINA RESULT:      -0.6      2.278      4.551
REMARK  3 active torsions:
REMARK  status: ('A' for Active; 'I' for Inactive)
REMARK    1  A    between atoms: C_11  and  C_4 
REMARK    2  A    between atoms: N_14  and  C_7 
REMARK    3  A    between atoms: C_10  and  C_12 
ROOT
ATOM      1  C   UNL d   1     -41.661-122.333 -52.626  0.00  0.00     0.186 A 
ATOM      2  N   UNL d   1     -41.530-121.662 -53.091  0.00  0.00    -0.193 N 
ATOM      3  N   UNL d   1     -41.890-123.049 -52.985  0.00  0.00    -0.204 NA
ATOM      4  C   UNL d   1     -41.525-122.128 -51.837  0.00  0.00     0.140 A 
ATOM      5  N   UNL d   1     -41.311-121.037 -52.591  0.00  0.00    -0.058 NA
ATOM      6  N   UNL d   1     -41.308-121.326 -51.813  0.00  0.00    -0.127 NA
ATOM      7  C   UNL d   1     -41.988-123.094 -53.819  0.00  0.00     0.188 A 
ATOM      8  C   UNL d   1     -41.854-122.414 -54.274  0.00  0.00     0.056 A 
ATOM      9  C   UNL d   1     -41.625-121.696 -53.918  0.00  0.00     0.089 A 
ATOM     10  C   UNL d   1     -41.949-122.452 -55.095  0.00  0.00     0.005 A 
ATOM     11  C   UNL d   1     -41.496-121.034 -54.383  0.00  0.00     0.019 A 
ATOM     12  C   UNL d   1     -41.817-121.782 -55.556  0.00  0.00     0.000 A 
ATOM     13  C   UNL d   1     -41.591-121.073 -55.200  0.00  0.00     0.002 A 
ENDROOT
BRANCH   4  14
ATOM     14  C   UNL d   1     -41.594-122.636 -51.188  0.00  0.00     0.022 A 
ATOM     15  C   UNL d   1     -42.138-122.467 -50.594  0.00  0.00     0.005 A 
ATOM     16  C   UNL d   1     -42.211-122.967 -49.947  0.00  0.00     0.071 A 
ATOM     17  C   UNL d   1     -41.739-123.640 -49.890  0.00  0.00     0.004 A 
ATOM     18  C   UNL d   1     -41.189-123.808 -50.493  0.00  0.00    -0.000 A 
ATOM     19  C   UNL d   1     -41.123-123.304 -51.135  0.00  0.00     0.002 A 
BRANCH  16  20
ATOM     20  C   UNL d   1     -42.756-122.797 -49.353  0.00  0.00     0.419 C 
ATOM     21  F   UNL d   1     -43.263-122.608 -48.730  0.00  0.00    -0.166 F 
ATOM     22  F   UNL d   1     -43.370-123.120 -49.787  0.00  0.00    -0.166 F 
ATOM     23  F   UNL d   1     -42.135-122.467 -48.904  0.00  0.00    -0.166 F 
ENDBRANCH  16  20
ENDBRANCH   4  14
BRANCH   7  24
ATOM     24  N   UNL d   1     -42.215-123.803 -54.175  0.00  0.00    -0.108 NA
ATOM     25  N   UNL d   1     -42.869-123.817 -54.686  0.00  0.00    -0.021 N 
ENDBRANCH   7  24
TORSDOF 3
ENDMDL
