MODEL 1
REMARK VINA RESULT:      -7.5      0.000      0.000
REMARK  3 active torsions:
REMARK  status: ('A' for Active; 'I' for Inactive)
REMARK    1  A    between atoms: N_3  and  C_1 
REMARK    2  A    between atoms: N_6  and  N_2 
REMARK    3  A    between atoms: S_5  and  N_6 
ROOT
ATOM      1  C   UNL d   1     -48.568  11.827  22.896  0.00  0.00     0.771 A 
ATOM      2  N   UNL d   1     -47.879  12.261  23.046  0.00  0.00    -0.026 N 
ATOM      3  N   UNL d   1     -48.433  11.050  23.129  0.00  0.00     0.048 NA
ATOM      4  C   UNL d   1     -47.323  11.754  23.369  0.00  0.00     0.204 A 
ATOM      5  N   UNL d   1     -47.664  11.003  23.422  0.00  0.00    -0.112 NA
ATOM      6  C   UNL d   1     -46.560  11.955  23.601  0.00  0.00     0.044 C 
ENDROOT
BRANCH   1   7
ATOM      7  N   UNL d   1     -49.266  12.131  22.568  0.00  0.00    -0.056 N 
ATOM      8  N   UNL d   1     -49.351  12.464  21.816  0.00  0.00    -0.150 NA
ATOM      9  C   UNL d   1     -50.139  12.690  21.725  0.00  0.00     0.103 A 
ATOM     10  C   UNL d   1     -50.470  13.048  21.055  0.00  0.00     0.022 C 
ATOM     11  C   UNL d   1     -50.539  12.499  22.416  0.00  0.00     0.041 A 
ATOM     12  C   UNL d   1     -50.002  12.153  22.939  0.00  0.00     0.102 A 
ATOM     13  C   UNL d   1     -50.174  11.879  23.698  0.00  0.00     0.021 C 
ENDBRANCH   1   7
BRANCH   2  14
ATOM     14  N   UNL d   1     -47.776  13.066  22.893  0.00  0.00    -0.059 NA
BRANCH  14  15
ATOM     15  S   UNL d   1     -47.008  13.372  22.787  0.00  0.00     0.282 S 
ATOM     16  O   UNL d   1     -46.891  13.024  22.058  0.00  0.00    -0.201 OA
ATOM     17  O   UNL d   1     -47.136  13.720  23.527  0.00  0.00    -0.201 OA
ATOM     18  C   UNL d   1     -46.265  13.708  22.757  0.00  0.00     0.167 C 
ENDBRANCH  14  15
ENDBRANCH   2  14
TORSDOF 3
ENDMDL
MODEL 2
REMARK VINA RESULT:      -7.3      1.144      2.069
REMARK  3 active torsions:
REMARK  status: ('A' for Active; 'I' for Inactive)
REMARK    1  A    between atoms: N_3  and  C_1 
REMARK    2  A    between atoms: N_6  and  N_2 
REMARK    3  A    between atoms: S_5  and  N_6 
ROOT
ATOM      1  C   UNL d   1     -48.559  13.724  22.769  0.00  0.00     0.771 A 
ATOM      2  N   UNL d   1     -47.740  13.667  22.881  0.00  0.00    -0.026 N 
ATOM      3  N   UNL d   1     -48.742  14.512  22.624  0.00  0.00     0.048 NA
ATOM      4  C   UNL d   1     -47.421  14.418  22.806  0.00  0.00     0.204 A 
ATOM      5  N   UNL d   1     -48.039  14.944  22.647  0.00  0.00    -0.112 NA
ATOM      6  C   UNL d   1     -46.625  14.615  22.876  0.00  0.00     0.044 C 
ENDROOT
BRANCH   1   7
ATOM      7  N   UNL d   1     -49.093  13.090  22.798  0.00  0.00    -0.056 N 
ATOM      8  N   UNL d   1     -49.218  12.583  23.439  0.00  0.00    -0.150 NA
ATOM      9  C   UNL d   1     -49.797  12.037  23.224  0.00  0.00     0.103 A 
ATOM     10  C   UNL d   1     -50.093  11.426  23.698  0.00  0.00     0.022 C 
ATOM     11  C   UNL d   1     -50.030  12.206  22.454  0.00  0.00     0.041 A 
ATOM     12  C   UNL d   1     -49.597  12.856  22.189  0.00  0.00     0.102 A 
ATOM     13  C   UNL d   1     -49.658  13.208  21.445  0.00  0.00     0.021 C 
ENDBRANCH   1   7
BRANCH   2  14
ATOM     14  N   UNL d   1     -47.325  12.973  23.040  0.00  0.00    -0.059 NA
BRANCH  14  15
ATOM     15  S   UNL d   1     -46.509  12.932  22.874  0.00  0.00     0.282 S 
ATOM     16  O   UNL d   1     -46.599  12.925  22.063  0.00  0.00    -0.201 OA
ATOM     17  O   UNL d   1     -46.428  12.939  23.698  0.00  0.00    -0.201 OA
ATOM     18  C   UNL d   1     -45.697  12.893  22.795  0.00  0.00     0.167 C 
ENDBRANCH  14  15
ENDBRANCH   2  14
TORSDOF 3
ENDMDL
MODEL 3
REMARK VINA RESULT:      -7.2      1.503      3.014
REMARK  3 active torsions:
REMARK  status: ('A' for Active; 'I' for Inactive)
REMARK    1  A    between atoms: N_3  and  C_1 
REMARK    2  A    between atoms: N_6  and  N_2 
REMARK    3  A    between atoms: S_5  and  N_6 
ROOT
ATOM      1  C   UNL d   1     -48.554  12.670  22.479  0.00  0.00     0.771 A 
ATOM      2  N   UNL d   1     -49.165  13.201  22.653  0.00  0.00    -0.026 N 
ATOM      3  N   UNL d   1     -48.880  12.035  22.071  0.00  0.00     0.048 NA
ATOM      4  C   UNL d   1     -49.864  12.894  22.354  0.00  0.00     0.204 A 
ATOM      5  N   UNL d   1     -49.690  12.172  21.993  0.00  0.00    -0.112 NA
ATOM      6  C   UNL d   1     -50.607  13.243  22.404  0.00  0.00     0.044 C 
ENDROOT
BRANCH   1   7
ATOM      7  N   UNL d   1     -47.757  12.769  22.683  0.00  0.00    -0.056 N 
ATOM      8  N   UNL d   1     -47.235  13.326  22.366  0.00  0.00    -0.150 NA
ATOM      9  C   UNL d   1     -46.502  13.225  22.730  0.00  0.00     0.103 A 
ATOM     10  C   UNL d   1     -45.817  13.665  22.580  0.00  0.00     0.022 C 
ATOM     11  C   UNL d   1     -46.571  12.609  23.270  0.00  0.00     0.041 A 
ATOM     12  C   UNL d   1     -47.345  12.326  23.243  0.00  0.00     0.102 A 
ATOM     13  C   UNL d   1     -47.650  11.708  23.697  0.00  0.00     0.021 C 
ENDBRANCH   1   7
BRANCH   2  14
ATOM     14  N   UNL d   1     -49.078  13.915  23.059  0.00  0.00    -0.059 NA
BRANCH  14  15
ATOM     15  S   UNL d   1     -49.618  14.535  22.922  0.00  0.00     0.282 S 
ATOM     16  O   UNL d   1     -49.370  14.681  22.159  0.00  0.00    -0.201 OA
ATOM     17  O   UNL d   1     -49.862  14.380  23.698  0.00  0.00    -0.201 OA
ATOM     18  C   UNL d   1     -50.174  15.131  22.867  0.00  0.00     0.167 C 
ENDBRANCH  14  15
ENDBRANCH   2  14
TORSDOF 3
ENDMDL
MODEL 4
REMARK VINA RESULT:      -6.8      1.750      2.191
REMARK  3 active torsions:
REMARK  status: ('A' for Active; 'I' for Inactive)
REMARK    1  A    between atoms: N_3  and  C_1 
REMARK    2  A    between atoms: N_6  and  N_2 
REMARK    3  A    between atoms: S_5  and  N_6 
ROOT
ATOM      1  C   UNL d   1     -49.228  13.709  22.200  0.00  0.00     0.771 A 
ATOM      2  N   UNL d   1     -48.436  13.522  22.351  0.00  0.00    -0.026 N 
ATOM      3  N   UNL d   1     -49.434  13.378  21.476  0.00  0.00     0.048 NA
ATOM      4  C   UNL d   1     -48.155  13.077  21.722  0.00  0.00     0.204 A 
ATOM      5  N   UNL d   1     -48.771  12.987  21.179  0.00  0.00    -0.112 NA
ATOM      6  C   UNL d   1     -47.394  12.775  21.645  0.00  0.00     0.044 C 
ENDROOT
BRANCH   1   7
ATOM      7  N   UNL d   1     -49.721  14.153  22.698  0.00  0.00    -0.056 N 
ATOM      8  N   UNL d   1     -49.652  14.960  22.864  0.00  0.00    -0.150 NA
ATOM      9  C   UNL d   1     -50.258  15.166  23.384  0.00  0.00     0.103 A 
ATOM     10  C   UNL d   1     -50.398  15.921  23.696  0.00  0.00     0.022 C 
ATOM     11  C   UNL d   1     -50.699  14.491  23.539  0.00  0.00     0.041 A 
ATOM     12  C   UNL d   1     -50.369  13.863  23.117  0.00  0.00     0.102 A 
ATOM     13  C   UNL d   1     -50.642  13.084  23.116  0.00  0.00     0.021 C 
ENDBRANCH   1   7
BRANCH   2  14
ATOM     14  N   UNL d   1     -48.009  13.746  23.020  0.00  0.00    -0.059 NA
BRANCH  14  15
ATOM     15  S   UNL d   1     -47.177  13.779  22.988  0.00  0.00     0.282 S 
ATOM     16  O   UNL d   1     -47.148  14.468  22.551  0.00  0.00    -0.201 OA
ATOM     17  O   UNL d   1     -47.216  13.081  23.431  0.00  0.00    -0.201 OA
ATOM     18  C   UNL d   1     -46.361  13.741  23.001  0.00  0.00     0.167 C 
ENDBRANCH  14  15
ENDBRANCH   2  14
TORSDOF 3
ENDMDL
