MODEL 1
REMARK VINA RESULT:      -4.9      0.000      0.000
REMARK  4 active torsions:
REMARK  status: ('A' for Active; 'I' for Inactive)
REMARK    1  A    between atoms: C_7  and  C_3 
REMARK    2  A    between atoms: S_6  and  C_7 
REMARK    3  A    between atoms: C_9  and  S_6 
REMARK    4  A    between atoms: C_8  and  C_9 
ROOT
ATOM      1  N   UNL d   1      56.948   0.449  31.715  0.00  0.00    -0.225 NA
ATOM      2  N   UNL d   1      57.000  -0.905  31.583  0.00  0.00    -0.225 NA
ATOM      3  C   UNL d   1      57.300  -0.181  31.285  0.00  0.00     0.169 A 
ATOM      4  C   UNL d   1      56.433   0.105  32.275  0.00  0.00     0.101 A 
ATOM      5  C   UNL d   1      56.459  -0.727  32.200  0.00  0.00     0.101 A 
ATOM      6  C   UNL d   1      55.937   0.452  32.851  0.00  0.00     0.021 A 
ATOM      7  C   UNL d   1      55.989  -1.194  32.703  0.00  0.00     0.021 A 
ATOM      8  C   UNL d   1      55.507  -0.845  33.263  0.00  0.00     0.002 A 
ATOM      9  C   UNL d   1      55.480  -0.021  33.337  0.00  0.00     0.002 A 
ENDROOT
BRANCH   3  10
ATOM     10  C   UNL d   1      57.762   0.293  30.793  0.00  0.00     0.074 C 
BRANCH  10  11
ATOM     11  S   UNL d   1      58.349  -0.049  30.325  0.00  0.00    -0.083 SA
BRANCH  11  12
ATOM     12  C   UNL d   1      58.794   0.421  29.814  0.00  0.00     0.035 C 
BRANCH  12  13
ATOM     13  C   UNL d   1      59.472   0.115  29.458  0.00  0.00     0.006 A 
ATOM     14  C   UNL d   1      59.397  -0.396  28.811  0.00  0.00     0.001 A 
ATOM     15  C   UNL d   1      60.075  -0.702  28.455  0.00  0.00     0.000 A 
ATOM     16  C   UNL d   1      60.819  -0.498  28.745  0.00  0.00     0.000 A 
ATOM     17  C   UNL d   1      60.886   0.012  29.392  0.00  0.00     0.000 A 
ATOM     18  C   UNL d   1      60.208   0.319  29.748  0.00  0.00     0.001 A 
ENDBRANCH  12  13
ENDBRANCH  11  12
ENDBRANCH  10  11
ENDBRANCH   3  10
TORSDOF 4
ENDMDL
MODEL 2
REMARK VINA RESULT:      -4.7      0.961      4.798
REMARK  4 active torsions:
REMARK  status: ('A' for Active; 'I' for Inactive)
REMARK    1  A    between atoms: C_7  and  C_3 
REMARK    2  A    between atoms: S_6  and  C_7 
REMARK    3  A    between atoms: C_9  and  S_6 
REMARK    4  A    between atoms: C_8  and  C_9 
ROOT
ATOM      1  N   UNL d   1      58.995   0.435  30.371  0.00  0.00    -0.225 NA
ATOM      2  N   UNL d   1      58.261  -0.433  29.622  0.00  0.00    -0.225 NA
ATOM      3  C   UNL d   1      58.240   0.078  30.286  0.00  0.00     0.169 A 
ATOM      4  C   UNL d   1      59.476   0.139  29.755  0.00  0.00     0.101 A 
ATOM      5  C   UNL d   1      59.032  -0.395  29.291  0.00  0.00     0.101 A 
ATOM      6  C   UNL d   1      60.273   0.293  29.558  0.00  0.00     0.021 A 
ATOM      7  C   UNL d   1      59.394  -0.764  28.640  0.00  0.00     0.021 A 
ATOM      8  C   UNL d   1      60.175  -0.607  28.455  0.00  0.00     0.002 A 
ATOM      9  C   UNL d   1      60.615  -0.078  28.914  0.00  0.00     0.002 A 
ENDROOT
BRANCH   3  10
ATOM     10  C   UNL d   1      57.891   0.450  30.935  0.00  0.00     0.074 C 
BRANCH  10  11
ATOM     11  S   UNL d   1      57.306   0.061  31.367  0.00  0.00    -0.083 SA
BRANCH  11  12
ATOM     12  C   UNL d   1      57.028   0.390  32.071  0.00  0.00     0.035 C 
BRANCH  12  13
ATOM     13  C   UNL d   1      56.438   0.004  32.499  0.00  0.00     0.006 A 
ATOM     14  C   UNL d   1      55.849   0.449  32.872  0.00  0.00     0.001 A 
ATOM     15  C   UNL d   1      55.259   0.064  33.300  0.00  0.00     0.000 A 
ATOM     16  C   UNL d   1      55.261  -0.759  33.354  0.00  0.00     0.000 A 
ATOM     17  C   UNL d   1      55.854  -1.197  32.979  0.00  0.00     0.000 A 
ATOM     18  C   UNL d   1      56.444  -0.812  32.551  0.00  0.00     0.001 A 
ENDBRANCH  12  13
ENDBRANCH  11  12
ENDBRANCH  10  11
ENDBRANCH   3  10
TORSDOF 4
ENDMDL
MODEL 3
REMARK VINA RESULT:      -4.1      0.960      4.765
REMARK  4 active torsions:
REMARK  status: ('A' for Active; 'I' for Inactive)
REMARK    1  A    between atoms: C_7  and  C_3 
REMARK    2  A    between atoms: S_6  and  C_7 
REMARK    3  A    between atoms: C_9  and  S_6 
REMARK    4  A    between atoms: C_8  and  C_9 
ROOT
ATOM      1  N   UNL d   1      58.170   0.004  29.764  0.00  0.00    -0.225 NA
ATOM      2  N   UNL d   1      59.170   0.489  30.549  0.00  0.00    -0.225 NA
ATOM      3  C   UNL d   1      58.339   0.415  30.477  0.00  0.00     0.169 A 
ATOM      4  C   UNL d   1      58.903  -0.172  29.403  0.00  0.00     0.101 A 
ATOM      5  C   UNL d   1      59.522   0.123  29.880  0.00  0.00     0.101 A 
ATOM      6  C   UNL d   1      59.083  -0.569  28.691  0.00  0.00     0.021 A 
ATOM      7  C   UNL d   1      60.309   0.015  29.634  0.00  0.00     0.021 A 
ATOM      8  C   UNL d   1      60.476  -0.376  28.935  0.00  0.00     0.002 A 
ATOM      9  C   UNL d   1      59.862  -0.668  28.463  0.00  0.00     0.002 A 
ENDROOT
BRANCH   3  10
ATOM     10  C   UNL d   1      57.554   0.517  30.710  0.00  0.00     0.074 C 
BRANCH  10  11
ATOM     11  S   UNL d   1      57.298   0.215  31.433  0.00  0.00    -0.083 SA
BRANCH  11  12
ATOM     12  C   UNL d   1      56.604   0.501  31.776  0.00  0.00     0.035 C 
BRANCH  12  13
ATOM     13  C   UNL d   1      56.227   0.066  32.367  0.00  0.00     0.006 A 
ATOM     14  C   UNL d   1      56.261  -0.760  32.348  0.00  0.00     0.001 A 
ATOM     15  C   UNL d   1      55.884  -1.195  32.939  0.00  0.00     0.000 A 
ATOM     16  C   UNL d   1      55.478  -0.805  33.542  0.00  0.00     0.000 A 
ATOM     17  C   UNL d   1      55.449   0.022  33.554  0.00  0.00     0.000 A 
ATOM     18  C   UNL d   1      55.826   0.457  32.963  0.00  0.00     0.001 A 
ENDBRANCH  12  13
ENDBRANCH  11  12
ENDBRANCH  10  11
ENDBRANCH   3  10
TORSDOF 4
ENDMDL
