MODEL 1
REMARK VINA RESULT:      17.6      0.000      0.000
REMARK  4 active torsions:
REMARK  status: ('A' for Active; 'I' for Inactive)
REMARK    1  A    between atoms: C_6  and  C_1 
REMARK    2  A    between atoms: N_7  and  C_2 
REMARK    3  A    between atoms: C_8  and  C_5 
REMARK    4  A    between atoms: O_10  and  C_6 
ROOT
ATOM      1  C   UNL d   1      59.477  49.645  50.742  0.00  0.00     0.186 A 
ATOM      2  C   UNL d   1      59.641  49.675  49.912  0.00  0.00     0.193 A 
ATOM      3  N   UNL d   1      58.675  49.653  50.846  0.00  0.00    -0.213 NA
ATOM      4  O   UNL d   1      58.887  49.700  49.526  0.00  0.00    -0.271 OA
ATOM      5  C   UNL d   1      58.318  49.685  50.146  0.00  0.00     0.184 A 
ENDROOT
BRANCH   5   6
ATOM      6  C   UNL d   1      57.578  49.691  50.257  0.00  0.00     0.041 A 
ATOM      7  C   UNL d   1      57.475  49.687  49.425  0.00  0.00     0.004 A 
ATOM      8  C   UNL d   1      56.714  49.691  49.097  0.00  0.00     0.000 A 
ATOM      9  C   UNL d   1      56.060  49.699  49.600  0.00  0.00     0.000 A 
ATOM     10  C   UNL d   1      56.163  49.703  50.432  0.00  0.00     0.000 A 
ATOM     11  C   UNL d   1      56.917  49.699  50.737  0.00  0.00     0.004 A 
ENDBRANCH   5   6
BRANCH   1  12
ATOM     12  C   UNL d   1      60.075  49.622  51.123  0.00  0.00     0.317 C 
ATOM     13  O   UNL d   1      60.937  49.525  50.961  0.00  0.00    -0.257 OA
BRANCH  12  14
ATOM     14  O   UNL d   1      60.169  49.676  51.850  0.00  0.00    -0.294 OA
ATOM     15  C   UNL d   1      60.892  49.666  52.313  0.00  0.00     0.185 C 
ENDBRANCH  12  14
ENDBRANCH   1  12
BRANCH   2  16
ATOM     16  N   UNL d   1      60.285  49.670  49.789  0.00  0.00    -0.281 N 
ATOM     17  C   UNL d   1      60.186  49.689  48.990  0.00  0.00     0.101 C 
ATOM     18  C   UNL d   1      61.016  49.655  50.101  0.00  0.00     0.101 C 
ENDBRANCH   2  16
TORSDOF 4
ENDMDL
MODEL 2
REMARK VINA RESULT:      20.4      0.853      1.623
REMARK  4 active torsions:
REMARK  status: ('A' for Active; 'I' for Inactive)
REMARK    1  A    between atoms: C_6  and  C_1 
REMARK    2  A    between atoms: N_7  and  C_2 
REMARK    3  A    between atoms: C_8  and  C_5 
REMARK    4  A    between atoms: O_10  and  C_6 
ROOT
ATOM      1  C   UNL d   1      59.647  49.542  50.657  0.00  0.00     0.186 A 
ATOM      2  C   UNL d   1      59.433  49.626  51.472  0.00  0.00     0.193 A 
ATOM      3  N   UNL d   1      58.972  49.559  50.211  0.00  0.00    -0.213 NA
ATOM      4  O   UNL d   1      58.589  49.695  51.485  0.00  0.00    -0.271 OA
ATOM      5  C   UNL d   1      58.347  49.647  50.680  0.00  0.00     0.184 A 
ENDROOT
BRANCH   5   6
ATOM      6  C   UNL d   1      57.731  49.661  50.255  0.00  0.00     0.041 A 
ATOM      7  C   UNL d   1      57.274  49.594  50.954  0.00  0.00     0.004 A 
ATOM      8  C   UNL d   1      56.446  49.572  50.913  0.00  0.00     0.000 A 
ATOM      9  C   UNL d   1      56.080  49.618  50.175  0.00  0.00     0.000 A 
ATOM     10  C   UNL d   1      56.537  49.686  49.476  0.00  0.00     0.000 A 
ATOM     11  C   UNL d   1      57.348  49.705  49.535  0.00  0.00     0.004 A 
ENDBRANCH   5   6
BRANCH   1  12
ATOM     12  C   UNL d   1      60.349  49.479  50.579  0.00  0.00     0.317 C 
ATOM     13  O   UNL d   1      61.029  49.208  51.072  0.00  0.00    -0.257 OA
BRANCH  12  14
ATOM     14  O   UNL d   1      60.771  49.638  49.999  0.00  0.00    -0.294 OA
ATOM     15  C   UNL d   1      61.626  49.623  49.921  0.00  0.00     0.185 C 
ENDBRANCH  12  14
ENDBRANCH   1  12
BRANCH   2  16
ATOM     16  N   UNL d   1      59.957  49.616  51.865  0.00  0.00    -0.281 N 
ATOM     17  C   UNL d   1      59.522  49.706  52.536  0.00  0.00     0.101 C 
ATOM     18  C   UNL d   1      60.749  49.557  51.907  0.00  0.00     0.101 C 
ENDBRANCH   2  16
TORSDOF 4
ENDMDL
