MODEL 1
REMARK VINA RESULT:      -4.9      0.000      0.000
REMARK  5 active torsions:
REMARK  status: ('A' for Active; 'I' for Inactive)
REMARK    1  A    between atoms: C_2  and  C_1 
REMARK       I    between atoms: N_3  and  C_1 
REMARK    2  A    between atoms: C_8  and  N_3 
REMARK    3  A    between atoms: N_4  and  C_9 
REMARK    4  A    between atoms: N_5  and  N_4 
REMARK    5  A    between atoms: C_10  and  N_5 
ROOT
ATOM      1  C   UNL d   1      56.657   0.057  31.864  0.00  0.00     0.085 A 
ATOM      2  C   UNL d   1      57.733  -0.219  30.638  0.00  0.00     0.103 A 
ATOM      3  C   UNL d   1      56.920   0.682  31.391  0.00  0.00     0.021 A 
ATOM      4  C   UNL d   1      56.935  -0.705  31.719  0.00  0.00     0.021 A 
ATOM      5  C   UNL d   1      57.469  -0.844  31.111  0.00  0.00     0.022 A 
ATOM      6  C   UNL d   1      57.459   0.547  30.776  0.00  0.00     0.022 A 
ENDROOT
BRANCH   1   7
ATOM      7  N   UNL d   1      56.119   0.195  32.477  0.00  0.00    -0.208 NA
ATOM      8  C   UNL d   1      56.355   0.102  33.264  0.00  0.00     0.280 C 
ATOM      9  O   UNL d   1      57.102  -0.125  33.543  0.00  0.00    -0.265 OA
BRANCH   8  10
ATOM     10  C   UNL d   1      55.687   0.283  33.705  0.00  0.00     0.069 A 
ATOM     11  C   UNL d   1      55.769   0.498  34.495  0.00  0.00     0.062 A 
ATOM     12 CL   UNL d   1      56.511   0.532  34.844  0.00  0.00    -0.082 Cl
ATOM     13  C   UNL d   1      55.094   0.682  34.942  0.00  0.00     0.012 A 
ATOM     14  C   UNL d   1      54.345   0.647  34.589  0.00  0.00     0.001 A 
ATOM     15  C   UNL d   1      54.279   0.429  33.796  0.00  0.00     0.000 A 
ATOM     16  C   UNL d   1      54.946   0.249  33.359  0.00  0.00     0.006 A 
ENDBRANCH   8  10
ENDBRANCH   1   7
BRANCH   2  17
ATOM     17  N   UNL d   1      58.269  -0.360  30.027  0.00  0.00    -0.148 NA
BRANCH  17  18
ATOM     18  N   UNL d   1      58.196  -1.040  29.566  0.00  0.00    -0.148 NA
BRANCH  18  19
ATOM     19  C   UNL d   1      58.863  -1.362  29.194  0.00  0.00     0.103 A 
ATOM     20  C   UNL d   1      59.491  -0.877  28.975  0.00  0.00     0.021 A 
ATOM     21  C   UNL d   1      60.150  -1.196  28.608  0.00  0.00     0.002 A 
ATOM     22  C   UNL d   1      60.186  -2.009  28.456  0.00  0.00     0.000 A 
ATOM     23  C   UNL d   1      59.562  -2.501  28.672  0.00  0.00     0.002 A 
ATOM     24  C   UNL d   1      58.899  -2.174  29.043  0.00  0.00     0.021 A 
ENDBRANCH  18  19
ENDBRANCH  17  18
ENDBRANCH   2  17
TORSDOF 5
ENDMDL
MODEL 2
REMARK VINA RESULT:      -3.2      1.742      5.811
REMARK  5 active torsions:
REMARK  status: ('A' for Active; 'I' for Inactive)
REMARK    1  A    between atoms: C_2  and  C_1 
REMARK       I    between atoms: N_3  and  C_1 
REMARK    2  A    between atoms: C_8  and  N_3 
REMARK    3  A    between atoms: N_4  and  C_9 
REMARK    4  A    between atoms: N_5  and  N_4 
REMARK    5  A    between atoms: C_10  and  N_5 
ROOT
ATOM      1  C   UNL d   1      58.152   0.037  30.963  0.00  0.00     0.085 A 
ATOM      2  C   UNL d   1      57.020   0.467  32.089  0.00  0.00     0.103 A 
ATOM      3  C   UNL d   1      57.373   0.186  30.734  0.00  0.00     0.021 A 
ATOM      4  C   UNL d   1      58.361   0.104  31.757  0.00  0.00     0.021 A 
ATOM      5  C   UNL d   1      57.800   0.318  32.318  0.00  0.00     0.022 A 
ATOM      6  C   UNL d   1      56.802   0.402  31.296  0.00  0.00     0.022 A 
ENDROOT
BRANCH   1   7
ATOM      7  N   UNL d   1      58.719  -0.179  30.400  0.00  0.00    -0.208 NA
ATOM      8  C   UNL d   1      58.536  -0.741  29.822  0.00  0.00     0.280 C 
ATOM      9  O   UNL d   1      57.820  -1.146  29.720  0.00  0.00    -0.265 OA
BRANCH   8  10
ATOM     10  C   UNL d   1      59.220  -0.809  29.374  0.00  0.00     0.069 A 
ATOM     11  C   UNL d   1      59.412  -1.535  29.035  0.00  0.00     0.062 A 
ATOM     12 CL   UNL d   1      58.926  -2.187  29.142  0.00  0.00    -0.082 Cl
ATOM     13  C   UNL d   1      60.103  -1.605  28.581  0.00  0.00     0.012 A 
ATOM     14  C   UNL d   1      60.593  -0.945  28.474  0.00  0.00     0.001 A 
ATOM     15  C   UNL d   1      60.388  -0.225  28.820  0.00  0.00     0.000 A 
ATOM     16  C   UNL d   1      59.706  -0.160  29.266  0.00  0.00     0.006 A 
ENDBRANCH   8  10
ENDBRANCH   1   7
BRANCH   2  17
ATOM     17  N   UNL d   1      56.457   0.682  32.653  0.00  0.00    -0.148 NA
BRANCH  17  18
ATOM     18  N   UNL d   1      56.537   0.423  33.432  0.00  0.00    -0.148 NA
BRANCH  18  19
ATOM     19  C   UNL d   1      55.900   0.487  33.957  0.00  0.00     0.103 A 
ATOM     20  C   UNL d   1      55.127   0.483  33.675  0.00  0.00     0.021 A 
ATOM     21  C   UNL d   1      54.497   0.546  34.195  0.00  0.00     0.002 A 
ATOM     22  C   UNL d   1      54.638   0.613  35.007  0.00  0.00     0.000 A 
ATOM     23  C   UNL d   1      55.408   0.617  35.298  0.00  0.00     0.002 A 
ATOM     24  C   UNL d   1      56.040   0.554  34.770  0.00  0.00     0.021 A 
ENDBRANCH  18  19
ENDBRANCH  17  18
ENDBRANCH   2  17
TORSDOF 5
ENDMDL
