MODEL 1
REMARK VINA RESULT:      10.3      0.000      0.000
REMARK  8 active torsions:
REMARK  status: ('A' for Active; 'I' for Inactive)
REMARK    1  A    between atoms: C_13  and  C_4 
REMARK    2  A    between atoms: N_16  and  C_5 
REMARK    3  A    between atoms: C_20  and  C_9 
REMARK    4  A    between atoms: N_11  and  C_18 
REMARK    5  A    between atoms: C_21  and  N_16 
REMARK    6  A    between atoms: C_18  and  C_19 
REMARK    7  A    between atoms: C_19  and  C_21 
REMARK    8  A    between atoms: C_24  and  C_20 
ROOT
ATOM      1  N   UNL d   1     -42.142-122.695 -50.125  0.00  0.00    -0.184 N 
ATOM      2  C   UNL d   1     -42.597-122.708 -49.427  0.00  0.00     0.168 A 
ATOM      3  N   UNL d   1     -41.123-123.430 -49.473  0.00  0.00    -0.162 NA
ATOM      4  C   UNL d   1     -42.315-123.077 -48.767  0.00  0.00     0.055 A 
ATOM      5  C   UNL d   1     -42.445-122.317 -50.778  0.00  0.00     0.218 A 
ATOM      6  C   UNL d   1     -41.579-123.443 -48.776  0.00  0.00     0.104 A 
ATOM      7  N   UNL d   1     -43.333-122.342 -49.419  0.00  0.00    -0.227 NA
ATOM      8  C   UNL d   1     -43.166-121.955 -50.781  0.00  0.00     0.071 A 
ATOM      9  C   UNL d   1     -43.622-121.968 -50.083  0.00  0.00     0.087 A 
ATOM     10  C   UNL d   1     -41.288-123.817 -48.115  0.00  0.00     0.023 C 
ENDROOT
BRANCH   5  11
ATOM     11  N   UNL d   1     -41.975-122.304 -51.497  0.00  0.00    -0.380 NA
BRANCH  11  12
ATOM     12  C   UNL d   1     -41.527-122.360 -52.227  0.00  0.00     0.164 C 
BRANCH  12  13
ATOM     13  C   UNL d   1     -41.913-122.621 -52.939  0.00  0.00     0.054 C 
BRANCH  13  14
ATOM     14  C   UNL d   1     -41.485-122.623 -53.674  0.00  0.00     0.084 C 
BRANCH  14  15
ATOM     15  N   UNL d   1     -41.875-122.405 -54.387  0.00  0.00    -0.285 N 
ATOM     16  C   UNL d   1     -41.665-121.767 -54.904  0.00  0.00     0.183 A 
ATOM     17  N   UNL d   1     -42.213-121.755 -55.557  0.00  0.00    -0.222 NA
ATOM     18  C   UNL d   1     -42.767-122.384 -55.451  0.00  0.00     0.120 A 
ATOM     19  C   UNL d   1     -42.564-122.788 -54.733  0.00  0.00     0.102 A 
ENDBRANCH  14  15
ENDBRANCH  13  14
ENDBRANCH  12  13
ENDBRANCH  11  12
ENDBRANCH   5  11
BRANCH   9  20
ATOM     20  C   UNL d   1     -44.389-121.589 -50.069  0.00  0.00     0.019 C 
BRANCH  20  21
ATOM     21  C   UNL d   1     -45.105-122.037 -50.255  0.00  0.00     0.002 C 
ATOM     22  C   UNL d   1     -45.869-121.697 -50.118  0.00  0.00     0.000 C 
ENDBRANCH  20  21
ENDBRANCH   9  20
BRANCH   4  23
ATOM     23  C   UNL d   1     -42.764-123.090 -48.080  0.00  0.00     0.004 A 
ATOM     24  C   UNL d   1     -43.276-123.714 -47.945  0.00  0.00     0.000 A 
ATOM     25  C   UNL d   1     -43.725-123.726 -47.258  0.00  0.00     0.000 A 
ATOM     26  C   UNL d   1     -43.662-123.115 -46.707  0.00  0.00     0.000 A 
ATOM     27  C   UNL d   1     -43.147-122.488 -46.842  0.00  0.00     0.000 A 
ATOM     28  C   UNL d   1     -42.691-122.475 -47.540  0.00  0.00     0.000 A 
ENDBRANCH   4  23
TORSDOF 8
ENDMDL
MODEL 2
REMARK VINA RESULT:      11.6      1.329      2.174
REMARK  8 active torsions:
REMARK  status: ('A' for Active; 'I' for Inactive)
REMARK    1  A    between atoms: C_13  and  C_4 
REMARK    2  A    between atoms: N_16  and  C_5 
REMARK    3  A    between atoms: C_20  and  C_9 
REMARK    4  A    between atoms: N_11  and  C_18 
REMARK    5  A    between atoms: C_21  and  N_16 
REMARK    6  A    between atoms: C_18  and  C_19 
REMARK    7  A    between atoms: C_19  and  C_21 
REMARK    8  A    between atoms: C_24  and  C_20 
ROOT
ATOM      1  N   UNL d   1     -42.720-122.643 -51.159  0.00  0.00    -0.184 N 
ATOM      2  C   UNL d   1     -42.526-122.413 -50.382  0.00  0.00     0.168 A 
ATOM      3  N   UNL d   1     -43.571-123.652 -50.647  0.00  0.00    -0.162 NA
ATOM      4  C   UNL d   1     -42.851-122.800 -49.752  0.00  0.00     0.055 A 
ATOM      5  C   UNL d   1     -42.380-122.239 -51.778  0.00  0.00     0.218 A 
ATOM      6  C   UNL d   1     -43.376-123.422 -49.870  0.00  0.00     0.104 A 
ATOM      7  N   UNL d   1     -42.001-121.791 -50.264  0.00  0.00    -0.227 NA
ATOM      8  C   UNL d   1     -41.864-121.628 -51.673  0.00  0.00     0.071 A 
ATOM      9  C   UNL d   1     -41.670-121.398 -50.897  0.00  0.00     0.087 A 
ATOM     10  C   UNL d   1     -43.708-123.816 -49.241  0.00  0.00     0.023 C 
ENDROOT
BRANCH   5  11
ATOM     11  N   UNL d   1     -42.581-122.476 -52.579  0.00  0.00    -0.380 NA
BRANCH  11  12
ATOM     12  C   UNL d   1     -42.734-122.768 -53.371  0.00  0.00     0.164 C 
BRANCH  12  13
ATOM     13  C   UNL d   1     -42.515-122.295 -54.044  0.00  0.00     0.054 C 
BRANCH  13  14
ATOM     14  C   UNL d   1     -42.421-122.661 -54.805  0.00  0.00     0.084 C 
BRANCH  14  15
ATOM     15  N   UNL d   1     -42.145-122.208 -55.458  0.00  0.00    -0.285 N 
ATOM     16  C   UNL d   1     -42.560-121.582 -55.851  0.00  0.00     0.183 A 
ATOM     17  N   UNL d   1     -42.068-121.283 -56.481  0.00  0.00    -0.222 NA
ATOM     18  C   UNL d   1     -41.345-121.720 -56.484  0.00  0.00     0.120 A 
ATOM     19  C   UNL d   1     -41.386-122.290 -55.857  0.00  0.00     0.102 A 
ENDBRANCH  14  15
ENDBRANCH  13  14
ENDBRANCH  12  13
ENDBRANCH  11  12
ENDBRANCH   5  11
BRANCH   9  20
ATOM     20  C   UNL d   1     -41.124-120.752 -50.768  0.00  0.00     0.019 C 
BRANCH  20  21
ATOM     21  C   UNL d   1     -41.133-120.059 -51.284  0.00  0.00     0.002 C 
ATOM     22  C   UNL d   1     -41.125-119.278 -50.953  0.00  0.00     0.000 C 
ENDBRANCH  20  21
ENDBRANCH   9  20
BRANCH   4  23
ATOM     23  C   UNL d   1     -42.660-122.573 -48.987  0.00  0.00     0.004 A 
ATOM     24  C   UNL d   1     -43.026-121.921 -48.656  0.00  0.00     0.000 A 
ATOM     25  C   UNL d   1     -42.834-121.694 -47.891  0.00  0.00     0.000 A 
ATOM     26  C   UNL d   1     -42.276-122.121 -47.457  0.00  0.00     0.000 A 
ATOM     27  C   UNL d   1     -41.908-122.777 -47.789  0.00  0.00     0.000 A 
ATOM     28  C   UNL d   1     -42.103-123.007 -48.566  0.00  0.00     0.000 A 
ENDBRANCH   4  23
TORSDOF 8
ENDMDL
