MODEL 1
REMARK VINA RESULT:      -8.1      0.000      0.000
REMARK  5 active torsions:
REMARK  status: ('A' for Active; 'I' for Inactive)
REMARK    1  A    between atoms: C_7  and  N_2 
REMARK    2  A    between atoms: C_6  and  C_8 
REMARK       I    between atoms: N_9  and  C_6 
REMARK    3  A    between atoms: C_8  and  C_7 
REMARK    4  A    between atoms: C_11  and  N_9 
REMARK    5  A    between atoms: C_13  and  C_11 
ROOT
ATOM      1  C   UNL d   1      51.689  33.543  52.879  0.00  0.00     0.080 C 
ENDROOT
BRANCH   1   2
ATOM      2  C   UNL d   1      51.241  34.007  52.366  0.00  0.00     0.266 C 
ATOM      3  N   UNL d   1      50.439  34.126  52.504  0.00  0.00    -0.270 N 
ATOM      4  C   UNL d   1      50.078  33.776  53.165  0.00  0.00     0.102 C 
ATOM      5  O   UNL d   1      51.599  34.355  51.709  0.00  0.00    -0.267 OA
BRANCH   3   6
ATOM      6  C   UNL d   1      49.995  34.587  51.992  0.00  0.00     0.083 C 
BRANCH   6   7
ATOM      7  C   UNL d   1      49.300  34.942  52.250  0.00  0.00     0.018 A 
ATOM      8  C   UNL d   1      49.270  35.333  52.980  0.00  0.00     0.002 A 
ATOM      9  C   UNL d   1      48.576  35.689  53.238  0.00  0.00     0.000 A 
ATOM     10  C   UNL d   1      47.902  35.659  52.774  0.00  0.00     0.000 A 
ATOM     11  C   UNL d   1      47.924  35.270  52.045  0.00  0.00     0.000 A 
ATOM     12  C   UNL d   1      48.629  34.910  51.785  0.00  0.00     0.002 A 
ENDBRANCH   6   7
ENDBRANCH   3   6
ENDBRANCH   1   2
BRANCH   1  13
ATOM     13  C   UNL d   1      52.504  33.484  52.785  0.00  0.00     0.090 C 
BRANCH  13  14
ATOM     14  N   UNL d   1      52.942  32.977  53.262  0.00  0.00    -0.251 N 
ATOM     15  C   UNL d   1      53.015  32.163  53.167  0.00  0.00     0.378 A 
ATOM     16  O   UNL d   1      53.508  31.946  53.789  0.00  0.00    -0.258 OA
ATOM     17  O   UNL d   1      52.661  31.712  52.573  0.00  0.00    -0.237 OA
ATOM     18  C   UNL d   1      53.732  32.519  54.234  0.00  0.00     0.121 A 
ATOM     19  C   UNL d   1      54.214  32.570  54.907  0.00  0.00     0.026 A 
ATOM     20  C   UNL d   1      53.385  33.200  53.923  0.00  0.00     0.092 A 
ATOM     21  C   UNL d   1      54.348  33.305  55.267  0.00  0.00     0.002 A 
ATOM     22  C   UNL d   1      53.995  33.980  54.947  0.00  0.00     0.002 A 
ATOM     23  C   UNL d   1      53.515  33.925  54.276  0.00  0.00     0.020 A 
ENDBRANCH  13  14
ENDBRANCH   1  13
TORSDOF 5
ENDMDL
MODEL 2
REMARK VINA RESULT:      -7.9      1.120      2.008
REMARK  5 active torsions:
REMARK  status: ('A' for Active; 'I' for Inactive)
REMARK    1  A    between atoms: C_7  and  N_2 
REMARK    2  A    between atoms: C_6  and  C_8 
REMARK       I    between atoms: N_9  and  C_6 
REMARK    3  A    between atoms: C_8  and  C_7 
REMARK    4  A    between atoms: C_11  and  N_9 
REMARK    5  A    between atoms: C_13  and  C_11 
ROOT
ATOM      1  C   UNL d   1      52.166  33.146  53.344  0.00  0.00     0.080 C 
ENDROOT
BRANCH   1   2
ATOM      2  C   UNL d   1      51.883  33.819  52.963  0.00  0.00     0.266 C 
ATOM      3  N   UNL d   1      51.081  33.995  52.966  0.00  0.00    -0.270 N 
ATOM      4  C   UNL d   1      50.549  33.489  53.357  0.00  0.00     0.102 C 
ATOM      5  O   UNL d   1      52.410  34.323  52.574  0.00  0.00    -0.267 OA
BRANCH   3   6
ATOM      6  C   UNL d   1      50.801  34.665  52.587  0.00  0.00     0.083 C 
BRANCH   6   7
ATOM      7  C   UNL d   1      50.024  34.698  52.320  0.00  0.00     0.018 A 
ATOM      8  C   UNL d   1      49.819  34.401  51.575  0.00  0.00     0.002 A 
ATOM      9  C   UNL d   1      49.043  34.434  51.308  0.00  0.00     0.000 A 
ATOM     10  C   UNL d   1      48.460  34.764  51.780  0.00  0.00     0.000 A 
ATOM     11  C   UNL d   1      48.656  35.062  52.524  0.00  0.00     0.000 A 
ATOM     12  C   UNL d   1      49.445  35.027  52.794  0.00  0.00     0.002 A 
ENDBRANCH   6   7
ENDBRANCH   3   6
ENDBRANCH   1   2
BRANCH   1  13
ATOM     13  C   UNL d   1      52.903  32.836  53.152  0.00  0.00     0.090 C 
BRANCH  13  14
ATOM     14  N   UNL d   1      53.218  32.212  53.587  0.00  0.00    -0.251 N 
ATOM     15  C   UNL d   1      53.649  32.276  54.284  0.00  0.00     0.378 A 
ATOM     16  O   UNL d   1      53.820  31.493  54.471  0.00  0.00    -0.258 OA
ATOM     17  O   UNL d   1      53.842  32.979  54.670  0.00  0.00    -0.237 OA
ATOM     18  C   UNL d   1      53.548  30.981  53.980  0.00  0.00     0.121 A 
ATOM     19  C   UNL d   1      53.577  30.153  53.937  0.00  0.00     0.026 A 
ATOM     20  C   UNL d   1      53.153  31.411  53.396  0.00  0.00     0.092 A 
ATOM     21  C   UNL d   1      53.210  29.757  53.306  0.00  0.00     0.002 A 
ATOM     22  C   UNL d   1      52.818  30.197  52.728  0.00  0.00     0.002 A 
ATOM     23  C   UNL d   1      52.791  31.022  52.775  0.00  0.00     0.020 A 
ENDBRANCH  13  14
ENDBRANCH   1  13
TORSDOF 5
ENDMDL
MODEL 3
REMARK VINA RESULT:      -7.2      1.295      5.105
REMARK  5 active torsions:
REMARK  status: ('A' for Active; 'I' for Inactive)
REMARK    1  A    between atoms: C_7  and  N_2 
REMARK    2  A    between atoms: C_6  and  C_8 
REMARK       I    between atoms: N_9  and  C_6 
REMARK    3  A    between atoms: C_8  and  C_7 
REMARK    4  A    between atoms: C_11  and  N_9 
REMARK    5  A    between atoms: C_13  and  C_11 
ROOT
ATOM      1  C   UNL d   1      50.392  34.308  52.750  0.00  0.00     0.080 C 
ENDROOT
BRANCH   1   2
ATOM      2  C   UNL d   1      50.868  33.723  53.083  0.00  0.00     0.266 C 
ATOM      3  N   UNL d   1      51.680  33.833  53.149  0.00  0.00    -0.270 N 
ATOM      4  C   UNL d   1      52.024  34.540  52.878  0.00  0.00     0.102 C 
ATOM      5  O   UNL d   1      50.527  33.021  53.352  0.00  0.00    -0.267 OA
BRANCH   3   6
ATOM      6  C   UNL d   1      52.151  33.250  53.480  0.00  0.00     0.083 C 
BRANCH   6   7
ATOM      7  C   UNL d   1      52.874  33.444  53.820  0.00  0.00     0.018 A 
ATOM      8  C   UNL d   1      52.909  33.916  54.499  0.00  0.00     0.002 A 
ATOM      9  C   UNL d   1      53.631  34.110  54.840  0.00  0.00     0.000 A 
ATOM     10  C   UNL d   1      54.328  33.836  54.509  0.00  0.00     0.000 A 
ATOM     11  C   UNL d   1      54.302  33.364  53.832  0.00  0.00     0.000 A 
ATOM     12  C   UNL d   1      53.568  33.168  53.487  0.00  0.00     0.002 A 
ENDBRANCH   6   7
ENDBRANCH   3   6
ENDBRANCH   1   2
BRANCH   1  13
ATOM     13  C   UNL d   1      49.573  34.260  52.802  0.00  0.00     0.090 C 
BRANCH  13  14
ATOM     14  N   UNL d   1      49.099  34.796  52.397  0.00  0.00    -0.251 N 
ATOM     15  C   UNL d   1      48.978  34.819  51.584  0.00  0.00     0.378 A 
ATOM     16  O   UNL d   1      48.464  35.455  51.489  0.00  0.00    -0.258 OA
ATOM     17  O   UNL d   1      49.312  34.307  51.031  0.00  0.00    -0.237 OA
ATOM     18  C   UNL d   1      48.268  35.806  52.134  0.00  0.00     0.121 A 
ATOM     19  C   UNL d   1      47.781  36.453  52.311  0.00  0.00     0.026 A 
ATOM     20  C   UNL d   1      48.660  35.407  52.740  0.00  0.00     0.092 A 
ATOM     21  C   UNL d   1      47.686  36.699  53.098  0.00  0.00     0.002 A 
ATOM     22  C   UNL d   1      48.083  36.291  53.697  0.00  0.00     0.002 A 
ATOM     23  C   UNL d   1      48.569  35.647  53.516  0.00  0.00     0.020 A 
ENDBRANCH  13  14
ENDBRANCH   1  13
TORSDOF 5
ENDMDL
MODEL 4
REMARK VINA RESULT:      -7.1      2.331      4.786
REMARK  5 active torsions:
REMARK  status: ('A' for Active; 'I' for Inactive)
REMARK    1  A    between atoms: C_7  and  N_2 
REMARK    2  A    between atoms: C_6  and  C_8 
REMARK       I    between atoms: N_9  and  C_6 
REMARK    3  A    between atoms: C_8  and  C_7 
REMARK    4  A    between atoms: C_11  and  N_9 
REMARK    5  A    between atoms: C_13  and  C_11 
ROOT
ATOM      1  C   UNL d   1      52.596  32.314  53.045  0.00  0.00     0.080 C 
ENDROOT
BRANCH   1   2
ATOM      2  C   UNL d   1      52.374  31.521  53.079  0.00  0.00     0.266 C 
ATOM      3  N   UNL d   1      52.939  30.933  53.182  0.00  0.00    -0.270 N 
ATOM      4  C   UNL d   1      53.741  31.139  53.252  0.00  0.00     0.102 C 
ATOM      5  O   UNL d   1      51.577  31.314  53.010  0.00  0.00    -0.267 OA
BRANCH   3   6
ATOM      6  C   UNL d   1      52.716  30.145  53.215  0.00  0.00     0.083 C 
BRANCH   6   7
ATOM      7  C   UNL d   1      53.022  29.651  53.796  0.00  0.00     0.018 A 
ATOM      8  C   UNL d   1      52.724  29.670  54.568  0.00  0.00     0.002 A 
ATOM      9  C   UNL d   1      53.029  29.176  55.150  0.00  0.00     0.000 A 
ATOM     10  C   UNL d   1      53.636  28.656  54.970  0.00  0.00     0.000 A 
ATOM     11  C   UNL d   1      53.939  28.632  54.202  0.00  0.00     0.000 A 
ATOM     12  C   UNL d   1      53.628  29.134  53.613  0.00  0.00     0.002 A 
ENDBRANCH   6   7
ENDBRANCH   3   6
ENDBRANCH   1   2
BRANCH   1  13
ATOM     13  C   UNL d   1      52.074  32.904  53.279  0.00  0.00     0.090 C 
BRANCH  13  14
ATOM     14  N   UNL d   1      52.288  33.696  53.217  0.00  0.00    -0.251 N 
ATOM     15  C   UNL d   1      52.184  34.177  52.558  0.00  0.00     0.378 A 
ATOM     16  O   UNL d   1      52.492  34.899  52.802  0.00  0.00    -0.258 OA
ATOM     17  O   UNL d   1      51.846  33.947  51.841  0.00  0.00    -0.237 OA
ATOM     18  C   UNL d   1      52.761  34.908  53.513  0.00  0.00     0.121 A 
ATOM     19  C   UNL d   1      53.113  35.489  53.987  0.00  0.00     0.026 A 
ATOM     20  C   UNL d   1      52.645  34.147  53.810  0.00  0.00     0.092 A 
ATOM     21  C   UNL d   1      53.349  35.307  54.762  0.00  0.00     0.002 A 
ATOM     22  C   UNL d   1      53.228  34.542  55.049  0.00  0.00     0.002 A 
ATOM     23  C   UNL d   1      52.877  33.965  54.573  0.00  0.00     0.020 A 
ENDBRANCH  13  14
ENDBRANCH   1  13
TORSDOF 5
ENDMDL
MODEL 5
REMARK VINA RESULT:      -7.0      1.819      4.884
REMARK  5 active torsions:
REMARK  status: ('A' for Active; 'I' for Inactive)
REMARK    1  A    between atoms: C_7  and  N_2 
REMARK    2  A    between atoms: C_6  and  C_8 
REMARK       I    between atoms: N_9  and  C_6 
REMARK    3  A    between atoms: C_8  and  C_7 
REMARK    4  A    between atoms: C_11  and  N_9 
REMARK    5  A    between atoms: C_13  and  C_11 
ROOT
ATOM      1  C   UNL d   1      53.548  33.268  53.824  0.00  0.00     0.080 C 
ENDROOT
BRANCH   1   2
ATOM      2  C   UNL d   1      53.876  32.565  53.545  0.00  0.00     0.266 C 
ATOM      3  N   UNL d   1      53.769  31.862  53.957  0.00  0.00    -0.270 N 
ATOM      4  C   UNL d   1      53.326  31.859  54.661  0.00  0.00     0.102 C 
ATOM      5  O   UNL d   1      54.317  32.566  52.846  0.00  0.00    -0.267 OA
BRANCH   3   6
ATOM      6  C   UNL d   1      54.096  31.164  53.679  0.00  0.00     0.083 C 
BRANCH   6   7
ATOM      7  C   UNL d   1      53.657  30.469  53.680  0.00  0.00     0.018 A 
ATOM      8  C   UNL d   1      53.096  30.322  53.089  0.00  0.00     0.002 A 
ATOM      9  C   UNL d   1      52.656  29.628  53.089  0.00  0.00     0.000 A 
ATOM     10  C   UNL d   1      52.769  29.071  53.679  0.00  0.00     0.000 A 
ATOM     11  C   UNL d   1      53.327  29.210  54.272  0.00  0.00     0.000 A 
ATOM     12  C   UNL d   1      53.772  29.916  54.270  0.00  0.00     0.002 A 
ENDBRANCH   6   7
ENDBRANCH   3   6
ENDBRANCH   1   2
BRANCH   1  13
ATOM     13  C   UNL d   1      53.323  33.859  53.300  0.00  0.00     0.090 C 
BRANCH  13  14
ATOM     14  N   UNL d   1      52.696  34.361  53.484  0.00  0.00    -0.251 N 
ATOM     15  C   UNL d   1      52.716  34.989  54.014  0.00  0.00     0.378 A 
ATOM     16  O   UNL d   1      51.951  35.288  53.978  0.00  0.00    -0.258 OA
ATOM     17  O   UNL d   1      53.371  35.227  54.456  0.00  0.00    -0.237 OA
ATOM     18  C   UNL d   1      51.487  34.922  53.501  0.00  0.00     0.121 A 
ATOM     19  C   UNL d   1      50.692  35.018  53.285  0.00  0.00     0.026 A 
ATOM     20  C   UNL d   1      51.935  34.317  53.164  0.00  0.00     0.092 A 
ATOM     21  C   UNL d   1      50.347  34.506  52.730  0.00  0.00     0.002 A 
ATOM     22  C   UNL d   1      50.806  33.904  52.400  0.00  0.00     0.002 A 
ATOM     23  C   UNL d   1      51.598  33.811  52.618  0.00  0.00     0.020 A 
ENDBRANCH  13  14
ENDBRANCH   1  13
TORSDOF 5
ENDMDL
MODEL 6
REMARK VINA RESULT:      -6.4      2.015      5.842
REMARK  5 active torsions:
REMARK  status: ('A' for Active; 'I' for Inactive)
REMARK    1  A    between atoms: C_7  and  N_2 
REMARK    2  A    between atoms: C_6  and  C_8 
REMARK       I    between atoms: N_9  and  C_6 
REMARK    3  A    between atoms: C_8  and  C_7 
REMARK    4  A    between atoms: C_11  and  N_9 
REMARK    5  A    between atoms: C_13  and  C_11 
ROOT
ATOM      1  C   UNL d   1      48.931  35.189  52.614  0.00  0.00     0.080 C 
ENDROOT
BRANCH   1   2
ATOM      2  C   UNL d   1      49.555  34.798  52.243  0.00  0.00     0.266 C 
ATOM      3  N   UNL d   1      50.180  34.498  52.685  0.00  0.00    -0.270 N 
ATOM      4  C   UNL d   1      50.183  34.590  53.511  0.00  0.00     0.102 C 
ATOM      5  O   UNL d   1      49.553  34.706  51.423  0.00  0.00    -0.267 OA
BRANCH   3   6
ATOM      6  C   UNL d   1      50.799  34.109  52.315  0.00  0.00     0.083 C 
BRANCH   6   7
ATOM      7  C   UNL d   1      51.499  33.961  52.721  0.00  0.00     0.018 A 
ATOM      8  C   UNL d   1      52.046  34.568  52.857  0.00  0.00     0.002 A 
ATOM      9  C   UNL d   1      52.745  34.421  53.263  0.00  0.00     0.000 A 
ATOM     10  C   UNL d   1      52.908  33.667  53.538  0.00  0.00     0.000 A 
ATOM     11  C   UNL d   1      52.368  33.057  53.406  0.00  0.00     0.000 A 
ATOM     12  C   UNL d   1      51.659  33.208  52.994  0.00  0.00     0.002 A 
ENDBRANCH   6   7
ENDBRANCH   3   6
ENDBRANCH   1   2
BRANCH   1  13
ATOM     13  C   UNL d   1      48.430  35.678  52.182  0.00  0.00     0.090 C 
BRANCH  13  14
ATOM     14  N   UNL d   1      47.757  35.996  52.533  0.00  0.00    -0.251 N 
ATOM     15  C   UNL d   1      47.737  36.470  53.205  0.00  0.00     0.378 A 
ATOM     16  O   UNL d   1      46.935  36.624  53.302  0.00  0.00    -0.258 OA
ATOM     17  O   UNL d   1      48.392  36.708  53.647  0.00  0.00    -0.237 OA
ATOM     18  C   UNL d   1      46.484  36.307  52.780  0.00  0.00     0.121 A 
ATOM     19  C   UNL d   1      45.664  36.306  52.652  0.00  0.00     0.026 A 
ATOM     20  C   UNL d   1      46.981  35.894  52.267  0.00  0.00     0.092 A 
ATOM     21  C   UNL d   1      45.344  35.890  52.009  0.00  0.00     0.002 A 
ATOM     22  C   UNL d   1      45.852  35.480  51.503  0.00  0.00     0.002 A 
ATOM     23  C   UNL d   1      46.669  35.484  51.633  0.00  0.00     0.020 A 
ENDBRANCH  13  14
ENDBRANCH   1  13
TORSDOF 5
ENDMDL
