MODEL 1
REMARK VINA RESULT:      -6.1      0.000      0.000
REMARK  3 active torsions:
REMARK  status: ('A' for Active; 'I' for Inactive)
REMARK    1  A    between atoms: C_8  and  C_1 
REMARK    2  A    between atoms: N_5  and  C_2 
REMARK       I    between atoms: C_7  and  N_5 
REMARK    3  A    between atoms: C_10  and  C_7 
ROOT
ATOM      1  C   UNL d   1      58.871  -0.156  29.528  0.00  0.00     0.212 A 
ATOM      2  C   UNL d   1      57.782  -0.103  30.300  0.00  0.00     0.297 A 
ATOM      3  O   UNL d   1      58.436  -0.565  30.102  0.00  0.00    -0.253 OA
ATOM      4  N   UNL d   1      58.483   0.551  29.379  0.00  0.00    -0.119 NA
ATOM      5  N   UNL d   1      57.812   0.583  29.856  0.00  0.00    -0.101 NA
ENDROOT
BRANCH   2   6
ATOM      6  N   UNL d   1      57.204  -0.306  30.853  0.00  0.00    -0.165 NA
ATOM      7  C   UNL d   1      57.223   0.012  31.604  0.00  0.00     0.282 C 
ATOM      8  O   UNL d   1      57.819   0.542  31.822  0.00  0.00    -0.265 OA
BRANCH   7   9
ATOM      9  C   UNL d   1      56.642  -0.193  32.158  0.00  0.00     0.060 A 
ATOM     10  C   UNL d   1      56.483  -0.985  32.327  0.00  0.00     0.034 A 
ATOM     11  C   UNL d   1      55.905  -1.183  32.878  0.00  0.00     0.140 A 
ATOM     12  F   UNL d   1      55.743  -1.987  33.051  0.00  0.00    -0.204 F 
ATOM     13  C   UNL d   1      55.480  -0.591  33.266  0.00  0.00     0.030 A 
ATOM     14  C   UNL d   1      55.639   0.197  33.096  0.00  0.00     0.003 A 
ATOM     15  C   UNL d   1      56.214   0.399  32.548  0.00  0.00     0.005 A 
ENDBRANCH   7   9
ENDBRANCH   2   6
BRANCH   1  16
ATOM     16  C   UNL d   1      59.571  -0.422  29.174  0.00  0.00     0.072 A 
ATOM     17  S   UNL d   1      60.312  -0.075  29.247  0.00  0.00    -0.083 SA
ATOM     18  C   UNL d   1      60.845  -0.521  28.804  0.00  0.00     0.035 A 
ATOM     19  C   UNL d   1      60.431  -1.147  28.455  0.00  0.00     0.008 A 
ATOM     20  C   UNL d   1      59.639  -1.084  28.686  0.00  0.00     0.011 A 
ENDBRANCH   1  16
TORSDOF 3
ENDMDL
MODEL 2
REMARK VINA RESULT:      -4.9      2.076      4.708
REMARK  3 active torsions:
REMARK  status: ('A' for Active; 'I' for Inactive)
REMARK    1  A    between atoms: C_8  and  C_1 
REMARK    2  A    between atoms: N_5  and  C_2 
REMARK       I    between atoms: C_7  and  N_5 
REMARK    3  A    between atoms: C_10  and  C_7 
ROOT
ATOM      1  C   UNL d   1      56.917   0.018  31.659  0.00  0.00     0.212 A 
ATOM      2  C   UNL d   1      57.908   0.269  30.798  0.00  0.00     0.297 A 
ATOM      3  O   UNL d   1      57.710  -0.145  31.484  0.00  0.00    -0.253 OA
ATOM      4  N   UNL d   1      56.635   0.527  31.082  0.00  0.00    -0.119 NA
ATOM      5  N   UNL d   1      57.246   0.682  30.551  0.00  0.00    -0.101 NA
ENDROOT
BRANCH   2   6
ATOM      6  N   UNL d   1      58.647   0.260  30.432  0.00  0.00    -0.165 NA
ATOM      7  C   UNL d   1      58.722   0.001  29.662  0.00  0.00     0.282 C 
ATOM      8  O   UNL d   1      58.060  -0.256  29.238  0.00  0.00    -0.265 OA
BRANCH   7   9
ATOM      9  C   UNL d   1      59.465  -0.007  29.296  0.00  0.00     0.060 A 
ATOM     10  C   UNL d   1      59.927  -0.691  29.295  0.00  0.00     0.034 A 
ATOM     11  C   UNL d   1      60.663  -0.693  28.930  0.00  0.00     0.140 A 
ATOM     12  F   UNL d   1      61.133  -1.387  28.929  0.00  0.00    -0.204 F 
ATOM     13  C   UNL d   1      60.947  -0.011  28.562  0.00  0.00     0.030 A 
ATOM     14  C   UNL d   1      60.487   0.670  28.563  0.00  0.00     0.003 A 
ATOM     15  C   UNL d   1      59.752   0.676  28.925  0.00  0.00     0.005 A 
ENDBRANCH   7   9
ENDBRANCH   2   6
BRANCH   1  16
ATOM     16  C   UNL d   1      56.494  -0.285  32.304  0.00  0.00     0.072 A 
ATOM     17  S   UNL d   1      56.218   0.145  32.946  0.00  0.00    -0.083 SA
ATOM     18  C   UNL d   1      55.829  -0.376  33.452  0.00  0.00     0.035 A 
ATOM     19  C   UNL d   1      55.866  -1.134  33.120  0.00  0.00     0.008 A 
ATOM     20  C   UNL d   1      56.280  -1.075  32.406  0.00  0.00     0.011 A 
ENDBRANCH   1  16
TORSDOF 3
ENDMDL
MODEL 3
REMARK VINA RESULT:      -3.5      2.536      5.072
REMARK  3 active torsions:
REMARK  status: ('A' for Active; 'I' for Inactive)
REMARK    1  A    between atoms: C_8  and  C_1 
REMARK    2  A    between atoms: N_5  and  C_2 
REMARK       I    between atoms: C_7  and  N_5 
REMARK    3  A    between atoms: C_10  and  C_7 
ROOT
ATOM      1  C   UNL d   1      55.955   0.041  33.327  0.00  0.00     0.212 A 
ATOM      2  C   UNL d   1      56.846   0.048  32.332  0.00  0.00     0.297 A 
ATOM      3  O   UNL d   1      56.538   0.495  32.953  0.00  0.00    -0.253 OA
ATOM      4  N   UNL d   1      55.909  -0.677  32.934  0.00  0.00    -0.119 NA
ATOM      5  N   UNL d   1      56.458  -0.673  32.320  0.00  0.00    -0.101 NA
ENDROOT
BRANCH   2   6
ATOM      6  N   UNL d   1      57.441   0.295  31.817  0.00  0.00    -0.165 NA
ATOM      7  C   UNL d   1      57.543  -0.077  31.098  0.00  0.00     0.282 C 
ATOM      8  O   UNL d   1      57.053  -0.705  30.876  0.00  0.00    -0.265 OA
BRANCH   7   9
ATOM      9  C   UNL d   1      58.141   0.171  30.581  0.00  0.00     0.060 A 
ATOM     10  C   UNL d   1      57.980   0.302  29.782  0.00  0.00     0.034 A 
ATOM     11  C   UNL d   1      58.578   0.549  29.274  0.00  0.00     0.140 A 
ATOM     12  F   UNL d   1      58.416   0.682  28.463  0.00  0.00    -0.204 F 
ATOM     13  C   UNL d   1      59.343   0.668  29.559  0.00  0.00     0.030 A 
ATOM     14  C   UNL d   1      59.503   0.538  30.355  0.00  0.00     0.003 A 
ATOM     15  C   UNL d   1      58.910   0.292  30.865  0.00  0.00     0.005 A 
ENDBRANCH   7   9
ENDBRANCH   2   6
BRANCH   1  16
ATOM     16  C   UNL d   1      55.504   0.279  33.980  0.00  0.00     0.072 A 
ATOM     17  S   UNL d   1      54.687   0.359  34.000  0.00  0.00    -0.083 SA
ATOM     18  C   UNL d   1      54.475   0.606  34.757  0.00  0.00     0.035 A 
ATOM     19  C   UNL d   1      55.166   0.679  35.208  0.00  0.00     0.008 A 
ATOM     20  C   UNL d   1      55.805   0.475  34.723  0.00  0.00     0.011 A 
ENDBRANCH   1  16
TORSDOF 3
ENDMDL
