MODEL 1
REMARK VINA RESULT:      -4.8      0.000      0.000
REMARK  7 active torsions:
REMARK  status: ('A' for Active; 'I' for Inactive)
REMARK    1  A    between atoms: N_2  and  S_1 
REMARK    2  A    between atoms: C_3  and  S_1 
REMARK    3  A    between atoms: C_4  and  C_7 
REMARK       I    between atoms: N_5  and  C_4 
REMARK    4  A    between atoms: C_15  and  N_5 
REMARK    5  A    between atoms: C_6  and  C_11 
REMARK    6  A    between atoms: O_20  and  C_6 
REMARK    7  A    between atoms: C_28  and  O_20 
ROOT
ATOM      1  C   UNL d   1      59.247  -1.072  29.054  0.00  0.00     0.104 A 
ATOM      2  C   UNL d   1      58.389  -0.118  29.690  0.00  0.00     0.059 A 
ATOM      3  C   UNL d   1      58.715  -0.856  29.648  0.00  0.00     0.018 A 
ATOM      4  C   UNL d   1      59.458  -0.484  28.458  0.00  0.00     0.013 A 
ATOM      5  C   UNL d   1      58.600   0.470  29.095  0.00  0.00     0.005 A 
ATOM      6  C   UNL d   1      59.119   0.267  28.509  0.00  0.00     0.001 A 
ENDROOT
BRANCH   2   7
ATOM      7  C   UNL d   1      57.862   0.067  30.294  0.00  0.00     0.279 C 
ATOM      8  N   UNL d   1      57.931  -0.283  31.030  0.00  0.00    -0.208 NA
ATOM      9  O   UNL d   1      57.229   0.614  30.213  0.00  0.00    -0.265 OA
BRANCH   8  10
ATOM     10  C   UNL d   1      57.397  -0.097  31.648  0.00  0.00     0.085 A 
ATOM     11  C   UNL d   1      57.587   0.511  32.202  0.00  0.00     0.019 A 
ATOM     12  C   UNL d   1      57.015   0.682  32.831  0.00  0.00     0.007 A 
ATOM     13  C   UNL d   1      56.284   0.243  32.878  0.00  0.00     0.064 A 
ATOM     14  C   UNL d   1      56.109  -0.348  32.330  0.00  0.00     0.007 A 
ATOM     15  C   UNL d   1      56.656  -0.533  31.706  0.00  0.00     0.019 A 
BRANCH  13  16
ATOM     16  C   UNL d   1      55.737   0.392  33.462  0.00  0.00     0.300 C 
ATOM     17  O   UNL d   1      54.981   0.611  33.312  0.00  0.00    -0.259 OA
BRANCH  16  18
ATOM     18  O   UNL d   1      55.888   0.339  34.266  0.00  0.00    -0.271 OA
BRANCH  18  19
ATOM     19  C   UNL d   1      55.374   0.679  34.799  0.00  0.00     0.126 C 
ATOM     20  C   UNL d   1      55.492   0.576  35.582  0.00  0.00     0.029 C 
ENDBRANCH  18  19
ENDBRANCH  16  18
ENDBRANCH  13  16
ENDBRANCH   8  10
ENDBRANCH   2   7
BRANCH   1  21
ATOM     21  S   UNL d   1      59.571  -1.832  29.026  0.00  0.00     0.272 S 
ATOM     22  O   UNL d   1      58.808  -2.180  28.970  0.00  0.00    -0.200 OA
ATOM     23  O   UNL d   1      60.325  -1.509  29.080  0.00  0.00    -0.200 OA
BRANCH  21  24
ATOM     24  N   UNL d   1      59.904  -2.580  29.000  0.00  0.00    -0.225 N 
ATOM     25  C   UNL d   1      59.532  -3.169  28.589  0.00  0.00     0.118 A 
ATOM     26  C   UNL d   1      59.853  -3.921  28.554  0.00  0.00     0.142 A 
ATOM     27  O   UNL d   1      60.551  -4.085  28.933  0.00  0.00    -0.300 OA
ATOM     28  C   UNL d   1      60.940  -3.481  29.359  0.00  0.00     0.142 A 
ATOM     29  C   UNL d   1      60.614  -2.729  29.391  0.00  0.00     0.118 A 
ENDBRANCH  21  24
ENDBRANCH   1  21
TORSDOF 7
ENDMDL
