MODEL 1
REMARK VINA RESULT:      -7.4      0.000      0.000
REMARK  3 active torsions:
REMARK  status: ('A' for Active; 'I' for Inactive)
REMARK    1  A    between atoms: C_7  and  N_1 
REMARK    2  A    between atoms: C_6  and  C_3 
REMARK    3  A    between atoms: O_16  and  C_13 
ROOT
ATOM      1  N   UNL d   1     -48.487  13.446  22.490  0.00  0.00    -0.273 N 
ATOM      2  C   UNL d   1     -48.754  13.268  21.729  0.00  0.00     0.265 A 
ATOM      3  C   UNL d   1     -49.554  14.384  22.645  0.00  0.00     0.087 A 
ATOM      4  C   UNL d   1     -48.888  14.004  22.948  0.00  0.00     0.089 A 
ATOM      5  C   UNL d   1     -49.421  13.648  21.426  0.00  0.00     0.069 A 
ATOM      6  O   UNL d   1     -48.354  12.710  21.272  0.00  0.00    -0.267 OA
ENDROOT
BRANCH   1   7
ATOM      7  C   UNL d   1     -47.821  13.065  22.793  0.00  0.00     0.067 A 
ATOM      8  C   UNL d   1     -47.071  13.358  22.622  0.00  0.00     0.020 A 
ATOM      9  C   UNL d   1     -46.412  12.983  22.921  0.00  0.00     0.026 A 
ATOM     10  C   UNL d   1     -46.492  12.307  23.397  0.00  0.00     0.094 A 
ATOM     11  C   UNL d   1     -47.246  12.016  23.566  0.00  0.00     0.026 A 
ATOM     12  C   UNL d   1     -47.912  12.396  23.264  0.00  0.00     0.020 A 
BRANCH  10  13
ATOM     13  O   UNL d   1     -45.822  11.930  23.698  0.00  0.00    -0.328 OA
ATOM     14  C   UNL d   1     -45.756  11.108  23.663  0.00  0.00     0.181 C 
ENDBRANCH  10  13
ENDBRANCH   1   7
BRANCH   3  15
ATOM     15  C   UNL d   1     -50.129  15.008  22.958  0.00  0.00     0.212 C 
ATOM     16  O   UNL d   1     -50.062  15.871  22.674  0.00  0.00    -0.644 OA
ATOM     17  O   UNL d   1     -50.776  14.778  23.556  0.00  0.00    -0.644 OA
ENDBRANCH   3  15
TORSDOF 3
ENDMDL
MODEL 2
REMARK VINA RESULT:      -7.1      1.627      3.691
REMARK  3 active torsions:
REMARK  status: ('A' for Active; 'I' for Inactive)
REMARK    1  A    between atoms: C_7  and  N_1 
REMARK    2  A    between atoms: C_6  and  C_3 
REMARK    3  A    between atoms: O_16  and  C_13 
ROOT
ATOM      1  N   UNL d   1     -47.504  13.225  22.831  0.00  0.00    -0.273 N 
ATOM      2  C   UNL d   1     -47.433  14.043  22.920  0.00  0.00     0.265 A 
ATOM      3  C   UNL d   1     -46.094  13.125  22.621  0.00  0.00     0.087 A 
ATOM      4  C   UNL d   1     -46.834  12.766  22.682  0.00  0.00     0.089 A 
ATOM      5  C   UNL d   1     -46.693  14.402  22.860  0.00  0.00     0.069 A 
ATOM      6  O   UNL d   1     -48.103  14.502  23.070  0.00  0.00    -0.267 OA
ENDROOT
BRANCH   1   7
ATOM      7  C   UNL d   1     -48.245  12.866  22.892  0.00  0.00     0.067 A 
ATOM      8  C   UNL d   1     -48.740  12.840  22.235  0.00  0.00     0.020 A 
ATOM      9  C   UNL d   1     -49.472  12.486  22.295  0.00  0.00     0.026 A 
ATOM     10  C   UNL d   1     -49.721  12.151  23.012  0.00  0.00     0.094 A 
ATOM     11  C   UNL d   1     -49.221  12.179  23.669  0.00  0.00     0.026 A 
ATOM     12  C   UNL d   1     -48.482  12.538  23.608  0.00  0.00     0.020 A 
BRANCH  10  13
ATOM     13  O   UNL d   1     -50.463  11.794  23.068  0.00  0.00    -0.328 OA
ATOM     14  C   UNL d   1     -51.064  12.147  23.509  0.00  0.00     0.181 C 
ENDBRANCH  10  13
ENDBRANCH   1   7
BRANCH   3  15
ATOM     15  C   UNL d   1     -45.254  12.830  22.467  0.00  0.00     0.212 C 
ATOM     16  O   UNL d   1     -44.921  12.134  22.951  0.00  0.00    -0.644 OA
ATOM     17  O   UNL d   1     -44.737  13.226  21.830  0.00  0.00    -0.644 OA
ENDBRANCH   3  15
TORSDOF 3
ENDMDL
MODEL 3
REMARK VINA RESULT:      -6.9      0.836      3.768
REMARK  3 active torsions:
REMARK  status: ('A' for Active; 'I' for Inactive)
REMARK    1  A    between atoms: C_7  and  N_1 
REMARK    2  A    between atoms: C_6  and  C_3 
REMARK    3  A    between atoms: O_16  and  C_13 
ROOT
ATOM      1  N   UNL d   1     -48.206  13.478  22.559  0.00  0.00    -0.273 N 
ATOM      2  C   UNL d   1     -48.390  13.014  21.901  0.00  0.00     0.265 A 
ATOM      3  C   UNL d   1     -47.012  12.719  22.761  0.00  0.00     0.087 A 
ATOM      4  C   UNL d   1     -47.517  13.330  22.989  0.00  0.00     0.089 A 
ATOM      5  C   UNL d   1     -47.884  12.403  21.673  0.00  0.00     0.069 A 
ATOM      6  O   UNL d   1     -49.079  13.162  21.471  0.00  0.00    -0.267 OA
ENDROOT
BRANCH   1   7
ATOM      7  C   UNL d   1     -48.712  14.089  22.787  0.00  0.00     0.067 A 
ATOM      8  C   UNL d   1     -48.539  14.864  22.570  0.00  0.00     0.020 A 
ATOM      9  C   UNL d   1     -49.038  15.468  22.795  0.00  0.00     0.026 A 
ATOM     10  C   UNL d   1     -49.720  15.307  23.241  0.00  0.00     0.094 A 
ATOM     11  C   UNL d   1     -49.889  14.528  23.457  0.00  0.00     0.026 A 
ATOM     12  C   UNL d   1     -49.385  13.918  23.229  0.00  0.00     0.020 A 
BRANCH  10  13
ATOM     13  O   UNL d   1     -50.222  15.921  23.467  0.00  0.00    -0.328 OA
ATOM     14  C   UNL d   1     -51.015  15.770  23.639  0.00  0.00     0.181 C 
ENDBRANCH  10  13
ENDBRANCH   1   7
BRANCH   3  15
ATOM     15  C   UNL d   1     -46.230  12.390  23.072  0.00  0.00     0.212 C 
ATOM     16  O   UNL d   1     -45.441  12.719  22.760  0.00  0.00    -0.644 OA
ATOM     17  O   UNL d   1     -46.228  11.728  23.698  0.00  0.00    -0.644 OA
ENDBRANCH   3  15
TORSDOF 3
ENDMDL
MODEL 4
REMARK VINA RESULT:      -6.7      1.604      2.237
REMARK  3 active torsions:
REMARK  status: ('A' for Active; 'I' for Inactive)
REMARK    1  A    between atoms: C_7  and  N_1 
REMARK    2  A    between atoms: C_6  and  C_3 
REMARK    3  A    between atoms: O_16  and  C_13 
ROOT
ATOM      1  N   UNL d   1     -48.423  13.283  22.991  0.00  0.00    -0.273 N 
ATOM      2  C   UNL d   1     -48.902  13.955  22.979  0.00  0.00     0.265 A 
ATOM      3  C   UNL d   1     -49.555  12.484  23.343  0.00  0.00     0.087 A 
ATOM      4  C   UNL d   1     -48.750  12.547  23.173  0.00  0.00     0.089 A 
ATOM      5  C   UNL d   1     -49.706  13.892  23.148  0.00  0.00     0.069 A 
ATOM      6  O   UNL d   1     -48.574  14.691  22.796  0.00  0.00    -0.267 OA
ENDROOT
BRANCH   1   7
ATOM      7  C   UNL d   1     -47.618  13.346  22.821  0.00  0.00     0.067 A 
ATOM      8  C   UNL d   1     -47.091  13.561  23.416  0.00  0.00     0.020 A 
ATOM      9  C   UNL d   1     -46.296  13.624  23.249  0.00  0.00     0.026 A 
ATOM     10  C   UNL d   1     -46.013  13.472  22.483  0.00  0.00     0.094 A 
ATOM     11  C   UNL d   1     -46.545  13.256  21.889  0.00  0.00     0.026 A 
ATOM     12  C   UNL d   1     -47.349  13.193  22.059  0.00  0.00     0.020 A 
BRANCH  10  13
ATOM     13  O   UNL d   1     -45.207  13.536  22.318  0.00  0.00    -0.328 OA
ATOM     14  C   UNL d   1     -44.817  12.937  21.906  0.00  0.00     0.181 C 
ENDBRANCH  10  13
ENDBRANCH   1   7
BRANCH   3  15
ATOM     15  C   UNL d   1     -50.109  11.804  23.561  0.00  0.00     0.212 C 
ATOM     16  O   UNL d   1     -49.771  10.969  23.698  0.00  0.00    -0.644 OA
ATOM     17  O   UNL d   1     -51.003  11.949  23.646  0.00  0.00    -0.644 OA
ENDBRANCH   3  15
TORSDOF 3
ENDMDL
MODEL 5
REMARK VINA RESULT:      -5.3      8.494      9.383
REMARK  3 active torsions:
REMARK  status: ('A' for Active; 'I' for Inactive)
REMARK    1  A    between atoms: C_7  and  N_1 
REMARK    2  A    between atoms: C_6  and  C_3 
REMARK    3  A    between atoms: O_16  and  C_13 
ROOT
ATOM      1  N   UNL d   1     -40.009  14.899  18.967  0.00  0.00    -0.273 N 
ATOM      2  C   UNL d   1     -39.642  14.191  18.750  0.00  0.00     0.265 A 
ATOM      3  C   UNL d   1     -40.434  15.092  17.615  0.00  0.00     0.087 A 
ATOM      4  C   UNL d   1     -40.405  15.349  18.399  0.00  0.00     0.089 A 
ATOM      5  C   UNL d   1     -39.671  13.935  17.967  0.00  0.00     0.069 A 
ATOM      6  O   UNL d   1     -39.246  13.741  19.318  0.00  0.00    -0.267 OA
ENDROOT
BRANCH   1   7
ATOM      7  C   UNL d   1     -39.980  15.156  19.750  0.00  0.00     0.067 A 
ATOM      8  C   UNL d   1     -40.552  14.901  20.285  0.00  0.00     0.020 A 
ATOM      9  C   UNL d   1     -40.524  15.154  21.059  0.00  0.00     0.026 A 
ATOM     10  C   UNL d   1     -39.923  15.668  21.312  0.00  0.00     0.094 A 
ATOM     11  C   UNL d   1     -39.351  15.921  20.773  0.00  0.00     0.026 A 
ATOM     12  C   UNL d   1     -39.380  15.665  19.991  0.00  0.00     0.020 A 
BRANCH  10  13
ATOM     13  O   UNL d   1     -39.898  15.922  22.097  0.00  0.00    -0.328 OA
ATOM     14  C   UNL d   1     -39.193  15.887  22.525  0.00  0.00     0.181 C 
ENDBRANCH  10  13
ENDBRANCH   1   7
BRANCH   3  15
ATOM     15  C   UNL d   1     -40.798  15.412  16.853  0.00  0.00     0.212 C 
ATOM     16  O   UNL d   1     -40.296  15.920  16.288  0.00  0.00    -0.644 OA
ATOM     17  O   UNL d   1     -41.666  15.230  16.647  0.00  0.00    -0.644 OA
ENDBRANCH   3  15
TORSDOF 3
ENDMDL
MODEL 6
REMARK VINA RESULT:      -5.1      9.003      9.848
REMARK  3 active torsions:
REMARK  status: ('A' for Active; 'I' for Inactive)
REMARK    1  A    between atoms: C_7  and  N_1 
REMARK    2  A    between atoms: C_6  and  C_3 
REMARK    3  A    between atoms: O_16  and  C_13 
ROOT
ATOM      1  N   UNL d   1     -39.513  15.121  19.385  0.00  0.00    -0.273 N 
ATOM      2  C   UNL d   1     -38.733  15.391  19.352  0.00  0.00     0.265 A 
ATOM      3  C   UNL d   1     -39.345  14.806  20.770  0.00  0.00     0.087 A 
ATOM      4  C   UNL d   1     -39.819  14.829  20.094  0.00  0.00     0.089 A 
ATOM      5  C   UNL d   1     -38.260  15.368  20.028  0.00  0.00     0.069 A 
ATOM      6  O   UNL d   1     -38.428  15.683  18.643  0.00  0.00    -0.267 OA
ENDROOT
BRANCH   1   7
ATOM      7  C   UNL d   1     -39.986  15.143  18.710  0.00  0.00     0.067 A 
ATOM      8  C   UNL d   1     -40.037  14.480  18.225  0.00  0.00     0.020 A 
ATOM      9  C   UNL d   1     -40.505  14.502  17.558  0.00  0.00     0.026 A 
ATOM     10  C   UNL d   1     -40.930  15.188  17.363  0.00  0.00     0.094 A 
ATOM     11  C   UNL d   1     -40.876  15.851  17.852  0.00  0.00     0.026 A 
ATOM     12  C   UNL d   1     -40.404  15.829  18.527  0.00  0.00     0.020 A 
BRANCH  10  13
ATOM     13  O   UNL d   1     -41.402  15.205  16.687  0.00  0.00    -0.328 OA
ATOM     14  C   UNL d   1     -41.703  15.921  16.406  0.00  0.00     0.181 C 
ENDBRANCH  10  13
ENDBRANCH   1   7
BRANCH   3  15
ATOM     15  C   UNL d   1     -39.467  14.537  21.624  0.00  0.00     0.212 C 
ATOM     16  O   UNL d   1     -39.405  15.140  22.303  0.00  0.00    -0.644 OA
ATOM     17  O   UNL d   1     -39.650  13.665  21.809  0.00  0.00    -0.644 OA
ENDBRANCH   3  15
TORSDOF 3
ENDMDL
MODEL 7
REMARK VINA RESULT:      -5.1      8.966     10.339
REMARK  3 active torsions:
REMARK  status: ('A' for Active; 'I' for Inactive)
REMARK    1  A    between atoms: C_7  and  N_1 
REMARK    2  A    between atoms: C_6  and  C_3 
REMARK    3  A    between atoms: O_16  and  C_13 
ROOT
ATOM      1  N   UNL d   1     -39.646  14.239  18.567  0.00  0.00    -0.273 N 
ATOM      2  C   UNL d   1     -40.470  14.194  18.565  0.00  0.00     0.265 A 
ATOM      3  C   UNL d   1     -39.675  14.723  19.912  0.00  0.00     0.087 A 
ATOM      4  C   UNL d   1     -39.248  14.503  19.241  0.00  0.00     0.089 A 
ATOM      5  C   UNL d   1     -40.897  14.414  19.236  0.00  0.00     0.069 A 
ATOM      6  O   UNL d   1     -40.868  13.930  17.891  0.00  0.00    -0.267 OA
ENDROOT
BRANCH   1   7
ATOM      7  C   UNL d   1     -39.219  14.019  17.896  0.00  0.00     0.067 A 
ATOM      8  C   UNL d   1     -38.911  13.257  17.840  0.00  0.00     0.020 A 
ATOM      9  C   UNL d   1     -38.489  13.040  17.177  0.00  0.00     0.026 A 
ATOM     10  C   UNL d   1     -38.368  13.580  16.558  0.00  0.00     0.094 A 
ATOM     11  C   UNL d   1     -38.679  14.343  16.618  0.00  0.00     0.026 A 
ATOM     12  C   UNL d   1     -39.106  14.562  17.288  0.00  0.00     0.020 A 
BRANCH  10  13
ATOM     13  O   UNL d   1     -37.941  13.355  15.889  0.00  0.00    -0.328 OA
ATOM     14  C   UNL d   1     -37.990  13.799  15.195  0.00  0.00     0.181 C 
ENDBRANCH  10  13
ENDBRANCH   1   7
BRANCH   3  15
ATOM     15  C   UNL d   1     -39.457  15.031  20.733  0.00  0.00     0.212 C 
ATOM     16  O   UNL d   1     -39.368  14.450  21.428  0.00  0.00    -0.644 OA
ATOM     17  O   UNL d   1     -39.325  15.922  20.869  0.00  0.00    -0.644 OA
ENDBRANCH   3  15
TORSDOF 3
ENDMDL
MODEL 8
REMARK VINA RESULT:      -4.8      8.396      9.097
REMARK  3 active torsions:
REMARK  status: ('A' for Active; 'I' for Inactive)
REMARK    1  A    between atoms: C_7  and  N_1 
REMARK    2  A    between atoms: C_6  and  C_3 
REMARK    3  A    between atoms: O_16  and  C_13 
ROOT
ATOM      1  N   UNL d   1     -40.023  14.895  20.329  0.00  0.00    -0.273 N 
ATOM      2  C   UNL d   1     -40.481  15.567  20.476  0.00  0.00     0.265 A 
ATOM      3  C   UNL d   1     -40.442  14.909  18.962  0.00  0.00     0.087 A 
ATOM      4  C   UNL d   1     -40.004  14.567  19.572  0.00  0.00     0.089 A 
ATOM      5  C   UNL d   1     -40.919  15.909  19.867  0.00  0.00     0.069 A 
ATOM      6  O   UNL d   1     -40.500  15.895  21.233  0.00  0.00    -0.267 OA
ENDROOT
BRANCH   1   7
ATOM      7  C   UNL d   1     -39.585  14.553  20.938  0.00  0.00     0.067 A 
ATOM      8  C   UNL d   1     -39.950  14.033  21.461  0.00  0.00     0.020 A 
ATOM      9  C   UNL d   1     -39.517  13.695  22.063  0.00  0.00     0.026 A 
ATOM     10  C   UNL d   1     -38.710  13.871  22.154  0.00  0.00     0.094 A 
ATOM     11  C   UNL d   1     -38.348  14.394  21.627  0.00  0.00     0.026 A 
ATOM     12  C   UNL d   1     -38.786  14.735  21.018  0.00  0.00     0.020 A 
BRANCH  10  13
ATOM     13  O   UNL d   1     -38.276  13.526  22.764  0.00  0.00    -0.328 OA
ATOM     14  C   UNL d   1     -38.248  13.883  23.509  0.00  0.00     0.181 C 
ENDBRANCH  10  13
ENDBRANCH   1   7
BRANCH   3  15
ATOM     15  C   UNL d   1     -40.567  14.725  18.086  0.00  0.00     0.212 C 
ATOM     16  O   UNL d   1     -40.226  15.282  17.452  0.00  0.00    -0.644 OA
ATOM     17  O   UNL d   1     -41.033  13.984  17.835  0.00  0.00    -0.644 OA
ENDBRANCH   3  15
TORSDOF 3
ENDMDL
MODEL 9
REMARK VINA RESULT:      -4.5      9.319     10.836
REMARK  3 active torsions:
REMARK  status: ('A' for Active; 'I' for Inactive)
REMARK    1  A    between atoms: C_7  and  N_1 
REMARK    2  A    between atoms: C_6  and  C_3 
REMARK    3  A    between atoms: O_16  and  C_13 
ROOT
ATOM      1  N   UNL d   1     -39.063  14.125  17.553  0.00  0.00    -0.273 N 
ATOM      2  C   UNL d   1     -38.814  13.354  17.712  0.00  0.00     0.265 A 
ATOM      3  C   UNL d   1     -38.422  14.068  16.276  0.00  0.00     0.087 A 
ATOM      4  C   UNL d   1     -38.866  14.482  16.835  0.00  0.00     0.089 A 
ATOM      5  C   UNL d   1     -38.369  12.940  17.154  0.00  0.00     0.069 A 
ATOM      6  O   UNL d   1     -39.011  12.997  18.430  0.00  0.00    -0.267 OA
ENDROOT
BRANCH   1   7
ATOM      7  C   UNL d   1     -39.508  14.539  18.111  0.00  0.00     0.067 A 
ATOM      8  C   UNL d   1     -40.321  14.419  18.155  0.00  0.00     0.020 A 
ATOM      9  C   UNL d   1     -40.760  14.828  18.706  0.00  0.00     0.026 A 
ATOM     10  C   UNL d   1     -40.395  15.364  19.224  0.00  0.00     0.094 A 
ATOM     11  C   UNL d   1     -39.579  15.481  19.177  0.00  0.00     0.026 A 
ATOM     12  C   UNL d   1     -39.134  15.068  18.620  0.00  0.00     0.020 A 
BRANCH  10  13
ATOM     13  O   UNL d   1     -40.844  15.775  19.781  0.00  0.00    -0.328 OA
ATOM     14  C   UNL d   1     -40.790  15.586  20.583  0.00  0.00     0.181 C 
ENDBRANCH  10  13
ENDBRANCH   1   7
BRANCH   3  15
ATOM     15  C   UNL d   1     -38.101  14.255  15.452  0.00  0.00     0.212 C 
ATOM     16  O   UNL d   1     -37.940  15.118  15.212  0.00  0.00    -0.644 OA
ATOM     17  O   UNL d   1     -37.940  13.582  14.860  0.00  0.00    -0.644 OA
ENDBRANCH   3  15
TORSDOF 3
ENDMDL
