MODEL 1
REMARK VINA RESULT:       3.4      0.000      0.000
REMARK  5 active torsions:
REMARK  status: ('A' for Active; 'I' for Inactive)
REMARK    1  A    between atoms: C_12  and  C_3 
REMARK    2  A    between atoms: C_13  and  N_5 
REMARK    3  A    between atoms: C_11  and  C_6 
REMARK    4  A    between atoms: O_24  and  C_12 
REMARK    5  A    between atoms: C_14  and  C_13 
ROOT
ATOM      1  C   UNL d   1      58.223  -1.664  30.010  0.00  0.00     0.080 A 
ATOM      2  C   UNL d   1      58.749  -1.885  29.400  0.00  0.00     0.267 A 
ATOM      3  C   UNL d   1      57.759  -0.696  30.946  0.00  0.00     0.106 A 
ATOM      4  C   UNL d   1      57.656  -2.198  30.269  0.00  0.00     0.108 A 
ATOM      5  N   UNL d   1      58.697  -2.641  29.059  0.00  0.00    -0.271 N 
ATOM      6  C   UNL d   1      58.274  -0.913  30.349  0.00  0.00     0.015 A 
ATOM      7  C   UNL d   1      57.185  -1.233  31.211  0.00  0.00     0.208 A 
ATOM      8  O   UNL d   1      57.133  -1.983  30.873  0.00  0.00    -0.288 OA
ATOM      9  C   UNL d   1      57.597  -2.951  29.937  0.00  0.00     0.043 A 
ATOM     10  C   UNL d   1      58.114  -3.177  29.333  0.00  0.00     0.069 A 
ATOM     11  O   UNL d   1      59.327  -1.347  29.132  0.00  0.00    -0.267 OA
ATOM     12  N   UNL d   1      56.664  -1.013  31.815  0.00  0.00    -0.121 N 
ATOM     13  C   UNL d   1      58.057  -3.939  28.994  0.00  0.00     0.019 C 
ENDROOT
BRANCH   6  14
ATOM     14  C   UNL d   1      58.847  -0.382  30.082  0.00  0.00     0.001 A 
ATOM     15  C   UNL d   1      59.578  -0.343  30.464  0.00  0.00     0.011 A 
ATOM     16  C   UNL d   1      60.152   0.185  30.202  0.00  0.00     0.058 A 
ATOM     17 CL   UNL d   1      60.884   0.220  30.588  0.00  0.00    -0.082 Cl
ATOM     18  C   UNL d   1      59.994   0.679  29.552  0.00  0.00     0.011 A 
ATOM     19  C   UNL d   1      59.263   0.639  29.171  0.00  0.00     0.001 A 
ATOM     20  C   UNL d   1      58.689   0.108  29.437  0.00  0.00     0.000 A 
ENDBRANCH   6  14
BRANCH   3  21
ATOM     21  C   UNL d   1      57.811   0.054  31.284  0.00  0.00     0.299 C 
ATOM     22  O   UNL d   1      57.380   0.680  30.972  0.00  0.00    -0.259 OA
BRANCH  21  23
ATOM     23  O   UNL d   1      58.297   0.180  31.940  0.00  0.00    -0.296 OA
ATOM     24  C   UNL d   1      58.039   0.651  32.573  0.00  0.00     0.185 C 
ENDBRANCH  21  23
ENDBRANCH   3  21
BRANCH   5  25
ATOM     25  C   UNL d   1      59.218  -2.861  28.455  0.00  0.00     0.108 C 
BRANCH  25  26
ATOM     26  C   UNL d   1      59.887  -3.310  28.630  0.00  0.00     0.118 A 
ATOM     27  O   UNL d   1      59.946  -4.135  28.587  0.00  0.00    -0.304 OA
ATOM     28  C   UNL d   1      60.710  -4.353  28.808  0.00  0.00     0.123 A 
ATOM     29  C   UNL d   1      61.126  -3.664  28.988  0.00  0.00     0.029 A 
ATOM     30  C   UNL d   1      60.619  -3.015  28.879  0.00  0.00     0.028 A 
ENDBRANCH  25  26
ENDBRANCH   5  25
TORSDOF 5
ENDMDL
