MODEL 1
REMARK VINA RESULT:      15.5      0.000      0.000
REMARK  2 active torsions:
REMARK  status: ('A' for Active; 'I' for Inactive)
REMARK    1  A    between atoms: C_3  and  C_1 
REMARK       I    between atoms: N_6  and  C_3 
REMARK    2  A    between atoms: C_11  and  N_6 
ROOT
ATOM      1  C   UNL d   1      46.258 -17.953  43.641  0.00  0.00     0.121 A 
ATOM      2  C   UNL d   1      46.287 -18.653  44.105  0.00  0.00     0.305 A 
ATOM      3  C   UNL d   1      46.335 -18.004  42.820  0.00  0.00     0.012 A 
ATOM      4  O   UNL d   1      46.393 -19.397  43.743  0.00  0.00    -0.273 OA
ATOM      5  C   UNL d   1      46.439 -18.743  42.465  0.00  0.00     0.023 A 
ATOM      6  C   UNL d   1      46.468 -19.430  42.920  0.00  0.00     0.103 A 
ATOM      7  O   UNL d   1      46.212 -18.646  44.950  0.00  0.00    -0.259 OA
ATOM      8  C   UNL d   1      46.513 -18.771  41.652  0.00  0.00     0.002 A 
ATOM      9  C   UNL d   1      46.571 -20.164  42.575  0.00  0.00     0.025 A 
ATOM     10  C   UNL d   1      46.647 -20.199  41.749  0.00  0.00     0.002 A 
ATOM     11  C   UNL d   1      46.618 -19.500  41.285  0.00  0.00     0.000 A 
ENDROOT
BRANCH   1  12
ATOM     12  C   UNL d   1      46.152 -17.195  43.988  0.00  0.00     0.284 C 
ATOM     13  N   UNL d   1      45.962 -16.541  43.524  0.00  0.00    -0.208 NA
ATOM     14  O   UNL d   1      46.247 -17.132  44.815  0.00  0.00    -0.265 OA
BRANCH  13  15
ATOM     15  C   UNL d   1      45.861 -15.798  43.881  0.00  0.00     0.085 A 
ATOM     16  C   UNL d   1      45.142 -15.594  44.232  0.00  0.00     0.019 A 
ATOM     17  C   UNL d   1      45.054 -14.873  44.575  0.00  0.00     0.002 A 
ATOM     18  C   UNL d   1      44.339 -14.670  44.924  0.00  0.00     0.000 C 
ATOM     19  C   UNL d   1      45.671 -14.335  44.583  0.00  0.00     0.000 A 
ATOM     20  C   UNL d   1      46.410 -14.545  44.223  0.00  0.00     0.002 A 
ATOM     21  C   UNL d   1      45.562 -13.586  44.946  0.00  0.00     0.000 C 
ATOM     22  C   UNL d   1      46.491 -15.282  43.875  0.00  0.00     0.019 A 
ENDBRANCH  13  15
ENDBRANCH   1  12
TORSDOF 2
ENDMDL
