MODEL 1
REMARK VINA RESULT:      24.1      0.000      0.000
REMARK  3 active torsions:
REMARK  status: ('A' for Active; 'I' for Inactive)
REMARK    1  A    between atoms: C_6  and  C_1 
REMARK    2  A    between atoms: C_7  and  C_6 
REMARK    3  A    between atoms: O_17  and  C_15 
ROOT
ATOM      1  C   UNL d   1      59.038  49.707  51.251  0.00  0.00     0.141 A 
ATOM      2  C   UNL d   1      57.705  49.707  51.186  0.00  0.00     0.064 A 
ATOM      3  C   UNL d   1      58.346  49.707  51.700  0.00  0.00     0.220 A 
ATOM      4  C   UNL d   1      57.996  49.707  50.413  0.00  0.00     0.105 A 
ATOM      5  O   UNL d   1      58.827  49.707  50.449  0.00  0.00    -0.304 OA
ATOM      6  C   UNL d   1      57.477  49.707  49.781  0.00  0.00     0.049 A 
ATOM      7  C   UNL d   1      56.891  49.706  51.322  0.00  0.00     0.007 A 
ATOM      8  O   UNL d   1      58.310  49.707  52.530  0.00  0.00    -0.284 OA
ATOM      9  C   UNL d   1      56.663  49.706  49.915  0.00  0.00     0.096 A 
ATOM     10  C   UNL d   1      56.374  49.706  50.685  0.00  0.00     0.024 A 
ENDROOT
BRANCH   1  11
ATOM     11  C   UNL d   1      59.811  49.707  51.542  0.00  0.00     0.053 C 
BRANCH  11  12
ATOM     12  C   UNL d   1      60.440  49.444  51.070  0.00  0.00     0.102 A 
ATOM     13  O   UNL d   1      60.585  49.649  50.286  0.00  0.00    -0.305 OA
ATOM     14  C   UNL d   1      61.268  49.259  50.038  0.00  0.00     0.123 A 
ATOM     15  C   UNL d   1      61.554  48.806  50.671  0.00  0.00     0.029 A 
ATOM     16  C   UNL d   1      61.042  48.918  51.312  0.00  0.00     0.027 A 
ENDBRANCH  11  12
ENDBRANCH   1  11
BRANCH   9  17
ATOM     17  O   UNL d   1      56.141  49.706  49.277  0.00  0.00    -0.328 OA
ATOM     18  C   UNL d   1      56.037  49.025  48.828  0.00  0.00     0.181 C 
ENDBRANCH   9  17
TORSDOF 3
ENDMDL
MODEL 2
REMARK VINA RESULT:      24.5      1.120      4.027
REMARK  3 active torsions:
REMARK  status: ('A' for Active; 'I' for Inactive)
REMARK    1  A    between atoms: C_6  and  C_1 
REMARK    2  A    between atoms: C_7  and  C_6 
REMARK    3  A    between atoms: O_17  and  C_15 
ROOT
ATOM      1  C   UNL d   1      58.707  49.690  50.019  0.00  0.00     0.141 A 
ATOM      2  C   UNL d   1      59.996  49.647  50.360  0.00  0.00     0.064 A 
ATOM      3  C   UNL d   1      59.476  49.655  49.724  0.00  0.00     0.220 A 
ATOM      4  C   UNL d   1      59.551  49.678  51.055  0.00  0.00     0.105 A 
ATOM      5  O   UNL d   1      58.746  49.705  50.847  0.00  0.00    -0.304 OA
ATOM      6  C   UNL d   1      59.927  49.678  51.782  0.00  0.00     0.049 A 
ATOM      7  C   UNL d   1      60.820  49.617  50.397  0.00  0.00     0.007 A 
ATOM      8  O   UNL d   1      59.683  49.631  48.920  0.00  0.00    -0.284 OA
ATOM      9  C   UNL d   1      60.750  49.647  51.820  0.00  0.00     0.096 A 
ATOM     10  C   UNL d   1      61.193  49.617  51.128  0.00  0.00     0.024 A 
ENDROOT
BRANCH   1  11
ATOM     11  C   UNL d   1      58.011  49.708  49.573  0.00  0.00     0.053 C 
BRANCH  11  12
ATOM     12  C   UNL d   1      57.325  49.333  49.847  0.00  0.00     0.102 A 
ATOM     13  O   UNL d   1      57.088  48.561  49.686  0.00  0.00    -0.305 OA
ATOM     14  C   UNL d   1      56.373  48.422  50.072  0.00  0.00     0.123 A 
ATOM     15  C   UNL d   1      56.158  49.112  50.479  0.00  0.00     0.029 A 
ATOM     16  C   UNL d   1      56.746  49.679  50.341  0.00  0.00     0.027 A 
ENDBRANCH  11  12
ENDBRANCH   1  11
BRANCH   9  17
ATOM     17  O   UNL d   1      61.129  49.647  52.553  0.00  0.00    -0.328 OA
ATOM     18  C   UNL d   1      61.950  49.668  52.594  0.00  0.00     0.181 C 
ENDBRANCH   9  17
TORSDOF 3
ENDMDL
MODEL 3
REMARK VINA RESULT:      26.4      0.702      3.722
REMARK  3 active torsions:
REMARK  status: ('A' for Active; 'I' for Inactive)
REMARK    1  A    between atoms: C_6  and  C_1 
REMARK    2  A    between atoms: C_7  and  C_6 
REMARK    3  A    between atoms: O_17  and  C_15 
ROOT
ATOM      1  C   UNL d   1      58.001  49.704  50.843  0.00  0.00     0.141 A 
ATOM      2  C   UNL d   1      59.243  49.698  51.330  0.00  0.00     0.064 A 
ATOM      3  C   UNL d   1      58.448  49.698  51.536  0.00  0.00     0.220 A 
ATOM      4  C   UNL d   1      59.295  49.704  50.506  0.00  0.00     0.105 A 
ATOM      5  O   UNL d   1      58.523  49.708  50.198  0.00  0.00    -0.304 OA
ATOM      6  C   UNL d   1      60.028  49.704  50.142  0.00  0.00     0.049 A 
ATOM      7  C   UNL d   1      59.930  49.693  51.788  0.00  0.00     0.007 A 
ATOM      8  O   UNL d   1      58.140  49.693  52.307  0.00  0.00    -0.284 OA
ATOM      9  C   UNL d   1      60.715  49.700  50.599  0.00  0.00     0.096 A 
ATOM     10  C   UNL d   1      60.664  49.694  51.419  0.00  0.00     0.024 A 
ENDROOT
BRANCH   1  11
ATOM     11  C   UNL d   1      57.177  49.707  50.791  0.00  0.00     0.053 C 
BRANCH  11  12
ATOM     12  C   UNL d   1      56.792  49.313  50.171  0.00  0.00     0.102 A 
ATOM     13  O   UNL d   1      56.754  48.499  50.053  0.00  0.00    -0.305 OA
ATOM     14  C   UNL d   1      56.316  48.356  49.369  0.00  0.00     0.123 A 
ATOM     15  C   UNL d   1      56.077  49.085  49.055  0.00  0.00     0.029 A 
ATOM     16  C   UNL d   1      56.371  49.681  49.550  0.00  0.00     0.027 A 
ENDBRANCH  11  12
ENDBRANCH   1  11
BRANCH   9  17
ATOM     17  O   UNL d   1      61.453  49.700  50.231  0.00  0.00    -0.328 OA
ATOM     18  C   UNL d   1      62.140  49.656  50.683  0.00  0.00     0.181 C 
ENDBRANCH   9  17
TORSDOF 3
ENDMDL
