MODEL 1
REMARK VINA RESULT:      -3.0      0.000      0.000
REMARK  3 active torsions:
REMARK  status: ('A' for Active; 'I' for Inactive)
REMARK    1  A    between atoms: C_2  and  N_1 
REMARK    2  A    between atoms: C_4  and  N_1 
REMARK    3  A    between atoms: C_3  and  C_2 
ROOT
ATOM      1  N   UNL d   1      33.112  20.321 -21.723  0.00  0.00    -0.182 N 
ATOM      2  O   UNL d   1      33.241  19.770 -21.119  0.00  0.00    -0.080 OA
ENDROOT
BRANCH   1   3
ATOM      3  C   UNL d   1      33.239  20.105 -22.510  0.00  0.00     0.133 C 
BRANCH   3   4
ATOM      4  C   UNL d   1      33.182  19.316 -22.736  0.00  0.00     0.120 A 
ATOM      5  O   UNL d   1      33.180  18.612 -22.296  0.00  0.00    -0.304 OA
ATOM      6  C   UNL d   1      33.107  17.979 -22.827  0.00  0.00     0.123 A 
ATOM      7  C   UNL d   1      33.064  18.290 -23.595  0.00  0.00     0.029 A 
ATOM      8  C   UNL d   1      33.110  19.112 -23.536  0.00  0.00     0.028 A 
ENDBRANCH   3   4
ENDBRANCH   1   3
BRANCH   1   9
ATOM      9  C   UNL d   1      32.853  21.097 -21.536  0.00  0.00     0.090 A 
ATOM     10  C   UNL d   1      33.181  21.731 -21.936  0.00  0.00     0.021 A 
ATOM     11  C   UNL d   1      32.923  22.502 -21.750  0.00  0.00     0.013 A 
ATOM     12  C   UNL d   1      32.347  22.612 -21.171  0.00  0.00     0.058 A 
ATOM     13  C   UNL d   1      32.024  21.966 -20.776  0.00  0.00     0.013 A 
ATOM     14 CL   UNL d   1      32.094  23.369 -20.989  0.00  0.00    -0.082 Cl
ATOM     15  C   UNL d   1      32.281  21.196 -20.961  0.00  0.00     0.021 A 
ENDBRANCH   1   9
TORSDOF 3
ENDMDL
MODEL 2
REMARK VINA RESULT:      -2.8      2.190      4.032
REMARK  3 active torsions:
REMARK  status: ('A' for Active; 'I' for Inactive)
REMARK    1  A    between atoms: C_2  and  N_1 
REMARK    2  A    between atoms: C_4  and  N_1 
REMARK    3  A    between atoms: C_3  and  C_2 
ROOT
ATOM      1  N   UNL d   1      33.001  19.473 -22.878  0.00  0.00    -0.182 N 
ATOM      2  O   UNL d   1      33.234  20.038 -23.435  0.00  0.00    -0.080 OA
ENDROOT
BRANCH   1   3
ATOM      3  C   UNL d   1      32.937  19.683 -22.082  0.00  0.00     0.133 C 
BRANCH   3   4
ATOM      4  C   UNL d   1      32.886  20.475 -21.868  0.00  0.00     0.120 A 
ATOM      5  O   UNL d   1      33.035  21.175 -22.289  0.00  0.00    -0.304 OA
ATOM      6  C   UNL d   1      32.888  21.815 -21.783  0.00  0.00     0.123 A 
ATOM      7  C   UNL d   1      32.648  21.514 -21.047  0.00  0.00     0.029 A 
ATOM      8  C   UNL d   1      32.648  20.690 -21.103  0.00  0.00     0.028 A 
ENDBRANCH   3   4
ENDBRANCH   1   3
BRANCH   1   9
ATOM      9  C   UNL d   1      32.831  18.688 -23.121  0.00  0.00     0.090 A 
ATOM     10  C   UNL d   1      33.241  18.069 -22.777  0.00  0.00     0.021 A 
ATOM     11  C   UNL d   1      33.072  17.290 -23.018  0.00  0.00     0.013 A 
ATOM     12  C   UNL d   1      32.498  17.156 -23.596  0.00  0.00     0.058 A 
ATOM     13  C   UNL d   1      32.093  17.786 -23.935  0.00  0.00     0.013 A 
ATOM     14 CL   UNL d   1      32.332  16.389 -23.833  0.00  0.00    -0.082 Cl
ATOM     15  C   UNL d   1      32.262  18.565 -23.693  0.00  0.00     0.021 A 
ENDBRANCH   1   9
TORSDOF 3
ENDMDL
MODEL 3
REMARK VINA RESULT:      -2.7      3.928      5.153
REMARK  3 active torsions:
REMARK  status: ('A' for Active; 'I' for Inactive)
REMARK    1  A    between atoms: C_2  and  N_1 
REMARK    2  A    between atoms: C_4  and  N_1 
REMARK    3  A    between atoms: C_3  and  C_2 
ROOT
ATOM      1  N   UNL d   1      30.790  16.764 -24.121  0.00  0.00    -0.182 N 
ATOM      2  O   UNL d   1      30.956  16.031 -23.777  0.00  0.00    -0.080 OA
ENDROOT
BRANCH   1   3
ATOM      3  C   UNL d   1      30.018  16.945 -24.350  0.00  0.00     0.133 C 
BRANCH   3   4
ATOM      4  C   UNL d   1      29.388  16.498 -24.068  0.00  0.00     0.120 A 
ATOM      5  O   UNL d   1      29.302  15.682 -23.936  0.00  0.00    -0.304 OA
ATOM      6  C   UNL d   1      28.537  15.550 -23.644  0.00  0.00     0.123 A 
ATOM      7  C   UNL d   1      28.149  16.282 -23.595  0.00  0.00     0.029 A 
ATOM      8  C   UNL d   1      28.675  16.862 -23.856  0.00  0.00     0.028 A 
ENDBRANCH   3   4
ENDBRANCH   1   3
BRANCH   1   9
ATOM      9  C   UNL d   1      31.406  17.324 -24.236  0.00  0.00     0.090 A 
ATOM     10  C   UNL d   1      31.867  17.542 -23.597  0.00  0.00     0.021 A 
ATOM     11  C   UNL d   1      32.478  18.097 -23.712  0.00  0.00     0.013 A 
ATOM     12  C   UNL d   1      32.607  18.415 -24.461  0.00  0.00     0.058 A 
ATOM     13  C   UNL d   1      32.136  18.188 -25.097  0.00  0.00     0.013 A 
ATOM     14 CL   UNL d   1      33.207  18.960 -24.574  0.00  0.00    -0.082 Cl
ATOM     15  C   UNL d   1      31.525  17.633 -24.982  0.00  0.00     0.021 A 
ENDBRANCH   1   9
TORSDOF 3
ENDMDL
MODEL 4
REMARK VINA RESULT:      -2.6      0.992      1.176
REMARK  3 active torsions:
REMARK  status: ('A' for Active; 'I' for Inactive)
REMARK    1  A    between atoms: C_2  and  N_1 
REMARK    2  A    between atoms: C_4  and  N_1 
REMARK    3  A    between atoms: C_3  and  C_2 
ROOT
ATOM      1  N   UNL d   1      32.520  21.002 -21.356  0.00  0.00    -0.182 N 
ATOM      2  O   UNL d   1      31.915  20.471 -21.165  0.00  0.00    -0.080 OA
ENDROOT
BRANCH   1   3
ATOM      3  C   UNL d   1      33.006  20.854 -22.006  0.00  0.00     0.133 C 
BRANCH   3   4
ATOM      4  C   UNL d   1      33.096  20.087 -22.288  0.00  0.00     0.120 A 
ATOM      5  O   UNL d   1      33.145  19.355 -21.899  0.00  0.00    -0.304 OA
ATOM      6  C   UNL d   1      33.234  18.765 -22.474  0.00  0.00     0.123 A 
ATOM      7  C   UNL d   1      33.241  19.129 -23.220  0.00  0.00     0.029 A 
ATOM      8  C   UNL d   1      33.155  19.942 -23.102  0.00  0.00     0.028 A 
ENDBRANCH   3   4
ENDBRANCH   1   3
BRANCH   1   9
ATOM      9  C   UNL d   1      32.639  21.689 -20.888  0.00  0.00     0.090 A 
ATOM     10  C   UNL d   1      32.421  22.417 -21.191  0.00  0.00     0.021 A 
ATOM     11  C   UNL d   1      32.540  23.099 -20.728  0.00  0.00     0.013 A 
ATOM     12  C   UNL d   1      32.872  23.030 -19.976  0.00  0.00     0.058 A 
ATOM     13  C   UNL d   1      33.088  22.292 -19.682  0.00  0.00     0.013 A 
ATOM     14 CL   UNL d   1      32.989  23.700 -19.520  0.00  0.00    -0.082 Cl
ATOM     15  C   UNL d   1      32.969  21.611 -20.145  0.00  0.00     0.021 A 
ENDBRANCH   1   9
TORSDOF 3
ENDMDL
MODEL 5
REMARK VINA RESULT:      -2.5      3.091      4.124
REMARK  3 active torsions:
REMARK  status: ('A' for Active; 'I' for Inactive)
REMARK    1  A    between atoms: C_2  and  N_1 
REMARK    2  A    between atoms: C_4  and  N_1 
REMARK    3  A    between atoms: C_3  and  C_2 
ROOT
ATOM      1  N   UNL d   1      32.771  23.059 -19.372  0.00  0.00    -0.182 N 
ATOM      2  O   UNL d   1      32.200  23.555 -19.706  0.00  0.00    -0.080 OA
ENDROOT
BRANCH   1   3
ATOM      3  C   UNL d   1      33.241  22.587 -19.859  0.00  0.00     0.133 C 
BRANCH   3   4
ATOM      4  C   UNL d   1      33.093  22.553 -20.667  0.00  0.00     0.120 A 
ATOM      5  O   UNL d   1      32.978  23.148 -21.235  0.00  0.00    -0.304 OA
ATOM      6  C   UNL d   1      32.851  22.780 -21.968  0.00  0.00     0.123 A 
ATOM      7  C   UNL d   1      32.886  21.958 -21.855  0.00  0.00     0.029 A 
ATOM      8  C   UNL d   1      33.035  21.822 -21.054  0.00  0.00     0.028 A 
ENDBRANCH   3   4
ENDBRANCH   1   3
BRANCH   1   9
ATOM      9  C   UNL d   1      32.872  23.035 -18.538  0.00  0.00     0.090 A 
ATOM     10  C   UNL d   1      33.140  22.345 -18.191  0.00  0.00     0.021 A 
ATOM     11  C   UNL d   1      33.241  22.322 -17.364  0.00  0.00     0.013 A 
ATOM     12  C   UNL d   1      33.070  22.990 -16.913  0.00  0.00     0.058 A 
ATOM     13  C   UNL d   1      32.800  23.679 -17.273  0.00  0.00     0.013 A 
ATOM     14 CL   UNL d   1      33.168  22.967 -16.100  0.00  0.00    -0.082 Cl
ATOM     15  C   UNL d   1      32.700  23.702 -18.100  0.00  0.00     0.021 A 
ENDBRANCH   1   9
TORSDOF 3
ENDMDL
MODEL 6
REMARK VINA RESULT:      -2.4      2.031      3.924
REMARK  3 active torsions:
REMARK  status: ('A' for Active; 'I' for Inactive)
REMARK    1  A    between atoms: C_2  and  N_1 
REMARK    2  A    between atoms: C_4  and  N_1 
REMARK    3  A    between atoms: C_3  and  C_2 
ROOT
ATOM      1  N   UNL d   1      33.114  21.566 -21.421  0.00  0.00    -0.182 N 
ATOM      2  O   UNL d   1      33.241  22.251 -21.866  0.00  0.00    -0.080 OA
ENDROOT
BRANCH   1   3
ATOM      3  C   UNL d   1      32.960  21.623 -20.612  0.00  0.00     0.133 C 
BRANCH   3   4
ATOM      4  C   UNL d   1      32.787  22.353 -20.276  0.00  0.00     0.120 A 
ATOM      5  O   UNL d   1      32.255  22.952 -20.494  0.00  0.00    -0.304 OA
ATOM      6  C   UNL d   1      32.322  23.567 -19.942  0.00  0.00     0.123 A 
ATOM      7  C   UNL d   1      32.895  23.350 -19.381  0.00  0.00     0.029 A 
ATOM      8  C   UNL d   1      33.178  22.604 -19.590  0.00  0.00     0.028 A 
ENDBRANCH   3   4
ENDBRANCH   1   3
BRANCH   1   9
ATOM      9  C   UNL d   1      33.141  20.813 -21.793  0.00  0.00     0.090 A 
ATOM     10  C   UNL d   1      33.214  20.144 -21.327  0.00  0.00     0.021 A 
ATOM     11  C   UNL d   1      33.241  19.397 -21.695  0.00  0.00     0.013 A 
ATOM     12  C   UNL d   1      33.194  19.344 -22.517  0.00  0.00     0.058 A 
ATOM     13  C   UNL d   1      33.120  20.024 -22.975  0.00  0.00     0.013 A 
ATOM     14 CL   UNL d   1      33.220  18.610 -22.879  0.00  0.00    -0.082 Cl
ATOM     15  C   UNL d   1      33.093  20.771 -22.607  0.00  0.00     0.021 A 
ENDBRANCH   1   9
TORSDOF 3
ENDMDL
MODEL 7
REMARK VINA RESULT:      -2.1      2.884      4.706
REMARK  3 active torsions:
REMARK  status: ('A' for Active; 'I' for Inactive)
REMARK    1  A    between atoms: C_2  and  N_1 
REMARK    2  A    between atoms: C_4  and  N_1 
REMARK    3  A    between atoms: C_3  and  C_2 
ROOT
ATOM      1  N   UNL d   1      32.566  22.823 -19.530  0.00  0.00    -0.182 N 
ATOM      2  O   UNL d   1      31.869  23.238 -19.375  0.00  0.00    -0.080 OA
ENDROOT
BRANCH   1   3
ATOM      3  C   UNL d   1      33.148  22.764 -18.947  0.00  0.00     0.133 C 
BRANCH   3   4
ATOM      4  C   UNL d   1      32.994  23.025 -18.183  0.00  0.00     0.120 A 
ATOM      5  O   UNL d   1      32.608  23.703 -17.896  0.00  0.00    -0.304 OA
ATOM      6  C   UNL d   1      32.620  23.671 -17.067  0.00  0.00     0.123 A 
ATOM      7  C   UNL d   1      33.013  22.976 -16.840  0.00  0.00     0.029 A 
ATOM      8  C   UNL d   1      33.241  22.582 -17.528  0.00  0.00     0.028 A 
ENDBRANCH   3   4
ENDBRANCH   1   3
BRANCH   1   9
ATOM      9  C   UNL d   1      32.683  22.461 -20.279  0.00  0.00     0.090 A 
ATOM     10  C   UNL d   1      32.383  21.711 -20.407  0.00  0.00     0.021 A 
ATOM     11  C   UNL d   1      32.499  21.352 -21.151  0.00  0.00     0.013 A 
ATOM     12  C   UNL d   1      32.910  21.756 -21.740  0.00  0.00     0.058 A 
ATOM     13  C   UNL d   1      33.206  22.511 -21.600  0.00  0.00     0.013 A 
ATOM     14 CL   UNL d   1      33.023  21.404 -22.471  0.00  0.00    -0.082 Cl
ATOM     15  C   UNL d   1      33.091  22.869 -20.857  0.00  0.00     0.021 A 
ENDBRANCH   1   9
TORSDOF 3
ENDMDL
MODEL 8
REMARK VINA RESULT:      -1.9      1.449      2.137
REMARK  3 active torsions:
REMARK  status: ('A' for Active; 'I' for Inactive)
REMARK    1  A    between atoms: C_2  and  N_1 
REMARK    2  A    between atoms: C_4  and  N_1 
REMARK    3  A    between atoms: C_3  and  C_2 
ROOT
ATOM      1  N   UNL d   1      32.997  18.627 -22.994  0.00  0.00    -0.182 N 
ATOM      2  O   UNL d   1      33.139  17.955 -22.534  0.00  0.00    -0.080 OA
ENDROOT
BRANCH   1   3
ATOM      3  C   UNL d   1      32.795  18.545 -23.790  0.00  0.00     0.133 C 
BRANCH   3   4
ATOM      4  C   UNL d   1      32.572  17.811 -24.086  0.00  0.00     0.120 A 
ATOM      5  O   UNL d   1      32.764  17.038 -23.853  0.00  0.00    -0.304 OA
ATOM      6  C   UNL d   1      32.372  16.513 -24.361  0.00  0.00     0.123 A 
ATOM      7  C   UNL d   1      31.937  16.959 -24.909  0.00  0.00     0.029 A 
ATOM      8  C   UNL d   1      32.062  17.757 -24.737  0.00  0.00     0.028 A 
ENDBRANCH   3   4
ENDBRANCH   1   3
BRANCH   1   9
ATOM      9  C   UNL d   1      33.059  19.392 -22.652  0.00  0.00     0.090 A 
ATOM     10  C   UNL d   1      33.180  20.036 -23.141  0.00  0.00     0.021 A 
ATOM     11  C   UNL d   1      33.241  20.794 -22.801  0.00  0.00     0.013 A 
ATOM     12  C   UNL d   1      33.180  20.882 -21.984  0.00  0.00     0.058 A 
ATOM     13  C   UNL d   1      33.059  20.226 -21.501  0.00  0.00     0.013 A 
ATOM     14 CL   UNL d   1      33.240  21.628 -21.650  0.00  0.00    -0.082 Cl
ATOM     15  C   UNL d   1      32.997  19.468 -21.841  0.00  0.00     0.021 A 
ENDBRANCH   1   9
TORSDOF 3
ENDMDL
