MODEL 1
REMARK VINA RESULT:      -7.7      0.000      0.000
REMARK  5 active torsions:
REMARK  status: ('A' for Active; 'I' for Inactive)
REMARK    1  A    between atoms: C_3  and  C_1 
REMARK    2  A    between atoms: C_2  and  C_3 
REMARK       I    between atoms: N_4  and  C_2 
REMARK    3  A    between atoms: C_10  and  C_8 
REMARK    4  A    between atoms: O_16  and  C_10 
REMARK    5  A    between atoms: C_21  and  O_16 
ROOT
ATOM      1  C   UNL d   1     -47.788  12.762  22.967  0.00  0.00     0.304 C 
ATOM      2  N   UNL d   1     -47.080  13.158  22.849  0.00  0.00    -0.269 N 
ATOM      3  C   UNL d   1     -45.675  13.132  22.589  0.00  0.00     0.081 A 
ATOM      4  C   UNL d   1     -46.389  12.734  22.708  0.00  0.00     0.088 A 
ATOM      5  O   UNL d   1     -47.808  11.942  22.945  0.00  0.00    -0.263 OA
ATOM      6  C   UNL d   1     -47.061  13.976  22.872  0.00  0.00     0.083 A 
ATOM      7  C   UNL d   1     -45.650  13.955  22.611  0.00  0.00     0.008 A 
ATOM      8  C   UNL d   1     -46.343  14.382  22.752  0.00  0.00     0.019 A 
ENDROOT
BRANCH   1   9
ATOM      9  C   UNL d   1     -48.485  13.191  23.109  0.00  0.00     0.253 C 
ATOM     10  O   UNL d   1     -48.441  13.940  23.449  0.00  0.00    -0.281 OA
BRANCH   9  11
ATOM     11  C   UNL d   1     -49.210  12.866  22.911  0.00  0.00     0.064 A 
ATOM     12  C   UNL d   1     -49.521  12.149  23.173  0.00  0.00     0.102 A 
ATOM     13  N   UNL d   1     -50.262  12.040  22.838  0.00  0.00    -0.244 NA
ATOM     14  C   UNL d   1     -50.417  12.693  22.361  0.00  0.00     0.082 A 
ATOM     15  C   UNL d   1     -49.770  13.203  22.405  0.00  0.00     0.022 A 
ATOM     16  C   UNL d   1     -51.063  12.890  21.892  0.00  0.00     0.019 A 
ATOM     17  C   UNL d   1     -49.770  13.906  21.982  0.00  0.00     0.002 A 
ATOM     18  C   UNL d   1     -50.424  14.104  21.509  0.00  0.00     0.000 A 
ATOM     19  C   UNL d   1     -51.063  13.594  21.469  0.00  0.00     0.002 A 
ENDBRANCH   9  11
ENDBRANCH   1   9
BRANCH   3  20
ATOM     20  C   UNL d   1     -44.980  12.710  22.448  0.00  0.00     0.302 C 
ATOM     21  O   UNL d   1     -44.790  12.064  22.913  0.00  0.00    -0.259 OA
BRANCH  20  22
ATOM     22  O   UNL d   1     -44.484  12.940  21.842  0.00  0.00    -0.271 OA
BRANCH  22  23
ATOM     23  C   UNL d   1     -43.768  12.540  21.719  0.00  0.00     0.126 C 
ATOM     24  C   UNL d   1     -43.241  12.822  21.142  0.00  0.00     0.029 C 
ENDBRANCH  22  23
ENDBRANCH  20  22
ENDBRANCH   3  20
TORSDOF 5
ENDMDL
MODEL 2
REMARK VINA RESULT:      -6.7      7.912      9.999
REMARK  5 active torsions:
REMARK  status: ('A' for Active; 'I' for Inactive)
REMARK    1  A    between atoms: C_3  and  C_1 
REMARK    2  A    between atoms: C_2  and  C_3 
REMARK       I    between atoms: N_4  and  C_2 
REMARK    3  A    between atoms: C_10  and  C_8 
REMARK    4  A    between atoms: O_16  and  C_10 
REMARK    5  A    between atoms: C_21  and  O_16 
ROOT
ATOM      1  C   UNL d   1     -39.117  14.298  18.977  0.00  0.00     0.304 C 
ATOM      2  N   UNL d   1     -39.618  14.344  19.625  0.00  0.00    -0.269 N 
ATOM      3  C   UNL d   1     -39.810  14.476  21.035  0.00  0.00     0.081 A 
ATOM      4  C   UNL d   1     -39.306  14.429  20.381  0.00  0.00     0.088 A 
ATOM      5  O   UNL d   1     -38.304  14.336  19.084  0.00  0.00    -0.263 OA
ATOM      6  C   UNL d   1     -40.428  14.307  19.517  0.00  0.00     0.083 A 
ATOM      7  C   UNL d   1     -40.626  14.438  20.932  0.00  0.00     0.008 A 
ATOM      8  C   UNL d   1     -40.940  14.354  20.173  0.00  0.00     0.019 A 
ENDROOT
BRANCH   1   9
ATOM      9  C   UNL d   1     -39.432  14.212  18.214  0.00  0.00     0.253 C 
ATOM     10  O   UNL d   1     -40.048  13.680  18.083  0.00  0.00    -0.281 OA
BRANCH   9  11
ATOM     11  C   UNL d   1     -39.130  14.657  17.596  0.00  0.00     0.064 A 
ATOM     12  C   UNL d   1     -39.137  15.478  17.526  0.00  0.00     0.102 A 
ATOM     13  N   UNL d   1     -38.775  15.690  16.820  0.00  0.00    -0.244 NA
ATOM     14  C   UNL d   1     -38.539  14.996  16.445  0.00  0.00     0.082 A 
ATOM     15  C   UNL d   1     -38.757  14.359  16.922  0.00  0.00     0.022 A 
ATOM     16  C   UNL d   1     -38.154  14.861  15.731  0.00  0.00     0.019 A 
ATOM     17  C   UNL d   1     -38.589  13.591  16.685  0.00  0.00     0.002 A 
ATOM     18  C   UNL d   1     -38.200  13.457  15.964  0.00  0.00     0.000 A 
ATOM     19  C   UNL d   1     -37.986  14.093  15.494  0.00  0.00     0.002 A 
ENDBRANCH   9  11
ENDBRANCH   1   9
BRANCH   3  20
ATOM     20  C   UNL d   1     -39.501  14.561  21.795  0.00  0.00     0.302 C 
ATOM     21  O   UNL d   1     -39.446  15.303  22.136  0.00  0.00    -0.259 OA
BRANCH  20  22
ATOM     22  O   UNL d   1     -39.250  13.900  22.205  0.00  0.00    -0.271 OA
BRANCH  22  23
ATOM     23  C   UNL d   1     -38.853  13.989  22.928  0.00  0.00     0.126 C 
ATOM     24  C   UNL d   1     -38.644  13.311  23.360  0.00  0.00     0.029 C 
ENDBRANCH  22  23
ENDBRANCH  20  22
ENDBRANCH   3  20
TORSDOF 5
ENDMDL
MODEL 3
REMARK VINA RESULT:      -6.6      1.612      4.966
REMARK  5 active torsions:
REMARK  status: ('A' for Active; 'I' for Inactive)
REMARK    1  A    between atoms: C_3  and  C_1 
REMARK    2  A    between atoms: C_2  and  C_3 
REMARK       I    between atoms: N_4  and  C_2 
REMARK    3  A    between atoms: C_10  and  C_8 
REMARK    4  A    between atoms: O_16  and  C_10 
REMARK    5  A    between atoms: C_21  and  O_16 
ROOT
ATOM      1  C   UNL d   1     -47.273  12.485  23.446  0.00  0.00     0.304 C 
ATOM      2  N   UNL d   1     -48.079  12.427  23.311  0.00  0.00    -0.269 N 
ATOM      3  C   UNL d   1     -49.373  13.031  23.260  0.00  0.00     0.081 A 
ATOM      4  C   UNL d   1     -48.560  13.089  23.396  0.00  0.00     0.088 A 
ATOM      5  O   UNL d   1     -46.945  13.205  23.666  0.00  0.00    -0.263 OA
ATOM      6  C   UNL d   1     -48.405  11.709  23.092  0.00  0.00     0.083 A 
ATOM      7  C   UNL d   1     -49.707  12.311  23.039  0.00  0.00     0.008 A 
ATOM      8  C   UNL d   1     -49.225  11.646  22.954  0.00  0.00     0.019 A 
ENDROOT
BRANCH   1   9
ATOM      9  C   UNL d   1     -46.787  11.816  23.361  0.00  0.00     0.253 C 
ATOM     10  O   UNL d   1     -47.088  11.069  23.535  0.00  0.00    -0.281 OA
BRANCH   9  11
ATOM     11  C   UNL d   1     -46.015  11.904  23.106  0.00  0.00     0.064 A 
ATOM     12  C   UNL d   1     -45.705  12.528  22.665  0.00  0.00     0.102 A 
ATOM     13  N   UNL d   1     -44.907  12.392  22.531  0.00  0.00    -0.244 NA
ATOM     14  C   UNL d   1     -44.714  11.677  22.890  0.00  0.00     0.082 A 
ATOM     15  C   UNL d   1     -45.396  11.375  23.245  0.00  0.00     0.022 A 
ATOM     16  C   UNL d   1     -44.007  11.260  22.941  0.00  0.00     0.019 A 
ATOM     17  C   UNL d   1     -45.369  10.660  23.647  0.00  0.00     0.002 A 
ATOM     18  C   UNL d   1     -44.653  10.241  23.697  0.00  0.00     0.000 A 
ATOM     19  C   UNL d   1     -43.980  10.546  23.344  0.00  0.00     0.002 A 
ENDBRANCH   9  11
ENDBRANCH   1   9
BRANCH   3  20
ATOM     20  C   UNL d   1     -49.859  13.693  23.343  0.00  0.00     0.302 C 
ATOM     21  O   UNL d   1     -50.654  13.601  23.513  0.00  0.00    -0.259 OA
BRANCH  20  22
ATOM     22  O   UNL d   1     -49.540  14.441  23.257  0.00  0.00    -0.271 OA
BRANCH  22  23
ATOM     23  C   UNL d   1     -50.042  15.095  23.167  0.00  0.00     0.126 C 
ATOM     24  C   UNL d   1     -49.716  15.859  23.176  0.00  0.00     0.029 C 
ENDBRANCH  22  23
ENDBRANCH  20  22
ENDBRANCH   3  20
TORSDOF 5
ENDMDL
MODEL 4
REMARK VINA RESULT:      -6.5      8.453      9.696
REMARK  5 active torsions:
REMARK  status: ('A' for Active; 'I' for Inactive)
REMARK    1  A    between atoms: C_3  and  C_1 
REMARK    2  A    between atoms: C_2  and  C_3 
REMARK       I    between atoms: N_4  and  C_2 
REMARK    3  A    between atoms: C_10  and  C_8 
REMARK    4  A    between atoms: O_16  and  C_10 
REMARK    5  A    between atoms: C_21  and  O_16 
ROOT
ATOM      1  C   UNL d   1     -39.183  14.625  19.798  0.00  0.00     0.304 C 
ATOM      2  N   UNL d   1     -39.582  14.592  19.082  0.00  0.00    -0.269 N 
ATOM      3  C   UNL d   1     -39.571  14.662  17.655  0.00  0.00     0.081 A 
ATOM      4  C   UNL d   1     -39.171  14.696  18.377  0.00  0.00     0.088 A 
ATOM      5  O   UNL d   1     -38.374  14.764  19.811  0.00  0.00    -0.263 OA
ATOM      6  C   UNL d   1     -40.388  14.454  19.070  0.00  0.00     0.083 A 
ATOM      7  C   UNL d   1     -40.383  14.523  17.637  0.00  0.00     0.008 A 
ATOM      8  C   UNL d   1     -40.796  14.418  18.344  0.00  0.00     0.019 A 
ENDROOT
BRANCH   1   9
ATOM      9  C   UNL d   1     -39.598  14.520  20.510  0.00  0.00     0.253 C 
ATOM     10  O   UNL d   1     -40.238  14.002  20.536  0.00  0.00    -0.281 OA
BRANCH   9  11
ATOM     11  C   UNL d   1     -39.368  14.931  21.180  0.00  0.00     0.064 A 
ATOM     12  C   UNL d   1     -39.316  15.749  21.267  0.00  0.00     0.102 A 
ATOM     13  N   UNL d   1     -39.064  15.922  22.028  0.00  0.00    -0.244 NA
ATOM     14  C   UNL d   1     -38.957  15.207  22.422  0.00  0.00     0.082 A 
ATOM     15  C   UNL d   1     -39.145  14.595  21.901  0.00  0.00     0.022 A 
ATOM     16  C   UNL d   1     -38.714  15.033  23.188  0.00  0.00     0.019 A 
ATOM     17  C   UNL d   1     -39.089  13.814  22.145  0.00  0.00     0.002 A 
ATOM     18  C   UNL d   1     -38.843  13.640  22.920  0.00  0.00     0.000 A 
ATOM     19  C   UNL d   1     -38.658  14.251  23.433  0.00  0.00     0.002 A 
ENDBRANCH   9  11
ENDBRANCH   1   9
BRANCH   3  20
ATOM     20  C   UNL d   1     -39.163  14.767  16.946  0.00  0.00     0.302 C 
ATOM     21  O   UNL d   1     -39.137  15.504  16.591  0.00  0.00    -0.259 OA
BRANCH  20  22
ATOM     22  O   UNL d   1     -38.784  14.130  16.600  0.00  0.00    -0.271 OA
BRANCH  22  23
ATOM     23  C   UNL d   1     -38.369  14.233  15.890  0.00  0.00     0.126 C 
ATOM     24  C   UNL d   1     -37.940  13.594  15.576  0.00  0.00     0.029 C 
ENDBRANCH  22  23
ENDBRANCH  20  22
ENDBRANCH   3  20
TORSDOF 5
ENDMDL
MODEL 5
REMARK VINA RESULT:      -6.4      1.318      4.802
REMARK  5 active torsions:
REMARK  status: ('A' for Active; 'I' for Inactive)
REMARK    1  A    between atoms: C_3  and  C_1 
REMARK    2  A    between atoms: C_2  and  C_3 
REMARK       I    between atoms: N_4  and  C_2 
REMARK    3  A    between atoms: C_10  and  C_8 
REMARK    4  A    between atoms: O_16  and  C_10 
REMARK    5  A    between atoms: C_21  and  O_16 
ROOT
ATOM      1  C   UNL d   1     -47.212  13.116  22.513  0.00  0.00     0.304 C 
ATOM      2  N   UNL d   1     -47.815  13.661  22.626  0.00  0.00    -0.269 N 
ATOM      3  C   UNL d   1     -49.209  13.969  22.690  0.00  0.00     0.081 A 
ATOM      4  C   UNL d   1     -48.601  13.421  22.576  0.00  0.00     0.088 A 
ATOM      5  O   UNL d   1     -47.393  12.332  22.350  0.00  0.00    -0.263 OA
ATOM      6  C   UNL d   1     -47.634  14.441  22.788  0.00  0.00     0.083 A 
ATOM      7  C   UNL d   1     -49.032  14.757  22.854  0.00  0.00     0.008 A 
ATOM      8  C   UNL d   1     -48.244  14.998  22.904  0.00  0.00     0.019 A 
ENDROOT
BRANCH   1   9
ATOM      9  C   UNL d   1     -46.419  13.358  22.563  0.00  0.00     0.253 C 
ATOM     10  O   UNL d   1     -46.225  14.149  22.440  0.00  0.00    -0.281 OA
BRANCH   9  11
ATOM     11  C   UNL d   1     -45.836  12.809  22.734  0.00  0.00     0.064 A 
ATOM     12  C   UNL d   1     -45.868  12.212  23.301  0.00  0.00     0.102 A 
ATOM     13  N   UNL d   1     -45.164  11.790  23.286  0.00  0.00    -0.244 NA
ATOM     14  C   UNL d   1     -44.687  12.126  22.705  0.00  0.00     0.082 A 
ATOM     15  C   UNL d   1     -45.100  12.754  22.364  0.00  0.00     0.022 A 
ATOM     16  C   UNL d   1     -43.930  11.941  22.442  0.00  0.00     0.019 A 
ATOM     17  C   UNL d   1     -44.756  13.194  21.763  0.00  0.00     0.002 A 
ATOM     18  C   UNL d   1     -43.991  13.006  21.499  0.00  0.00     0.000 A 
ATOM     19  C   UNL d   1     -43.586  12.382  21.841  0.00  0.00     0.002 A 
ENDBRANCH   9  11
ENDBRANCH   1   9
BRANCH   3  20
ATOM     20  C   UNL d   1     -49.998  13.733  22.641  0.00  0.00     0.302 C 
ATOM     21  O   UNL d   1     -50.420  13.850  21.950  0.00  0.00    -0.259 OA
BRANCH  20  22
ATOM     22  O   UNL d   1     -50.355  13.381  23.286  0.00  0.00    -0.271 OA
BRANCH  22  23
ATOM     23  C   UNL d   1     -51.001  12.873  23.175  0.00  0.00     0.126 C 
ATOM     24  C   UNL d   1     -51.064  12.190  23.643  0.00  0.00     0.029 C 
ENDBRANCH  22  23
ENDBRANCH  20  22
ENDBRANCH   3  20
TORSDOF 5
ENDMDL
MODEL 6
REMARK VINA RESULT:      -6.2      6.056      9.900
REMARK  5 active torsions:
REMARK  status: ('A' for Active; 'I' for Inactive)
REMARK    1  A    between atoms: C_3  and  C_1 
REMARK    2  A    between atoms: C_2  and  C_3 
REMARK       I    between atoms: N_4  and  C_2 
REMARK    3  A    between atoms: C_10  and  C_8 
REMARK    4  A    between atoms: O_16  and  C_10 
REMARK    5  A    between atoms: C_21  and  O_16 
ROOT
ATOM      1  C   UNL d   1     -39.820  14.092  18.441  0.00  0.00     0.304 C 
ATOM      2  N   UNL d   1     -39.861  14.207  19.252  0.00  0.00    -0.269 N 
ATOM      3  C   UNL d   1     -40.635  14.340  20.446  0.00  0.00     0.081 A 
ATOM      4  C   UNL d   1     -40.592  14.225  19.629  0.00  0.00     0.088 A 
ATOM      5  O   UNL d   1     -40.509  13.995  18.005  0.00  0.00    -0.263 OA
ATOM      6  C   UNL d   1     -39.174  14.303  19.685  0.00  0.00     0.083 A 
ATOM      7  C   UNL d   1     -39.946  14.438  20.887  0.00  0.00     0.008 A 
ATOM      8  C   UNL d   1     -39.212  14.420  20.510  0.00  0.00     0.019 A 
ENDROOT
BRANCH   1   9
ATOM      9  C   UNL d   1     -39.082  14.074  18.061  0.00  0.00     0.253 C 
ATOM     10  O   UNL d   1     -38.473  13.615  18.373  0.00  0.00    -0.281 OA
BRANCH   9  11
ATOM     11  C   UNL d   1     -38.964  14.512  17.379  0.00  0.00     0.064 A 
ATOM     12  C   UNL d   1     -39.181  15.296  17.249  0.00  0.00     0.102 A 
ATOM     13  N   UNL d   1     -38.958  15.514  16.490  0.00  0.00    -0.244 NA
ATOM     14  C   UNL d   1     -38.597  14.862  16.141  0.00  0.00     0.082 A 
ATOM     15  C   UNL d   1     -38.600  14.244  16.688  0.00  0.00     0.022 A 
ATOM     16  C   UNL d   1     -38.267  14.750  15.397  0.00  0.00     0.019 A 
ATOM     17  C   UNL d   1     -38.274  13.517  16.489  0.00  0.00     0.002 A 
ATOM     18  C   UNL d   1     -37.940  13.406  15.736  0.00  0.00     0.000 A 
ATOM     19  C   UNL d   1     -37.940  14.023  15.198  0.00  0.00     0.002 A 
ENDBRANCH   9  11
ENDBRANCH   1   9
BRANCH   3  20
ATOM     20  C   UNL d   1     -41.366  14.359  20.827  0.00  0.00     0.302 C 
ATOM     21  O   UNL d   1     -41.716  15.076  21.010  0.00  0.00    -0.259 OA
BRANCH  20  22
ATOM     22  O   UNL d   1     -41.738  13.658  21.022  0.00  0.00    -0.271 OA
BRANCH  22  23
ATOM     23  C   UNL d   1     -42.549  13.656  21.196  0.00  0.00     0.126 C 
ATOM     24  C   UNL d   1     -42.917  12.938  21.394  0.00  0.00     0.029 C 
ENDBRANCH  22  23
ENDBRANCH  20  22
ENDBRANCH   3  20
TORSDOF 5
ENDMDL
MODEL 7
REMARK VINA RESULT:      -5.9      1.403      2.461
REMARK  5 active torsions:
REMARK  status: ('A' for Active; 'I' for Inactive)
REMARK    1  A    between atoms: C_3  and  C_1 
REMARK    2  A    between atoms: C_2  and  C_3 
REMARK       I    between atoms: N_4  and  C_2 
REMARK    3  A    between atoms: C_10  and  C_8 
REMARK    4  A    between atoms: O_16  and  C_10 
REMARK    5  A    between atoms: C_21  and  O_16 
ROOT
ATOM      1  C   UNL d   1     -45.841  13.286  22.527  0.00  0.00     0.304 C 
ATOM      2  N   UNL d   1     -45.162  12.837  22.427  0.00  0.00    -0.269 N 
ATOM      3  C   UNL d   1     -43.897  12.630  21.795  0.00  0.00     0.081 A 
ATOM      4  C   UNL d   1     -44.582  13.082  21.897  0.00  0.00     0.088 A 
ATOM      5  O   UNL d   1     -45.942  13.979  22.099  0.00  0.00    -0.263 OA
ATOM      6  C   UNL d   1     -45.063  12.146  22.853  0.00  0.00     0.083 A 
ATOM      7  C   UNL d   1     -43.792  11.934  22.222  0.00  0.00     0.008 A 
ATOM      8  C   UNL d   1     -44.374  11.688  22.754  0.00  0.00     0.019 A 
ENDROOT
BRANCH   1   9
ATOM      9  C   UNL d   1     -46.427  13.039  23.061  0.00  0.00     0.253 C 
ATOM     10  O   UNL d   1     -46.222  12.556  23.697  0.00  0.00    -0.281 OA
BRANCH   9  11
ATOM     11  C   UNL d   1     -47.203  13.276  22.953  0.00  0.00     0.064 A 
ATOM     12  C   UNL d   1     -47.477  14.048  22.860  0.00  0.00     0.102 A 
ATOM     13  N   UNL d   1     -48.293  14.033  22.767  0.00  0.00    -0.244 NA
ATOM     14  C   UNL d   1     -48.532  13.246  22.803  0.00  0.00     0.082 A 
ATOM     15  C   UNL d   1     -47.861  12.779  22.918  0.00  0.00     0.022 A 
ATOM     16  C   UNL d   1     -49.273  12.893  22.746  0.00  0.00     0.019 A 
ATOM     17  C   UNL d   1     -47.933  11.963  22.975  0.00  0.00     0.002 A 
ATOM     18  C   UNL d   1     -48.682  11.609  22.917  0.00  0.00     0.000 A 
ATOM     19  C   UNL d   1     -49.344  12.078  22.804  0.00  0.00     0.002 A 
ENDBRANCH   9  11
ENDBRANCH   1   9
BRANCH   3  20
ATOM     20  C   UNL d   1     -43.312  12.872  21.265  0.00  0.00     0.302 C 
ATOM     21  O   UNL d   1     -43.331  12.616  20.488  0.00  0.00    -0.259 OA
BRANCH  20  22
ATOM     22  O   UNL d   1     -42.716  13.368  21.521  0.00  0.00    -0.271 OA
BRANCH  22  23
ATOM     23  C   UNL d   1     -42.171  13.674  20.976  0.00  0.00     0.126 C 
ATOM     24  C   UNL d   1     -41.523  14.113  21.255  0.00  0.00     0.029 C 
ENDBRANCH  22  23
ENDBRANCH  20  22
ENDBRANCH   3  20
TORSDOF 5
ENDMDL
MODEL 8
REMARK VINA RESULT:      -5.6      8.478     10.258
REMARK  5 active torsions:
REMARK  status: ('A' for Active; 'I' for Inactive)
REMARK    1  A    between atoms: C_3  and  C_1 
REMARK    2  A    between atoms: C_2  and  C_3 
REMARK       I    between atoms: N_4  and  C_2 
REMARK    3  A    between atoms: C_10  and  C_8 
REMARK    4  A    between atoms: O_16  and  C_10 
REMARK    5  A    between atoms: C_21  and  O_16 
ROOT
ATOM      1  C   UNL d   1     -38.980  14.824  18.332  0.00  0.00     0.304 C 
ATOM      2  N   UNL d   1     -38.666  14.286  17.799  0.00  0.00    -0.269 N 
ATOM      3  C   UNL d   1     -38.203  13.973  16.484  0.00  0.00     0.081 A 
ATOM      4  C   UNL d   1     -38.520  14.514  17.022  0.00  0.00     0.088 A 
ATOM      5  O   UNL d   1     -39.149  15.590  18.091  0.00  0.00    -0.263 OA
ATOM      6  C   UNL d   1     -38.498  13.523  18.041  0.00  0.00     0.083 A 
ATOM      7  C   UNL d   1     -38.032  13.203  16.722  0.00  0.00     0.008 A 
ATOM      8  C   UNL d   1     -38.179  12.973  17.501  0.00  0.00     0.019 A 
ENDROOT
BRANCH   1   9
ATOM      9  C   UNL d   1     -39.128  14.594  19.116  0.00  0.00     0.253 C 
ATOM     10  O   UNL d   1     -38.695  13.976  19.449  0.00  0.00    -0.281 OA
BRANCH   9  11
ATOM     11  C   UNL d   1     -39.702  14.981  19.553  0.00  0.00     0.064 A 
ATOM     12  C   UNL d   1     -40.463  15.180  19.307  0.00  0.00     0.102 A 
ATOM     13  N   UNL d   1     -40.851  15.563  19.920  0.00  0.00    -0.244 NA
ATOM     14  C   UNL d   1     -40.330  15.604  20.556  0.00  0.00     0.082 A 
ATOM     15  C   UNL d   1     -39.621  15.246  20.331  0.00  0.00     0.022 A 
ATOM     16  C   UNL d   1     -40.408  15.922  21.311  0.00  0.00     0.019 A 
ATOM     17  C   UNL d   1     -38.994  15.206  20.860  0.00  0.00     0.002 A 
ATOM     18  C   UNL d   1     -39.075  15.527  21.622  0.00  0.00     0.000 A 
ATOM     19  C   UNL d   1     -39.781  15.882  21.839  0.00  0.00     0.002 A 
ENDBRANCH   9  11
ENDBRANCH   1   9
BRANCH   3  20
ATOM     20  C   UNL d   1     -38.055  14.198  15.704  0.00  0.00     0.302 C 
ATOM     21  O   UNL d   1     -37.950  14.987  15.517  0.00  0.00    -0.259 OA
BRANCH  20  22
ATOM     22  O   UNL d   1     -38.014  13.628  15.120  0.00  0.00    -0.271 OA
BRANCH  22  23
ATOM     23  C   UNL d   1     -37.950  13.854  14.325  0.00  0.00     0.126 C 
ATOM     24  C   UNL d   1     -37.979  13.271  13.734  0.00  0.00     0.029 C 
ENDBRANCH  22  23
ENDBRANCH  20  22
ENDBRANCH   3  20
TORSDOF 5
ENDMDL
