MODEL 1
REMARK VINA RESULT:      -6.1      0.000      0.000
REMARK  4 active torsions:
REMARK  status: ('A' for Active; 'I' for Inactive)
REMARK    1  A    between atoms: N_2  and  S_1 
REMARK    2  A    between atoms: N_3  and  S_1 
REMARK    3  A    between atoms: C_8  and  N_3 
REMARK    4  A    between atoms: C_6  and  C_8 
ROOT
ATOM      1  S   UNL d   1     -47.513  13.855  22.776  0.00  0.00     0.351 S 
ATOM      2  O   UNL d   1     -47.952  13.204  22.520  0.00  0.00    -0.180 OA
ATOM      3  O   UNL d   1     -47.077  14.504  23.030  0.00  0.00    -0.180 OA
ENDROOT
BRANCH   1   4
ATOM      4  N   UNL d   1     -46.873  13.357  22.933  0.00  0.00    -0.211 N 
ATOM      5  C   UNL d   1     -46.181  13.442  22.492  0.00  0.00     0.120 C 
ATOM      6  C   UNL d   1     -45.546  12.945  22.649  0.00  0.00     0.142 C 
ATOM      7  O   UNL d   1     -45.635  12.302  23.158  0.00  0.00    -0.300 OA
ATOM      8  C   UNL d   1     -46.362  12.157  23.510  0.00  0.00     0.142 C 
ATOM      9  C   UNL d   1     -47.002  12.656  23.353  0.00  0.00     0.120 C 
ENDBRANCH   1   4
BRANCH   1  10
ATOM     10  N   UNL d   1     -48.112  14.401  22.640  0.00  0.00    -0.144 NA
BRANCH  10  11
ATOM     11  C   UNL d   1     -48.821  14.372  23.078  0.00  0.00     0.121 C 
BRANCH  11  12
ATOM     12  C   UNL d   1     -49.392  14.981  23.004  0.00  0.00     0.185 C 
ATOM     13  O   UNL d   1     -49.603  15.458  23.697  0.00  0.00    -0.321 OA
ATOM     14  C   UNL d   1     -50.317  15.829  23.525  0.00  0.00     0.117 C 
ATOM     15  C   UNL d   1     -50.676  15.429  22.898  0.00  0.00     0.025 C 
ATOM     16  C   UNL d   1     -50.179  14.805  22.680  0.00  0.00     0.012 C 
ENDBRANCH  11  12
ENDBRANCH  10  11
ENDBRANCH   1  10
TORSDOF 4
ENDMDL
MODEL 2
REMARK VINA RESULT:      -6.1      1.677      4.532
REMARK  4 active torsions:
REMARK  status: ('A' for Active; 'I' for Inactive)
REMARK    1  A    between atoms: N_2  and  S_1 
REMARK    2  A    between atoms: N_3  and  S_1 
REMARK    3  A    between atoms: C_8  and  N_3 
REMARK    4  A    between atoms: C_6  and  C_8 
ROOT
ATOM      1  S   UNL d   1     -46.649  12.657  23.365  0.00  0.00     0.351 S 
ATOM      2  O   UNL d   1     -47.153  12.075  23.066  0.00  0.00    -0.180 OA
ATOM      3  O   UNL d   1     -46.146  13.235  23.662  0.00  0.00    -0.180 OA
ENDROOT
BRANCH   1   4
ATOM      4  N   UNL d   1     -47.143  13.240  23.053  0.00  0.00    -0.211 N 
ATOM      5  C   UNL d   1     -46.847  14.003  22.949  0.00  0.00     0.120 C 
ATOM      6  C   UNL d   1     -47.340  14.583  22.639  0.00  0.00     0.142 C 
ATOM      7  O   UNL d   1     -48.146  14.435  22.538  0.00  0.00    -0.300 OA
ATOM      8  C   UNL d   1     -48.457  13.705  22.749  0.00  0.00     0.142 C 
ATOM      9  C   UNL d   1     -47.962  13.122  23.061  0.00  0.00     0.120 C 
ENDBRANCH   1   4
BRANCH   1  10
ATOM     10  N   UNL d   1     -46.118  12.125  23.698  0.00  0.00    -0.144 NA
BRANCH  10  11
ATOM     11  C   UNL d   1     -45.711  11.575  23.220  0.00  0.00     0.121 C 
BRANCH  11  12
ATOM     12  C   UNL d   1     -45.134  11.067  23.555  0.00  0.00     0.185 C 
ATOM     13  O   UNL d   1     -44.307  11.133  23.302  0.00  0.00    -0.321 OA
ATOM     14  C   UNL d   1     -43.930  10.437  23.530  0.00  0.00     0.117 C 
ATOM     15  C   UNL d   1     -44.506   9.863  23.673  0.00  0.00     0.025 C 
ATOM     16  C   UNL d   1     -45.245  10.206  23.533  0.00  0.00     0.012 C 
ENDBRANCH  11  12
ENDBRANCH  10  11
ENDBRANCH   1  10
TORSDOF 4
ENDMDL
MODEL 3
REMARK VINA RESULT:      -5.7      1.864      2.130
REMARK  4 active torsions:
REMARK  status: ('A' for Active; 'I' for Inactive)
REMARK    1  A    between atoms: N_2  and  S_1 
REMARK    2  A    between atoms: N_3  and  S_1 
REMARK    3  A    between atoms: C_8  and  N_3 
REMARK    4  A    between atoms: C_6  and  C_8 
ROOT
ATOM      1  S   UNL d   1     -47.730  12.901  22.621  0.00  0.00     0.351 S 
ATOM      2  O   UNL d   1     -47.514  12.628  23.369  0.00  0.00    -0.180 OA
ATOM      3  O   UNL d   1     -47.946  13.172  21.875  0.00  0.00    -0.180 OA
ENDROOT
BRANCH   1   4
ATOM      4  N   UNL d   1     -47.003  13.286  22.556  0.00  0.00    -0.211 N 
ATOM      5  C   UNL d   1     -46.343  12.858  22.307  0.00  0.00     0.120 C 
ATOM      6  C   UNL d   1     -45.620  13.242  22.243  0.00  0.00     0.142 C 
ATOM      7  O   UNL d   1     -45.530  14.011  22.529  0.00  0.00    -0.300 OA
ATOM      8  C   UNL d   1     -46.166  14.395  22.879  0.00  0.00     0.142 C 
ATOM      9  C   UNL d   1     -46.893  14.009  22.943  0.00  0.00     0.120 C 
ENDBRANCH   1   4
BRANCH   1  10
ATOM     10  N   UNL d   1     -48.469  12.541  22.625  0.00  0.00    -0.144 NA
BRANCH  10  11
ATOM     11  C   UNL d   1     -48.950  12.566  23.306  0.00  0.00     0.121 C 
BRANCH  11  12
ATOM     12  C   UNL d   1     -49.773  12.413  23.251  0.00  0.00     0.185 C 
ATOM     13  O   UNL d   1     -50.340  13.027  23.482  0.00  0.00    -0.321 OA
ATOM     14  C   UNL d   1     -51.064  12.653  23.597  0.00  0.00     0.117 C 
ATOM     15  C   UNL d   1     -50.929  11.844  23.696  0.00  0.00     0.025 C 
ATOM     16  C   UNL d   1     -50.114  11.717  23.643  0.00  0.00     0.012 C 
ENDBRANCH  11  12
ENDBRANCH  10  11
ENDBRANCH   1  10
TORSDOF 4
ENDMDL
MODEL 4
REMARK VINA RESULT:      -5.4      1.917      3.864
REMARK  4 active torsions:
REMARK  status: ('A' for Active; 'I' for Inactive)
REMARK    1  A    between atoms: N_2  and  S_1 
REMARK    2  A    between atoms: N_3  and  S_1 
REMARK    3  A    between atoms: C_8  and  N_3 
REMARK    4  A    between atoms: C_6  and  C_8 
ROOT
ATOM      1  S   UNL d   1     -48.790  12.588  22.869  0.00  0.00     0.351 S 
ATOM      2  O   UNL d   1     -48.448  12.290  23.559  0.00  0.00    -0.180 OA
ATOM      3  O   UNL d   1     -49.129  12.884  22.182  0.00  0.00    -0.180 OA
ENDROOT
BRANCH   1   4
ATOM      4  N   UNL d   1     -49.540  12.439  23.181  0.00  0.00    -0.211 N 
ATOM      5  C   UNL d   1     -49.753  11.661  23.357  0.00  0.00     0.120 C 
ATOM      6  C   UNL d   1     -50.500  11.514  23.668  0.00  0.00     0.142 C 
ATOM      7  O   UNL d   1     -51.064  12.115  23.698  0.00  0.00    -0.300 OA
ATOM      8  C   UNL d   1     -50.880  12.864  23.417  0.00  0.00     0.142 C 
ATOM      9  C   UNL d   1     -50.130  13.013  23.104  0.00  0.00     0.120 C 
ENDBRANCH   1   4
BRANCH   1  10
ATOM     10  N   UNL d   1     -48.074  12.759  22.504  0.00  0.00    -0.144 NA
BRANCH  10  11
ATOM     11  C   UNL d   1     -47.422  13.026  22.951  0.00  0.00     0.121 C 
BRANCH  11  12
ATOM     12  C   UNL d   1     -46.748  13.347  22.570  0.00  0.00     0.185 C 
ATOM     13  O   UNL d   1     -46.088  12.826  22.356  0.00  0.00    -0.321 OA
ATOM     14  C   UNL d   1     -45.435  13.310  22.220  0.00  0.00     0.117 C 
ATOM     15  C   UNL d   1     -45.576  14.044  22.570  0.00  0.00     0.025 C 
ATOM     16  C   UNL d   1     -46.322  14.015  22.926  0.00  0.00     0.012 C 
ENDBRANCH  11  12
ENDBRANCH  10  11
ENDBRANCH   1  10
TORSDOF 4
ENDMDL
MODEL 5
REMARK VINA RESULT:      -4.8      7.990      9.536
REMARK  4 active torsions:
REMARK  status: ('A' for Active; 'I' for Inactive)
REMARK    1  A    between atoms: N_2  and  S_1 
REMARK    2  A    between atoms: N_3  and  S_1 
REMARK    3  A    between atoms: C_8  and  N_3 
REMARK    4  A    between atoms: C_6  and  C_8 
ROOT
ATOM      1  S   UNL d   1     -39.730  14.316  17.988  0.00  0.00     0.351 S 
ATOM      2  O   UNL d   1     -39.303  15.022  18.019  0.00  0.00    -0.180 OA
ATOM      3  O   UNL d   1     -40.156  13.614  17.958  0.00  0.00    -0.180 OA
ENDROOT
BRANCH   1   4
ATOM      4  N   UNL d   1     -39.177  14.009  17.457  0.00  0.00    -0.211 N 
ATOM      5  C   UNL d   1     -39.107  14.352  16.710  0.00  0.00     0.120 C 
ATOM      6  C   UNL d   1     -38.556  14.046  16.182  0.00  0.00     0.142 C 
ATOM      7  O   UNL d   1     -38.162  13.342  16.352  0.00  0.00    -0.300 OA
ATOM      8  C   UNL d   1     -38.320  12.944  17.053  0.00  0.00     0.142 C 
ATOM      9  C   UNL d   1     -38.873  13.250  17.584  0.00  0.00     0.120 C 
ENDBRANCH   1   4
BRANCH   1  10
ATOM     10  N   UNL d   1     -40.312  14.564  18.513  0.00  0.00    -0.144 NA
BRANCH  10  11
ATOM     11  C   UNL d   1     -40.107  14.893  19.251  0.00  0.00     0.121 C 
BRANCH  11  12
ATOM     12  C   UNL d   1     -40.701  15.085  19.811  0.00  0.00     0.185 C 
ATOM     13  O   UNL d   1     -40.848  15.916  20.011  0.00  0.00    -0.321 OA
ATOM     14  C   UNL d   1     -41.270  15.921  20.719  0.00  0.00     0.117 C 
ATOM     15  C   UNL d   1     -41.174  15.187  21.086  0.00  0.00     0.025 C 
ATOM     16  C   UNL d   1     -40.690  14.724  20.601  0.00  0.00     0.012 C 
ENDBRANCH  11  12
ENDBRANCH  10  11
ENDBRANCH   1  10
TORSDOF 4
ENDMDL
MODEL 6
REMARK VINA RESULT:      -4.4      8.775      9.565
REMARK  4 active torsions:
REMARK  status: ('A' for Active; 'I' for Inactive)
REMARK    1  A    between atoms: N_2  and  S_1 
REMARK    2  A    between atoms: N_3  and  S_1 
REMARK    3  A    between atoms: C_8  and  N_3 
REMARK    4  A    between atoms: C_6  and  C_8 
ROOT
ATOM      1  S   UNL d   1     -40.125  14.588  18.873  0.00  0.00     0.351 S 
ATOM      2  O   UNL d   1     -39.777  15.307  19.083  0.00  0.00    -0.180 OA
ATOM      3  O   UNL d   1     -40.472  13.873  18.664  0.00  0.00    -0.180 OA
ENDROOT
BRANCH   1   4
ATOM      4  N   UNL d   1     -40.191  14.853  18.093  0.00  0.00    -0.211 N 
ATOM      5  C   UNL d   1     -40.883  15.235  17.856  0.00  0.00     0.120 C 
ATOM      6  C   UNL d   1     -40.947  15.498  17.081  0.00  0.00     0.142 C 
ATOM      7  O   UNL d   1     -40.379  15.286  16.520  0.00  0.00    -0.300 OA
ATOM      8  C   UNL d   1     -39.747  14.810  16.739  0.00  0.00     0.142 C 
ATOM      9  C   UNL d   1     -39.682  14.545  17.518  0.00  0.00     0.120 C 
ENDBRANCH   1   4
BRANCH   1  10
ATOM     10  N   UNL d   1     -40.089  14.268  19.629  0.00  0.00    -0.144 NA
BRANCH  10  11
ATOM     11  C   UNL d   1     -39.468  14.472  20.147  0.00  0.00     0.121 C 
BRANCH  11  12
ATOM     12  C   UNL d   1     -39.366  14.062  20.871  0.00  0.00     0.185 C 
ATOM     13  O   UNL d   1     -39.601  14.440  21.615  0.00  0.00    -0.321 OA
ATOM     14  C   UNL d   1     -39.228  14.027  22.222  0.00  0.00     0.117 C 
ATOM     15  C   UNL d   1     -38.602  13.596  21.900  0.00  0.00     0.025 C 
ATOM     16  C   UNL d   1     -38.587  13.744  21.087  0.00  0.00     0.012 C 
ENDBRANCH  11  12
ENDBRANCH  10  11
ENDBRANCH   1  10
TORSDOF 4
ENDMDL
