MODEL 1
REMARK VINA RESULT:      -5.1      0.000      0.000
REMARK  3 active torsions:
REMARK  status: ('A' for Active; 'I' for Inactive)
REMARK    1  A    between atoms: C_6  and  N_1 
REMARK    2  A    between atoms: C_5  and  C_9 
REMARK    3  A    between atoms: C_14  and  C_6 
ROOT
ATOM      1  C   UNL d   1     -41.243-122.836 -53.424  0.00  0.00     0.064 A 
ATOM      2  C   UNL d   1     -41.162-123.472 -52.904  0.00  0.00     0.006 A 
ATOM      3  C   UNL d   1     -41.286-122.068 -53.132  0.00  0.00     0.006 A 
ATOM      4  C   UNL d   1     -41.167-122.567 -51.798  0.00  0.00     0.018 A 
ATOM      5  C   UNL d   1     -41.124-123.339 -52.092  0.00  0.00     0.002 A 
ATOM      6  C   UNL d   1     -41.248-121.932 -52.318  0.00  0.00     0.002 A 
ENDROOT
BRANCH   4   7
ATOM      7  C   UNL d   1     -41.130-122.434 -50.985  0.00  0.00     0.084 C 
BRANCH   7   8
ATOM      8  N   UNL d   1     -41.763-122.647 -50.501  0.00  0.00    -0.259 N 
ATOM      9  C   UNL d   1     -41.761-123.267 -49.950  0.00  0.00     0.153 A 
ATOM     10  S   UNL d   1     -42.499-123.282 -49.594  0.00  0.00    -0.053 SA
ATOM     11  S   UNL d   1     -41.127-123.773 -49.793  0.00  0.00    -0.052 SA
ATOM     12  C   UNL d   1     -42.954-122.677 -49.922  0.00  0.00     0.099 A 
ATOM     13  C   UNL d   1     -42.499-122.286 -50.482  0.00  0.00     0.272 A 
ATOM     14  O   UNL d   1     -42.735-121.642 -50.946  0.00  0.00    -0.266 OA
ENDBRANCH   7   8
ENDBRANCH   4   7
BRANCH   1  15
ATOM     15  C   UNL d   1     -41.280-122.975 -54.242  0.00  0.00     0.211 C 
ATOM     16  O   UNL d   1     -41.431-123.733 -54.526  0.00  0.00    -0.644 OA
ATOM     17  O   UNL d   1     -41.167-122.351 -54.769  0.00  0.00    -0.644 OA
ENDBRANCH   1  15
TORSDOF 3
ENDMDL
MODEL 2
REMARK VINA RESULT:      -4.4      0.772      1.193
REMARK  3 active torsions:
REMARK  status: ('A' for Active; 'I' for Inactive)
REMARK    1  A    between atoms: C_6  and  N_1 
REMARK    2  A    between atoms: C_5  and  C_9 
REMARK    3  A    between atoms: C_14  and  C_6 
ROOT
ATOM      1  C   UNL d   1     -41.583-122.547 -52.693  0.00  0.00     0.064 A 
ATOM      2  C   UNL d   1     -42.029-121.963 -52.319  0.00  0.00     0.006 A 
ATOM      3  C   UNL d   1     -41.137-123.074 -52.246  0.00  0.00     0.006 A 
ATOM      4  C   UNL d   1     -41.581-122.435 -51.047  0.00  0.00     0.018 A 
ATOM      5  C   UNL d   1     -42.029-121.905 -51.498  0.00  0.00     0.002 A 
ATOM      6  C   UNL d   1     -41.135-123.019 -51.420  0.00  0.00     0.002 A 
ENDROOT
BRANCH   4   7
ATOM      7  C   UNL d   1     -41.581-122.377 -50.225  0.00  0.00     0.084 C 
BRANCH   7   8
ATOM      8  N   UNL d   1     -42.105-122.832 -49.778  0.00  0.00    -0.259 N 
ATOM      9  C   UNL d   1     -41.902-123.498 -49.326  0.00  0.00     0.153 A 
ATOM     10  S   UNL d   1     -42.589-123.776 -48.977  0.00  0.00    -0.053 SA
ATOM     11  S   UNL d   1     -41.144-123.816 -49.247  0.00  0.00    -0.052 SA
ATOM     12  C   UNL d   1     -43.212-123.288 -49.210  0.00  0.00     0.099 A 
ATOM     13  C   UNL d   1     -42.912-122.706 -49.705  0.00  0.00     0.272 A 
ATOM     14  O   UNL d   1     -43.342-122.098 -50.067  0.00  0.00    -0.266 OA
ENDBRANCH   7   8
ENDBRANCH   4   7
BRANCH   1  15
ATOM     15  C   UNL d   1     -41.586-122.601 -53.521  0.00  0.00     0.211 C 
ATOM     16  O   UNL d   1     -41.190-122.040 -53.974  0.00  0.00    -0.644 OA
ATOM     17  O   UNL d   1     -41.989-123.220 -53.890  0.00  0.00    -0.644 OA
ENDBRANCH   1  15
TORSDOF 3
ENDMDL
MODEL 3
REMARK VINA RESULT:      -4.4      2.123      3.534
REMARK  3 active torsions:
REMARK  status: ('A' for Active; 'I' for Inactive)
REMARK    1  A    between atoms: C_6  and  N_1 
REMARK    2  A    between atoms: C_5  and  C_9 
REMARK    3  A    between atoms: C_14  and  C_6 
ROOT
ATOM      1  C   UNL d   1     -41.854-122.769 -50.880  0.00  0.00     0.064 A 
ATOM      2  C   UNL d   1     -41.539-123.368 -51.351  0.00  0.00     0.006 A 
ATOM      3  C   UNL d   1     -41.927-122.006 -51.177  0.00  0.00     0.006 A 
ATOM      4  C   UNL d   1     -41.371-122.437 -52.422  0.00  0.00     0.018 A 
ATOM      5  C   UNL d   1     -41.297-123.204 -52.121  0.00  0.00     0.002 A 
ATOM      6  C   UNL d   1     -41.686-121.838 -51.950  0.00  0.00     0.002 A 
ENDROOT
BRANCH   4   7
ATOM      7  C   UNL d   1     -41.130-122.272 -53.192  0.00  0.00     0.084 C 
BRANCH   7   8
ATOM      8  N   UNL d   1     -41.626-122.446 -53.828  0.00  0.00    -0.259 N 
ATOM      9  C   UNL d   1     -41.623-123.152 -54.264  0.00  0.00     0.153 A 
ATOM     10  S   UNL d   1     -42.203-123.089 -54.839  0.00  0.00    -0.053 SA
ATOM     11  S   UNL d   1     -41.123-123.797 -54.136  0.00  0.00    -0.052 SA
ATOM     12  C   UNL d   1     -42.563-122.351 -54.761  0.00  0.00     0.099 A 
ATOM     13  C   UNL d   1     -42.207-121.955 -54.136  0.00  0.00     0.272 A 
ATOM     14  O   UNL d   1     -42.395-121.197 -53.863  0.00  0.00    -0.266 OA
ENDBRANCH   7   8
ENDBRANCH   4   7
BRANCH   1  15
ATOM     15  C   UNL d   1     -42.095-122.940 -50.104  0.00  0.00     0.211 C 
ATOM     16  O   UNL d   1     -41.557-122.894 -49.483  0.00  0.00    -0.644 OA
ATOM     17  O   UNL d   1     -42.878-123.156 -49.957  0.00  0.00    -0.644 OA
ENDBRANCH   1  15
TORSDOF 3
ENDMDL
MODEL 4
REMARK VINA RESULT:      -4.1      0.931      1.285
REMARK  3 active torsions:
REMARK  status: ('A' for Active; 'I' for Inactive)
REMARK    1  A    between atoms: C_6  and  N_1 
REMARK    2  A    between atoms: C_5  and  C_9 
REMARK    3  A    between atoms: C_14  and  C_6 
ROOT
ATOM      1  C   UNL d   1     -41.937-122.017 -54.083  0.00  0.00     0.064 A 
ATOM      2  C   UNL d   1     -42.093-121.407 -53.550  0.00  0.00     0.006 A 
ATOM      3  C   UNL d   1     -41.517-122.681 -53.839  0.00  0.00     0.006 A 
ATOM      4  C   UNL d   1     -41.407-122.128 -52.525  0.00  0.00     0.018 A 
ATOM      5  C   UNL d   1     -41.830-121.461 -52.772  0.00  0.00     0.002 A 
ATOM      6  C   UNL d   1     -41.250-122.738 -53.058  0.00  0.00     0.002 A 
ENDROOT
BRANCH   4   7
ATOM      7  C   UNL d   1     -41.143-122.182 -51.746  0.00  0.00     0.084 C 
BRANCH   7   8
ATOM      8  N   UNL d   1     -41.652-122.449 -51.154  0.00  0.00    -0.259 N 
ATOM      9  C   UNL d   1     -41.642-123.206 -50.814  0.00  0.00     0.153 A 
ATOM     10  S   UNL d   1     -42.239-123.231 -50.253  0.00  0.00    -0.053 SA
ATOM     11  S   UNL d   1     -41.123-123.817 -51.009  0.00  0.00    -0.052 SA
ATOM     12  C   UNL d   1     -42.616-122.496 -50.246  0.00  0.00     0.099 A 
ATOM     13  C   UNL d   1     -42.253-122.015 -50.802  0.00  0.00     0.272 A 
ATOM     14  O   UNL d   1     -42.452-121.231 -50.981  0.00  0.00    -0.266 OA
ENDBRANCH   7   8
ENDBRANCH   4   7
BRANCH   1  15
ATOM     15  C   UNL d   1     -42.205-121.958 -54.867  0.00  0.00     0.211 C 
ATOM     16  O   UNL d   1     -43.006-122.033 -55.037  0.00  0.00    -0.644 OA
ATOM     17  O   UNL d   1     -41.664-121.824 -55.476  0.00  0.00    -0.644 OA
ENDBRANCH   1  15
TORSDOF 3
ENDMDL
MODEL 5
REMARK VINA RESULT:      -4.0      1.412      1.738
REMARK  3 active torsions:
REMARK  status: ('A' for Active; 'I' for Inactive)
REMARK    1  A    between atoms: C_6  and  N_1 
REMARK    2  A    between atoms: C_5  and  C_9 
REMARK    3  A    between atoms: C_14  and  C_6 
ROOT
ATOM      1  C   UNL d   1     -41.976-122.105 -54.534  0.00  0.00     0.064 A 
ATOM      2  C   UNL d   1     -41.628-122.835 -54.372  0.00  0.00     0.006 A 
ATOM      3  C   UNL d   1     -42.039-121.538 -53.941  0.00  0.00     0.006 A 
ATOM      4  C   UNL d   1     -41.407-122.430 -53.019  0.00  0.00     0.018 A 
ATOM      5  C   UNL d   1     -41.344-122.999 -53.617  0.00  0.00     0.002 A 
ATOM      6  C   UNL d   1     -41.754-121.699 -53.181  0.00  0.00     0.002 A 
ENDROOT
BRANCH   4   7
ATOM      7  C   UNL d   1     -41.123-122.593 -52.264  0.00  0.00     0.084 C 
BRANCH   7   8
ATOM      8  N   UNL d   1     -41.614-122.498 -51.607  0.00  0.00    -0.259 N 
ATOM      9  C   UNL d   1     -41.664-121.816 -51.137  0.00  0.00     0.153 A 
ATOM     10  S   UNL d   1     -42.218-121.963 -50.550  0.00  0.00    -0.053 SA
ATOM     11  S   UNL d   1     -41.233-121.120 -51.246  0.00  0.00    -0.052 SA
ATOM     12  C   UNL d   1     -42.507-122.728 -50.656  0.00  0.00     0.099 A 
ATOM     13  C   UNL d   1     -42.134-123.058 -51.308  0.00  0.00     0.272 A 
ATOM     14  O   UNL d   1     -42.256-123.817 -51.614  0.00  0.00    -0.266 OA
ENDBRANCH   7   8
ENDBRANCH   4   7
BRANCH   1  15
ATOM     15  C   UNL d   1     -42.261-121.944 -55.297  0.00  0.00     0.211 C 
ATOM     16  O   UNL d   1     -41.785-121.555 -55.843  0.00  0.00    -0.644 OA
ATOM     17  O   UNL d   1     -43.024-122.177 -55.506  0.00  0.00    -0.644 OA
ENDBRANCH   1  15
TORSDOF 3
ENDMDL
