MODEL 1
REMARK VINA RESULT:      21.9      0.000      0.000
REMARK  7 active torsions:
REMARK  status: ('A' for Active; 'I' for Inactive)
REMARK    1  A    between atoms: C_13  and  N_1 
REMARK    2  A    between atoms: C_2  and  N_6 
REMARK    3  A    between atoms: C_9  and  C_5 
REMARK       I    between atoms: N_6  and  C_9 
REMARK    4  A    between atoms: S_14  and  C_7 
REMARK    5  A    between atoms: C_21  and  S_14 
REMARK    6  A    between atoms: C_15  and  C_21 
REMARK    7  A    between atoms: O_25  and  C_15 
ROOT
ATOM      1  N   UNL d   1      45.768 -16.969  43.568  0.00  0.00    -0.181 NA
ATOM      2  C   UNL d   1      46.076 -17.614  43.879  0.00  0.00     0.283 C 
ATOM      3  O   UNL d   1      46.251 -17.634  44.637  0.00  0.00    -0.265 OA
ENDROOT
BRANCH   2   4
ATOM      4  C   UNL d   1      46.209 -18.233  43.432  0.00  0.00     0.080 A 
ATOM      5  C   UNL d   1      46.223 -18.247  42.657  0.00  0.00     0.088 A 
ATOM      6  N   UNL d   1      46.375 -18.976  42.432  0.00  0.00    -0.273 N 
ATOM      7  C   UNL d   1      46.455 -19.409  43.066  0.00  0.00     0.265 A 
ATOM      8  C   UNL d   1      46.353 -18.952  43.691  0.00  0.00     0.067 A 
ATOM      9  O   UNL d   1      46.612 -20.176  43.083  0.00  0.00    -0.267 OA
BRANCH   6  10
ATOM     10  C   UNL d   1      46.441 -19.241  41.638  0.00  0.00     0.067 A 
ATOM     11  C   UNL d   1      46.386 -18.690  41.015  0.00  0.00     0.020 A 
ATOM     12  C   UNL d   1      46.452 -18.963  40.227  0.00  0.00     0.031 A 
ATOM     13  C   UNL d   1      46.570 -19.766  40.065  0.00  0.00     0.140 A 
ATOM     14  C   UNL d   1      46.623 -20.315  40.696  0.00  0.00     0.031 A 
ATOM     15  F   UNL d   1      46.636 -20.038  39.270  0.00  0.00    -0.204 F 
ATOM     16  C   UNL d   1      46.559 -20.056  41.475  0.00  0.00     0.020 A 
ENDBRANCH   6  10
ENDBRANCH   2   4
BRANCH   1  17
ATOM     17  C   UNL d   1      45.633 -16.347  44.013  0.00  0.00     0.219 A 
ATOM     18  S   UNL d   1      45.876 -15.621  43.873  0.00  0.00    -0.019 SA
ATOM     19  C   UNL d   1      45.627 -15.170  44.446  0.00  0.00     0.165 A 
ATOM     20  N   UNL d   1      45.224 -15.605  44.951  0.00  0.00    -0.133 NA
ATOM     21  N   UNL d   1      45.229 -16.345  44.678  0.00  0.00    -0.120 NA
BRANCH  19  22
ATOM     22  S   UNL d   1      46.042 -13.509  44.358  0.00  0.00    -0.053 SA
BRANCH  22  23
ATOM     23  C   UNL d   1      45.500 -12.958  44.043  0.00  0.00     0.106 C 
BRANCH  23  24
ATOM     24  C   UNL d   1      44.858 -13.223  43.562  0.00  0.00     0.303 C 
ATOM     25  O   UNL d   1      44.396 -13.878  43.796  0.00  0.00    -0.259 OA
BRANCH  24  26
ATOM     26  O   UNL d   1      44.695 -12.812  42.843  0.00  0.00    -0.295 OA
ATOM     27  C   UNL d   1      45.131 -12.122  42.671  0.00  0.00     0.185 C 
ENDBRANCH  24  26
ENDBRANCH  23  24
ENDBRANCH  22  23
ENDBRANCH  19  22
ENDBRANCH   1  17
TORSDOF 7
ENDMDL
