MODEL 1
REMARK VINA RESULT:      -2.3      0.000      0.000
REMARK  3 active torsions:
REMARK  status: ('A' for Active; 'I' for Inactive)
REMARK       I    between atoms: N_5  and  C_1 
REMARK       I    between atoms: N_6  and  C_1 
REMARK    1  A    between atoms: C_2  and  N_7 
REMARK    2  A    between atoms: C_9  and  N_5 
REMARK    3  A    between atoms: N_7  and  N_6 
ROOT
ATOM      1  C   UNL d   1      28.982  16.896 -24.110  0.00  0.00     0.070 A 
ATOM      2  C   UNL d   1      29.516  17.485 -24.338  0.00  0.00     0.032 A 
ATOM      3  C   UNL d   1      30.144  17.319 -24.818  0.00  0.00     0.087 A 
ATOM      4  C   UNL d   1      29.116  16.130 -24.392  0.00  0.00     0.068 A 
ATOM      5  C   UNL d   1      29.757  15.960 -24.882  0.00  0.00     0.014 A 
ATOM      6 CL   UNL d   1      28.333  17.050 -23.618  0.00  0.00    -0.081 Cl
ATOM      7  C   UNL d   1      30.271  16.555 -25.095  0.00  0.00     0.020 A 
ATOM      8 CL   UNL d   1      28.572  15.504 -24.166  0.00  0.00    -0.082 Cl
ENDROOT
BRANCH   3   9
ATOM      9  N   UNL d   1      30.684  17.954 -25.039  0.00  0.00    -0.190 NA
ATOM     10  C   UNL d   1      31.485  17.928 -24.768  0.00  0.00     0.387 C 
ATOM     11  N   UNL d   1      31.735  17.307 -24.304  0.00  0.00    -0.086 NA
ATOM     12  O   UNL d   1      32.004  18.539 -24.981  0.00  0.00    -0.241 OA
BRANCH  11  13
ATOM     13  N   UNL d   1      31.219  16.711 -24.099  0.00  0.00    -0.111 NA
BRANCH  13  14
ATOM     14  C   UNL d   1      31.464  16.073 -23.624  0.00  0.00     0.260 C 
ATOM     15  S   UNL d   1      31.893  15.453 -23.953  0.00  0.00    -0.034 SA
ATOM     16  N   UNL d   1      31.270  16.074 -22.818  0.00  0.00    -0.113 N 
ENDBRANCH  13  14
ENDBRANCH  11  13
ENDBRANCH   3   9
TORSDOF 3
ENDMDL
MODEL 2
REMARK VINA RESULT:      -2.2      1.635      2.195
REMARK  3 active torsions:
REMARK  status: ('A' for Active; 'I' for Inactive)
REMARK       I    between atoms: N_5  and  C_1 
REMARK       I    between atoms: N_6  and  C_1 
REMARK    1  A    between atoms: C_2  and  N_7 
REMARK    2  A    between atoms: C_9  and  N_5 
REMARK    3  A    between atoms: N_7  and  N_6 
ROOT
ATOM      1  C   UNL d   1      30.048  16.709 -23.997  0.00  0.00     0.070 A 
ATOM      2  C   UNL d   1      30.635  16.232 -23.663  0.00  0.00     0.032 A 
ATOM      3  C   UNL d   1      31.347  16.126 -24.029  0.00  0.00     0.087 A 
ATOM      4  C   UNL d   1      30.217  17.075 -24.719  0.00  0.00     0.068 A 
ATOM      5  C   UNL d   1      30.945  16.967 -25.092  0.00  0.00     0.014 A 
ATOM      6 CL   UNL d   1      29.311  16.827 -23.635  0.00  0.00    -0.081 Cl
ATOM      7  C   UNL d   1      31.510  16.493 -24.748  0.00  0.00     0.020 A 
ATOM      8 CL   UNL d   1      29.619  17.575 -25.081  0.00  0.00    -0.082 Cl
ENDROOT
BRANCH   3   9
ATOM      9  N   UNL d   1      31.941  15.623 -23.658  0.00  0.00    -0.190 NA
ATOM     10  C   UNL d   1      32.665  15.967 -23.389  0.00  0.00     0.387 C 
ATOM     11  N   UNL d   1      32.792  16.766 -23.484  0.00  0.00    -0.086 NA
ATOM     12  O   UNL d   1      33.235  15.483 -23.032  0.00  0.00    -0.241 OA
BRANCH  11  13
ATOM     13  N   UNL d   1      32.228  17.235 -23.836  0.00  0.00    -0.111 NA
BRANCH  13  14
ATOM     14  C   UNL d   1      32.345  18.054 -23.931  0.00  0.00     0.260 C 
ATOM     15  S   UNL d   1      32.716  18.343 -24.607  0.00  0.00    -0.034 SA
ATOM     16  N   UNL d   1      32.084  18.570 -23.338  0.00  0.00    -0.113 N 
ENDBRANCH  13  14
ENDBRANCH  11  13
ENDBRANCH   3   9
TORSDOF 3
ENDMDL
MODEL 3
REMARK VINA RESULT:      -1.6      2.076      2.722
REMARK  3 active torsions:
REMARK  status: ('A' for Active; 'I' for Inactive)
REMARK       I    between atoms: N_5  and  C_1 
REMARK       I    between atoms: N_6  and  C_1 
REMARK    1  A    between atoms: C_2  and  N_7 
REMARK    2  A    between atoms: C_9  and  N_5 
REMARK    3  A    between atoms: N_7  and  N_6 
ROOT
ATOM      1  C   UNL d   1      31.833  15.595 -23.457  0.00  0.00     0.070 A 
ATOM      2  C   UNL d   1      31.047  15.736 -23.671  0.00  0.00     0.032 A 
ATOM      3  C   UNL d   1      30.840  15.872 -24.440  0.00  0.00     0.087 A 
ATOM      4  C   UNL d   1      32.399  15.598 -24.059  0.00  0.00     0.068 A 
ATOM      5  C   UNL d   1      32.188  15.736 -24.845  0.00  0.00     0.014 A 
ATOM      6 CL   UNL d   1      32.061  15.454 -22.672  0.00  0.00    -0.081 Cl
ATOM      7  C   UNL d   1      31.409  15.873 -25.035  0.00  0.00     0.020 A 
ATOM      8 CL   UNL d   1      33.222  15.453 -23.855  0.00  0.00    -0.082 Cl
ENDROOT
BRANCH   3   9
ATOM      9  N   UNL d   1      30.012  16.016 -24.635  0.00  0.00    -0.190 NA
ATOM     10  C   UNL d   1      29.757  16.807 -24.796  0.00  0.00     0.387 C 
ATOM     11  N   UNL d   1      30.294  17.418 -24.765  0.00  0.00    -0.086 NA
ATOM     12  O   UNL d   1      28.961  16.945 -24.982  0.00  0.00    -0.241 OA
BRANCH  11  13
ATOM     13  N   UNL d   1      31.075  17.274 -24.581  0.00  0.00    -0.111 NA
BRANCH  13  14
ATOM     14  C   UNL d   1      31.611  17.899 -24.457  0.00  0.00     0.260 C 
ATOM     15  S   UNL d   1      31.986  18.255 -25.097  0.00  0.00    -0.034 SA
ATOM     16  N   UNL d   1      31.759  18.154 -23.682  0.00  0.00    -0.113 N 
ENDBRANCH  13  14
ENDBRANCH  11  13
ENDBRANCH   3   9
TORSDOF 3
ENDMDL
MODEL 4
REMARK VINA RESULT:      -1.4      1.644      2.129
REMARK  3 active torsions:
REMARK  status: ('A' for Active; 'I' for Inactive)
REMARK       I    between atoms: N_5  and  C_1 
REMARK       I    between atoms: N_6  and  C_1 
REMARK    1  A    between atoms: C_2  and  N_7 
REMARK    2  A    between atoms: C_9  and  N_5 
REMARK    3  A    between atoms: N_7  and  N_6 
ROOT
ATOM      1  C   UNL d   1      28.867  15.553 -22.986  0.00  0.00     0.070 A 
ATOM      2  C   UNL d   1      29.671  15.653 -23.155  0.00  0.00     0.032 A 
ATOM      3  C   UNL d   1      29.930  15.749 -23.914  0.00  0.00     0.087 A 
ATOM      4  C   UNL d   1      28.340  15.555 -23.622  0.00  0.00     0.068 A 
ATOM      5  C   UNL d   1      28.604  15.653 -24.397  0.00  0.00     0.014 A 
ATOM      6 CL   UNL d   1      28.585  15.453 -22.212  0.00  0.00    -0.081 Cl
ATOM      7  C   UNL d   1      29.400  15.750 -24.543  0.00  0.00     0.020 A 
ATOM      8 CL   UNL d   1      27.501  15.453 -23.465  0.00  0.00    -0.082 Cl
ENDROOT
BRANCH   3   9
ATOM      9  N   UNL d   1      30.774  15.851 -24.061  0.00  0.00    -0.190 NA
ATOM     10  C   UNL d   1      31.064  16.612 -24.289  0.00  0.00     0.387 C 
ATOM     11  N   UNL d   1      30.546  17.235 -24.367  0.00  0.00    -0.086 NA
ATOM     12  O   UNL d   1      31.875  16.710 -24.430  0.00  0.00    -0.241 OA
BRANCH  11  13
ATOM     13  N   UNL d   1      29.751  17.132 -24.227  0.00  0.00    -0.111 NA
BRANCH  13  14
ATOM     14  C   UNL d   1      29.207  17.751 -24.347  0.00  0.00     0.260 C 
ATOM     15  S   UNL d   1      29.109  18.076 -25.097  0.00  0.00    -0.034 SA
ATOM     16  N   UNL d   1      28.768  18.031 -23.703  0.00  0.00    -0.113 N 
ENDBRANCH  13  14
ENDBRANCH  11  13
ENDBRANCH   3   9
TORSDOF 3
ENDMDL
MODEL 5
REMARK VINA RESULT:      -0.6      2.449      3.110
REMARK  3 active torsions:
REMARK  status: ('A' for Active; 'I' for Inactive)
REMARK       I    between atoms: N_5  and  C_1 
REMARK       I    between atoms: N_6  and  C_1 
REMARK    1  A    between atoms: C_2  and  N_7 
REMARK    2  A    between atoms: C_9  and  N_5 
REMARK    3  A    between atoms: N_7  and  N_6 
ROOT
ATOM      1  C   UNL d   1      30.626  15.497 -23.616  0.00  0.00     0.070 A 
ATOM      2  C   UNL d   1      29.890  15.510 -23.239  0.00  0.00     0.032 A 
ATOM      3  C   UNL d   1      29.202  15.498 -23.663  0.00  0.00     0.087 A 
ATOM      4  C   UNL d   1      30.631  15.470 -24.443  0.00  0.00     0.068 A 
ATOM      5  C   UNL d   1      29.929  15.457 -24.875  0.00  0.00     0.014 A 
ATOM      6 CL   UNL d   1      31.341  15.510 -23.196  0.00  0.00    -0.081 Cl
ATOM      7  C   UNL d   1      29.214  15.470 -24.485  0.00  0.00     0.020 A 
ATOM      8 CL   UNL d   1      31.387  15.455 -24.852  0.00  0.00    -0.082 Cl
ENDROOT
BRANCH   3   9
ATOM      9  N   UNL d   1      28.449  15.513 -23.243  0.00  0.00    -0.190 NA
ATOM     10  C   UNL d   1      27.992  16.225 -23.239  0.00  0.00     0.387 C 
ATOM     11  N   UNL d   1      28.268  16.884 -23.630  0.00  0.00    -0.086 NA
ATOM     12  O   UNL d   1      27.268  16.239 -22.835  0.00  0.00    -0.241 OA
BRANCH  11  13
ATOM     13  N   UNL d   1      28.980  16.862 -24.024  0.00  0.00    -0.111 NA
BRANCH  13  14
ATOM     14  C   UNL d   1      29.243  17.511 -24.476  0.00  0.00     0.260 C 
ATOM     15  S   UNL d   1      29.964  17.869 -24.304  0.00  0.00    -0.034 SA
ATOM     16  N   UNL d   1      28.769  17.787 -25.097  0.00  0.00    -0.113 N 
ENDBRANCH  13  14
ENDBRANCH  11  13
ENDBRANCH   3   9
TORSDOF 3
ENDMDL
MODEL 6
REMARK VINA RESULT:      -0.2      6.497      7.238
REMARK  3 active torsions:
REMARK  status: ('A' for Active; 'I' for Inactive)
REMARK       I    between atoms: N_5  and  C_1 
REMARK       I    between atoms: N_6  and  C_1 
REMARK    1  A    between atoms: C_2  and  N_7 
REMARK    2  A    between atoms: C_9  and  N_5 
REMARK    3  A    between atoms: N_7  and  N_6 
ROOT
ATOM      1  C   UNL d   1      32.066  23.361 -19.874  0.00  0.00     0.070 A 
ATOM      2  C   UNL d   1      32.024  23.632 -20.655  0.00  0.00     0.032 A 
ATOM      3  C   UNL d   1      32.568  23.404 -21.207  0.00  0.00     0.087 A 
ATOM      4  C   UNL d   1      32.686  22.849 -19.681  0.00  0.00     0.068 A 
ATOM      5  C   UNL d   1      33.241  22.616 -20.245  0.00  0.00     0.014 A 
ATOM      6 CL   UNL d   1      31.516  23.586 -19.296  0.00  0.00    -0.081 Cl
ATOM      7  C   UNL d   1      33.182  22.894 -21.008  0.00  0.00     0.020 A 
ATOM      8 CL   UNL d   1      32.746  22.557 -18.874  0.00  0.00    -0.082 Cl
ENDROOT
BRANCH   3   9
ATOM      9  N   UNL d   1      32.499  23.702 -22.014  0.00  0.00    -0.190 NA
ATOM     10  C   UNL d   1      32.504  23.154 -22.658  0.00  0.00     0.387 C 
ATOM     11  N   UNL d   1      32.573  22.357 -22.510  0.00  0.00    -0.086 NA
ATOM     12  O   UNL d   1      32.437  23.442 -23.433  0.00  0.00    -0.241 OA
BRANCH  11  13
ATOM     13  N   UNL d   1      32.637  22.082 -21.746  0.00  0.00    -0.111 NA
BRANCH  13  14
ATOM     14  C   UNL d   1      32.667  21.267 -21.581  0.00  0.00     0.260 C 
ATOM     15  S   UNL d   1      33.233  20.792 -21.943  0.00  0.00    -0.034 SA
ATOM     16  N   UNL d   1      32.120  20.944 -21.050  0.00  0.00    -0.113 N 
ENDBRANCH  13  14
ENDBRANCH  11  13
ENDBRANCH   3   9
TORSDOF 3
ENDMDL
MODEL 7
REMARK VINA RESULT:      -0.2      2.361      2.933
REMARK  3 active torsions:
REMARK  status: ('A' for Active; 'I' for Inactive)
REMARK       I    between atoms: N_5  and  C_1 
REMARK       I    between atoms: N_6  and  C_1 
REMARK    1  A    between atoms: C_2  and  N_7 
REMARK    2  A    between atoms: C_9  and  N_5 
REMARK    3  A    between atoms: N_7  and  N_6 
ROOT
ATOM      1  C   UNL d   1      31.458  17.419 -24.292  0.00  0.00     0.070 A 
ATOM      2  C   UNL d   1      31.697  18.105 -24.689  0.00  0.00     0.032 A 
ATOM      3  C   UNL d   1      32.467  18.350 -24.674  0.00  0.00     0.087 A 
ATOM      4  C   UNL d   1      32.036  16.995 -23.880  0.00  0.00     0.068 A 
ATOM      5  C   UNL d   1      32.821  17.245 -23.865  0.00  0.00     0.014 A 
ATOM      6 CL   UNL d   1      30.672  17.154 -24.298  0.00  0.00    -0.081 Cl
ATOM      7  C   UNL d   1      33.037  17.923 -24.262  0.00  0.00     0.020 A 
ATOM      8 CL   UNL d   1      31.805  16.280 -23.462  0.00  0.00    -0.082 Cl
ENDROOT
BRANCH   3   9
ATOM      9  N   UNL d   1      32.688  19.069 -25.097  0.00  0.00    -0.190 NA
ATOM     10  C   UNL d   1      33.013  19.719 -24.664  0.00  0.00     0.387 C 
ATOM     11  N   UNL d   1      33.112  19.658 -23.858  0.00  0.00    -0.086 NA
ATOM     12  O   UNL d   1      33.225  20.409 -25.071  0.00  0.00    -0.241 OA
BRANCH  11  13
ATOM     13  N   UNL d   1      32.901  18.977 -23.465  0.00  0.00    -0.111 NA
BRANCH  13  14
ATOM     14  C   UNL d   1      32.946  18.925 -22.636  0.00  0.00     0.260 C 
ATOM     15  S   UNL d   1      33.241  18.245 -22.278  0.00  0.00    -0.034 SA
ATOM     16  N   UNL d   1      32.689  19.567 -22.178  0.00  0.00    -0.113 N 
ENDBRANCH  13  14
ENDBRANCH  11  13
ENDBRANCH   3   9
TORSDOF 3
ENDMDL
MODEL 8
REMARK VINA RESULT:       0.1      6.574      7.246
REMARK  3 active torsions:
REMARK  status: ('A' for Active; 'I' for Inactive)
REMARK       I    between atoms: N_5  and  C_1 
REMARK       I    between atoms: N_6  and  C_1 
REMARK    1  A    between atoms: C_2  and  N_7 
REMARK    2  A    between atoms: C_9  and  N_5 
REMARK    3  A    between atoms: N_7  and  N_6 
ROOT
ATOM      1  C   UNL d   1      33.019  20.627 -21.015  0.00  0.00     0.070 A 
ATOM      2  C   UNL d   1      33.075  21.069 -20.319  0.00  0.00     0.032 A 
ATOM      3  C   UNL d   1      33.183  21.870 -20.338  0.00  0.00     0.087 A 
ATOM      4  C   UNL d   1      33.078  21.034 -21.732  0.00  0.00     0.068 A 
ATOM      5  C   UNL d   1      33.188  21.852 -21.752  0.00  0.00     0.014 A 
ATOM      6 CL   UNL d   1      32.908  19.805 -21.012  0.00  0.00    -0.081 Cl
ATOM      7  C   UNL d   1      33.241  22.270 -21.055  0.00  0.00     0.020 A 
ATOM      8 CL   UNL d   1      33.022  20.591 -22.467  0.00  0.00    -0.082 Cl
ENDROOT
BRANCH   3   9
ATOM      9  N   UNL d   1      33.238  22.306 -19.596  0.00  0.00    -0.190 NA
ATOM     10  C   UNL d   1      32.929  23.092 -19.555  0.00  0.00     0.387 C 
ATOM     11  N   UNL d   1      32.584  23.425 -20.213  0.00  0.00    -0.086 NA
ATOM     12  O   UNL d   1      32.982  23.510 -18.841  0.00  0.00    -0.241 OA
BRANCH  11  13
ATOM     13  N   UNL d   1      32.536  23.008 -20.910  0.00  0.00    -0.111 NA
BRANCH  13  14
ATOM     14  C   UNL d   1      32.190  23.342 -21.590  0.00  0.00     0.260 C 
ATOM     15  S   UNL d   1      32.662  23.698 -22.162  0.00  0.00    -0.034 SA
ATOM     16  N   UNL d   1      31.366  23.310 -21.679  0.00  0.00    -0.113 N 
ENDBRANCH  13  14
ENDBRANCH  11  13
ENDBRANCH   3   9
TORSDOF 3
ENDMDL
