MODEL 1
REMARK VINA RESULT:      34.3      0.000      0.000
REMARK  4 active torsions:
REMARK  status: ('A' for Active; 'I' for Inactive)
REMARK    1  A    between atoms: N_3  and  S_1 
REMARK    2  A    between atoms: C_4  and  S_1 
REMARK    3  A    between atoms: C_13  and  N_3 
REMARK    4  A    between atoms: C_16  and  N_3 
ROOT
ATOM      1  S   UNL d   1     -50.903  25.104  33.474  0.00  0.00     0.271 S 
ATOM      2  O   UNL d   1     -51.689  24.925  33.306  0.00  0.00    -0.200 OA
ATOM      3  O   UNL d   1     -50.380  24.506  33.684  0.00  0.00    -0.200 OA
ENDROOT
BRANCH   1   4
ATOM      4  N   UNL d   1     -51.158  24.324  33.519  0.00  0.00    -0.231 N 
BRANCH   4   5
ATOM      5  C   UNL d   1     -51.974  24.149  33.478  0.00  0.00     0.075 A 
ATOM      6  C   UNL d   1     -52.521  24.760  33.455  0.00  0.00     0.018 A 
ATOM      7  C   UNL d   1     -53.326  24.587  33.415  0.00  0.00     0.002 A 
ATOM      8  C   UNL d   1     -53.584  23.803  33.397  0.00  0.00     0.000 A 
ATOM      9  C   UNL d   1     -53.038  23.193  33.420  0.00  0.00     0.002 A 
ATOM     10  C   UNL d   1     -52.229  23.362  33.461  0.00  0.00     0.018 A 
ENDBRANCH   4   5
BRANCH   4  11
ATOM     11  C   UNL d   1     -50.613  23.717  33.603  0.00  0.00     0.092 C 
ATOM     12  C   UNL d   1     -49.818  23.841  33.424  0.00  0.00     0.021 C 
ENDBRANCH   4  11
ENDBRANCH   1   4
BRANCH   1  13
ATOM     13  C   UNL d   1     -50.639  25.882  33.431  0.00  0.00     0.106 A 
ATOM     14  C   UNL d   1     -51.181  26.499  33.444  0.00  0.00     0.034 A 
ATOM     15  C   UNL d   1     -50.919  27.285  33.401  0.00  0.00     0.105 A 
ATOM     16  N   UNL d   1     -51.322  28.008  33.402  0.00  0.00    -0.189 NA
ATOM     17  C   UNL d   1     -50.105  27.447  33.346  0.00  0.00     0.104 A 
ATOM     18  C   UNL d   1     -50.758  28.620  33.347  0.00  0.00     0.369 A 
ATOM     19  O   UNL d   1     -50.920  29.428  33.329  0.00  0.00    -0.242 OA
ATOM     20  N   UNL d   1     -50.010  28.268  33.313  0.00  0.00    -0.189 NA
ATOM     21  C   UNL d   1     -49.561  26.821  33.334  0.00  0.00     0.021 A 
ATOM     22  C   UNL d   1     -49.832  26.042  33.377  0.00  0.00     0.015 A 
ENDBRANCH   1  13
TORSDOF 4
ENDMDL
