MODEL 1
REMARK VINA RESULT:      53.8      0.000      0.000
REMARK  4 active torsions:
REMARK  status: ('A' for Active; 'I' for Inactive)
REMARK       I    between atoms: C_2  and  N_1 
REMARK       I    between atoms: C_3  and  N_1 
REMARK    1  A    between atoms: C_4  and  C_2 
REMARK       I    between atoms: N_7  and  C_3 
REMARK    2  A    between atoms: C_15  and  N_7 
REMARK    3  A    between atoms: N_11  and  C_16 
REMARK    4  A    between atoms: C_16  and  C_15 
ROOT
ATOM      1  N   UNL d   1      59.793  48.433  50.312  0.00  0.00    -0.152 NA
ATOM      2  C   UNL d   1      60.599  48.479  50.500  0.00  0.00     0.283 C 
ATOM      3  C   UNL d   1      59.279  49.042  50.534  0.00  0.00     0.371 C 
ATOM      4  O   UNL d   1      60.891  49.137  50.911  0.00  0.00    -0.265 OA
ATOM      5  O   UNL d   1      59.559  49.697  50.942  0.00  0.00    -0.242 OA
ATOM      6  N   UNL d   1      58.470  48.995  50.345  0.00  0.00    -0.188 NA
ENDROOT
BRANCH   2   7
ATOM      7  C   UNL d   1      61.113  47.873  50.280  0.00  0.00     0.058 A 
ATOM      8  C   UNL d   1      61.041  47.125  50.631  0.00  0.00     0.006 A 
ATOM      9  C   UNL d   1      61.549  46.516  50.417  0.00  0.00     0.012 A 
ATOM     10  C   UNL d   1      62.141  46.649  49.845  0.00  0.00     0.058 A 
ATOM     11  C   UNL d   1      62.208  47.405  49.495  0.00  0.00     0.012 A 
ATOM     12 CL   UNL d   1      62.661  46.049  49.616  0.00  0.00    -0.082 Cl
ATOM     13  C   UNL d   1      61.692  48.014  49.715  0.00  0.00     0.006 A 
ENDBRANCH   2   7
BRANCH   6  14
ATOM     14  C   UNL d   1      58.127  49.675  50.640  0.00  0.00     0.123 C 
BRANCH  14  15
ATOM     15  C   UNL d   1      57.461  49.626  51.121  0.00  0.00     0.101 C 
BRANCH  15  16
ATOM     16  N   UNL d   1      56.715  49.590  50.786  0.00  0.00    -0.299 N 
ATOM     17  C   UNL d   1      56.056  49.561  51.269  0.00  0.00     0.100 C 
ATOM     18  C   UNL d   1      56.425  49.574  50.017  0.00  0.00     0.100 C 
ENDBRANCH  15  16
ENDBRANCH  14  15
ENDBRANCH   6  14
TORSDOF 4
ENDMDL
MODEL 2
REMARK VINA RESULT:      56.1      2.246      2.827
REMARK  4 active torsions:
REMARK  status: ('A' for Active; 'I' for Inactive)
REMARK       I    between atoms: C_2  and  N_1 
REMARK       I    between atoms: C_3  and  N_1 
REMARK    1  A    between atoms: C_4  and  C_2 
REMARK       I    between atoms: N_7  and  C_3 
REMARK    2  A    between atoms: C_15  and  N_7 
REMARK    3  A    between atoms: N_11  and  C_16 
REMARK    4  A    between atoms: C_16  and  C_15 
ROOT
ATOM      1  N   UNL d   1      61.120  47.330  50.249  0.00  0.00    -0.152 NA
ATOM      2  C   UNL d   1      61.728  47.010  49.787  0.00  0.00     0.283 C 
ATOM      3  C   UNL d   1      61.112  48.139  50.425  0.00  0.00     0.371 C 
ATOM      4  O   UNL d   1      62.332  47.501  49.499  0.00  0.00    -0.265 OA
ATOM      5  O   UNL d   1      61.705  48.633  50.144  0.00  0.00    -0.242 OA
ATOM      6  N   UNL d   1      60.501  48.460  50.890  0.00  0.00    -0.188 NA
ENDROOT
BRANCH   2   7
ATOM      7  C   UNL d   1      61.738  46.205  49.610  0.00  0.00     0.058 A 
ATOM      8  C   UNL d   1      61.193  45.698  49.976  0.00  0.00     0.006 A 
ATOM      9  C   UNL d   1      61.197  44.894  49.806  0.00  0.00     0.012 A 
ATOM     10  C   UNL d   1      61.749  44.585  49.263  0.00  0.00     0.058 A 
ATOM     11  C   UNL d   1      62.295  45.102  48.898  0.00  0.00     0.012 A 
ATOM     12 CL   UNL d   1      61.768  43.780  49.079  0.00  0.00    -0.082 Cl
ATOM     13  C   UNL d   1      62.286  45.911  49.075  0.00  0.00     0.006 A 
ENDBRANCH   2   7
BRANCH   6  14
ATOM     14  C   UNL d   1      60.659  49.257  50.956  0.00  0.00     0.123 C 
BRANCH  14  15
ATOM     15  C   UNL d   1      60.310  49.698  51.556  0.00  0.00     0.101 C 
BRANCH  15  16
ATOM     16  N   UNL d   1      60.638  49.702  52.306  0.00  0.00    -0.299 N 
ATOM     17  C   UNL d   1      60.149  49.707  52.962  0.00  0.00     0.100 C 
ATOM     18  C   UNL d   1      61.405  49.702  52.603  0.00  0.00     0.100 C 
ENDBRANCH  15  16
ENDBRANCH  14  15
ENDBRANCH   6  14
TORSDOF 4
ENDMDL
