MODEL 1
REMARK VINA RESULT:      -2.6      0.000      0.000
REMARK  4 active torsions:
REMARK  status: ('A' for Active; 'I' for Inactive)
REMARK    1  A    between atoms: S_2  and  N_1 
REMARK    2  A    between atoms: N_6  and  S_2 
REMARK    3  A    between atoms: C_10  and  C_3 
REMARK    4  A    between atoms: C_11  and  C_10 
ROOT
ATOM      1  N   UNL d   1      59.288  -1.195  29.346  0.00  0.00    -0.201 N 
ATOM      2  C   UNL d   1      58.778  -0.744  29.836  0.00  0.00     0.158 A 
ATOM      3  N   UNL d   1      59.107   0.014  29.909  0.00  0.00    -0.226 NA
ATOM      4  C   UNL d   1      59.916  -0.710  29.129  0.00  0.00     0.095 A 
ATOM      5  C   UNL d   1      59.806   0.032  29.474  0.00  0.00     0.100 A 
ATOM      6  C   UNL d   1      60.575  -0.859  28.658  0.00  0.00     0.020 A 
ATOM      7  C   UNL d   1      60.363   0.627  29.343  0.00  0.00     0.021 A 
ATOM      8  C   UNL d   1      61.131  -0.265  28.527  0.00  0.00     0.002 A 
ATOM      9  C   UNL d   1      61.026   0.483  28.870  0.00  0.00     0.002 A 
ENDROOT
BRANCH   1  10
ATOM     10  S   UNL d   1      59.178  -1.973  29.127  0.00  0.00     0.338 S 
ATOM     11  O   UNL d   1      58.598  -1.748  28.588  0.00  0.00    -0.181 OA
ATOM     12  O   UNL d   1      59.758  -2.202  29.665  0.00  0.00    -0.181 OA
BRANCH  10  13
ATOM     13  N   UNL d   1      59.076  -2.762  28.914  0.00  0.00    -0.216 N 
ATOM     14  C   UNL d   1      59.716  -3.282  28.940  0.00  0.00     0.093 A 
ATOM     15  C   UNL d   1      59.615  -4.066  28.729  0.00  0.00     0.020 A 
ATOM     16  C   UNL d   1      58.883  -4.343  28.491  0.00  0.00     0.003 A 
ATOM     17  C   UNL d   1      58.237  -3.830  28.462  0.00  0.00     0.020 A 
ATOM     18  C   UNL d   1      58.336  -3.032  28.676  0.00  0.00     0.093 A 
ENDBRANCH  10  13
ENDBRANCH   1  10
BRANCH   2  19
ATOM     19  C   UNL d   1      58.075  -1.011  30.180  0.00  0.00     0.038 C 
BRANCH  19  20
ATOM     20  C   UNL d   1      57.669  -0.522  30.701  0.00  0.00     0.003 A 
ATOM     21  C   UNL d   1      57.572  -0.757  31.489  0.00  0.00     0.000 A 
ATOM     22  C   UNL d   1      57.166  -0.269  32.010  0.00  0.00     0.000 A 
ATOM     23  C   UNL d   1      56.858   0.445  31.757  0.00  0.00     0.000 A 
ATOM     24  C   UNL d   1      56.955   0.681  30.966  0.00  0.00     0.000 A 
ATOM     25  C   UNL d   1      57.363   0.192  30.441  0.00  0.00     0.000 A 
ENDBRANCH  19  20
ENDBRANCH   2  19
TORSDOF 4
ENDMDL
