MODEL 1
REMARK VINA RESULT:      74.1      0.000      0.000
REMARK  4 active torsions:
REMARK  status: ('A' for Active; 'I' for Inactive)
REMARK    1  A    between atoms: C_18  and  N_4 
REMARK    2  A    between atoms: C_11  and  C_6 
REMARK       I    between atoms: N_15  and  C_11 
REMARK    3  A    between atoms: C_26  and  N_15 
REMARK    4  A    between atoms: C_17  and  C_26 
ROOT
ATOM      1  C   UNL d   1      14.036  13.759  -2.798  0.00  0.00     0.155 A 
ATOM      2  C   UNL d   1      14.310  14.494  -2.545  0.00  0.00     0.091 A 
ATOM      3  N   UNL d   1      14.121  13.103  -2.301  0.00  0.00    -0.210 NA
ATOM      4  N   UNL d   1      13.686  13.687  -3.527  0.00  0.00    -0.275 N 
ATOM      5  C   UNL d   1      13.601  14.334  -4.018  0.00  0.00     0.175 A 
ATOM      6  C   UNL d   1      13.875  15.067  -3.766  0.00  0.00     0.094 A 
ATOM      7  N   UNL d   1      14.752  13.916  -1.306  0.00  0.00    -0.258 N 
ATOM      8  C   UNL d   1      14.474  13.170  -1.562  0.00  0.00     0.152 A 
ATOM      9  C   UNL d   1      14.673  14.582  -1.792  0.00  0.00     0.269 A 
ATOM     10  C   UNL d   1      14.230  15.156  -3.031  0.00  0.00     0.016 A 
ATOM     11  C   UNL d   1      14.556  12.519  -1.076  0.00  0.00     0.035 A 
ATOM     12  N   UNL d   1      13.244  14.262  -4.765  0.00  0.00    -0.128 N 
ATOM     13  C   UNL d   1      15.108  13.998  -0.567  0.00  0.00     0.084 A 
ATOM     14  O   UNL d   1      14.942  15.313  -1.550  0.00  0.00    -0.266 OA
ATOM     15  C   UNL d   1      15.186  13.333  -0.082  0.00  0.00     0.019 A 
ATOM     16  C   UNL d   1      14.908  12.588  -0.339  0.00  0.00     0.005 A 
ATOM     17  C   UNL d   1      14.280  11.779  -1.330  0.00  0.00     0.003 C 
ENDROOT
BRANCH   6  18
ATOM     18  C   UNL d   1      13.792  15.730  -4.260  0.00  0.00     0.282 C 
ATOM     19  N   UNL d   1      14.449  16.188  -4.455  0.00  0.00    -0.204 NA
ATOM     20  O   UNL d   1      13.045  15.930  -4.557  0.00  0.00    -0.265 OA
BRANCH  19  21
ATOM     21  C   UNL d   1      14.366  16.843  -4.943  0.00  0.00     0.127 C 
BRANCH  21  22
ATOM     22  C   UNL d   1      14.943  17.440  -4.945  0.00  0.00     0.119 A 
ATOM     23  O   UNL d   1      15.739  17.350  -4.743  0.00  0.00    -0.304 OA
ATOM     24  C   UNL d   1      16.105  18.087  -4.824  0.00  0.00     0.123 A 
ATOM     25  C   UNL d   1      15.534  18.627  -5.075  0.00  0.00     0.029 A 
ATOM     26  C   UNL d   1      14.814  18.223  -5.149  0.00  0.00     0.028 A 
ENDBRANCH  21  22
ENDBRANCH  19  21
ENDBRANCH   6  18
BRANCH   4  27
ATOM     27  C   UNL d   1      13.410  12.947  -3.781  0.00  0.00     0.067 A 
ATOM     28  C   UNL d   1      12.902  12.457  -3.356  0.00  0.00     0.018 A 
ATOM     29  C   UNL d   1      12.770  11.779  -3.810  0.00  0.00     0.002 A 
ATOM     30  C   UNL d   1      13.201  11.851  -4.523  0.00  0.00     0.002 A 
ATOM     31  C   UNL d   1      13.591  12.575  -4.493  0.00  0.00     0.018 A 
ENDBRANCH   4  27
TORSDOF 4
ENDMDL
MODEL 2
REMARK VINA RESULT:      74.9      0.958      2.763
REMARK  4 active torsions:
REMARK  status: ('A' for Active; 'I' for Inactive)
REMARK    1  A    between atoms: C_18  and  N_4 
REMARK    2  A    between atoms: C_11  and  C_6 
REMARK       I    between atoms: N_15  and  C_11 
REMARK    3  A    between atoms: C_26  and  N_15 
REMARK    4  A    between atoms: C_17  and  C_26 
ROOT
ATOM      1  C   UNL d   1      14.177  14.221  -2.768  0.00  0.00     0.155 A 
ATOM      2  C   UNL d   1      14.015  14.564  -3.499  0.00  0.00     0.091 A 
ATOM      3  N   UNL d   1      13.946  13.439  -2.628  0.00  0.00    -0.210 NA
ATOM      4  N   UNL d   1      14.558  14.652  -2.195  0.00  0.00    -0.275 N 
ATOM      5  C   UNL d   1      14.786  15.424  -2.332  0.00  0.00     0.175 A 
ATOM      6  C   UNL d   1      14.625  15.766  -3.062  0.00  0.00     0.094 A 
ATOM      7  N   UNL d   1      13.396  13.346  -3.946  0.00  0.00    -0.258 N 
ATOM      8  C   UNL d   1      13.560  12.999  -3.204  0.00  0.00     0.152 A 
ATOM      9  C   UNL d   1      13.621  14.128  -4.101  0.00  0.00     0.269 A 
ATOM     10  C   UNL d   1      14.240  15.343  -3.651  0.00  0.00     0.016 A 
ATOM     11  C   UNL d   1      13.335  12.227  -3.061  0.00  0.00     0.035 A 
ATOM     12  N   UNL d   1      15.176  15.867  -1.747  0.00  0.00    -0.128 N 
ATOM     13  C   UNL d   1      13.010  12.916  -4.533  0.00  0.00     0.084 A 
ATOM     14  O   UNL d   1      13.465  14.475  -4.822  0.00  0.00    -0.266 OA
ATOM     15  C   UNL d   1      12.786  12.136  -4.379  0.00  0.00     0.019 A 
ATOM     16  C   UNL d   1      12.950  11.788  -3.636  0.00  0.00     0.005 A 
ATOM     17  C   UNL d   1      13.497  11.881  -2.324  0.00  0.00     0.003 C 
ENDROOT
BRANCH   6  18
ATOM     18  C   UNL d   1      14.854  16.551  -3.208  0.00  0.00     0.282 C 
ATOM     19  N   UNL d   1      14.800  16.865  -3.970  0.00  0.00    -0.204 NA
ATOM     20  O   UNL d   1      15.137  17.019  -2.587  0.00  0.00    -0.265 OA
BRANCH  19  21
ATOM     21  C   UNL d   1      15.026  17.641  -4.114  0.00  0.00     0.127 C 
BRANCH  21  22
ATOM     22  C   UNL d   1      14.752  18.039  -4.788  0.00  0.00     0.119 A 
ATOM     23  O   UNL d   1      14.626  17.705  -5.534  0.00  0.00    -0.304 OA
ATOM     24  C   UNL d   1      14.353  18.305  -6.035  0.00  0.00     0.123 A 
ATOM     25  C   UNL d   1      14.311  19.002  -5.597  0.00  0.00     0.029 A 
ATOM     26  C   UNL d   1      14.559  18.835  -4.823  0.00  0.00     0.028 A 
ENDBRANCH  21  22
ENDBRANCH  19  21
ENDBRANCH   6  18
BRANCH   4  27
ATOM     27  C   UNL d   1      14.721  14.307  -1.458  0.00  0.00     0.067 A 
ATOM     28  C   UNL d   1      14.590  14.663  -0.726  0.00  0.00     0.018 A 
ATOM     29  C   UNL d   1      14.827  14.130  -0.142  0.00  0.00     0.002 A 
ATOM     30  C   UNL d   1      15.108  13.437  -0.516  0.00  0.00     0.002 A 
ATOM     31  C   UNL d   1      15.037  13.558  -1.327  0.00  0.00     0.018 A 
ENDBRANCH   4  27
TORSDOF 4
ENDMDL
