MODEL 1
REMARK VINA RESULT:      -2.8      0.000      0.000
REMARK  2 active torsions:
REMARK  status: ('A' for Active; 'I' for Inactive)
REMARK    1  A    between atoms: N_2  and  S_1 
REMARK    2  A    between atoms: C_3  and  S_1 
ROOT
ATOM      1  S   UNL d   1      30.491  16.950 -24.394  0.00  0.00     0.272 S 
ATOM      2  O   UNL d   1      30.953  16.284 -24.240  0.00  0.00    -0.200 OA
ATOM      3  O   UNL d   1      30.026  17.612 -24.548  0.00  0.00    -0.200 OA
ENDROOT
BRANCH   1   4
ATOM      4  N   UNL d   1      29.812  16.482 -24.382  0.00  0.00    -0.225 N 
ATOM      5  C   UNL d   1      29.604  15.967 -25.097  0.00  0.00     0.118 A 
ATOM      6  C   UNL d   1      28.857  15.453 -25.083  0.00  0.00     0.142 A 
ATOM      7  O   UNL d   1      28.319  15.453 -24.356  0.00  0.00    -0.300 OA
ATOM      8  C   UNL d   1      28.527  15.968 -23.641  0.00  0.00     0.142 A 
ATOM      9  C   UNL d   1      29.274  16.483 -23.654  0.00  0.00     0.118 A 
ENDBRANCH   1   4
BRANCH   1  10
ATOM     10  C   UNL d   1      31.167  17.421 -24.407  0.00  0.00     0.104 A 
ATOM     11  C   UNL d   1      31.649  17.468 -23.741  0.00  0.00     0.015 A 
ATOM     12  C   UNL d   1      32.330  17.940 -23.749  0.00  0.00     0.028 A 
ATOM     13  C   UNL d   1      32.815  17.989 -23.083  0.00  0.00     0.002 C 
ATOM     14  C   UNL d   1      32.521  18.363 -24.432  0.00  0.00     0.140 A 
ATOM     15  C   UNL d   1      32.036  18.313 -25.097  0.00  0.00     0.030 A 
ATOM     16  F   UNL d   1      33.197  18.835 -24.448  0.00  0.00    -0.204 F 
ATOM     17  C   UNL d   1      31.359  17.844 -25.089  0.00  0.00     0.015 A 
ENDBRANCH   1  10
TORSDOF 2
ENDMDL
MODEL 2
REMARK VINA RESULT:      -2.7      1.850      3.632
REMARK  2 active torsions:
REMARK  status: ('A' for Active; 'I' for Inactive)
REMARK    1  A    between atoms: N_2  and  S_1 
REMARK    2  A    between atoms: C_3  and  S_1 
ROOT
ATOM      1  S   UNL d   1      30.893  17.152 -24.365  0.00  0.00     0.272 S 
ATOM      2  O   UNL d   1      31.218  16.594 -23.851  0.00  0.00    -0.200 OA
ATOM      3  O   UNL d   1      30.573  17.712 -24.878  0.00  0.00    -0.200 OA
ENDROOT
BRANCH   1   4
ATOM      4  N   UNL d   1      31.599  17.579 -24.347  0.00  0.00    -0.225 N 
ATOM      5  C   UNL d   1      31.880  18.022 -25.084  0.00  0.00     0.118 A 
ATOM      6  C   UNL d   1      32.655  18.492 -25.064  0.00  0.00     0.142 A 
ATOM      7  O   UNL d   1      33.150  18.519 -24.307  0.00  0.00    -0.300 OA
ATOM      8  C   UNL d   1      32.869  18.075 -23.568  0.00  0.00     0.142 A 
ATOM      9  C   UNL d   1      32.093  17.605 -23.588  0.00  0.00     0.118 A 
ENDBRANCH   1   4
BRANCH   1  10
ATOM     10  C   UNL d   1      30.187  16.728 -24.386  0.00  0.00     0.104 A 
ATOM     11  C   UNL d   1      29.532  16.999 -23.967  0.00  0.00     0.015 A 
ATOM     12  C   UNL d   1      28.820  16.575 -23.985  0.00  0.00     0.028 A 
ATOM     13  C   UNL d   1      28.161  16.844 -23.566  0.00  0.00     0.002 C 
ATOM     14  C   UNL d   1      28.774  15.880 -24.426  0.00  0.00     0.140 A 
ATOM     15  C   UNL d   1      29.432  15.612 -24.844  0.00  0.00     0.030 A 
ATOM     16  F   UNL d   1      28.068  15.452 -24.449  0.00  0.00    -0.204 F 
ATOM     17  C   UNL d   1      30.140  16.032 -24.827  0.00  0.00     0.015 A 
ENDBRANCH   1  10
TORSDOF 2
ENDMDL
MODEL 3
REMARK VINA RESULT:      -2.4      4.444      5.648
REMARK  2 active torsions:
REMARK  status: ('A' for Active; 'I' for Inactive)
REMARK    1  A    between atoms: N_2  and  S_1 
REMARK    2  A    between atoms: C_3  and  S_1 
ROOT
ATOM      1  S   UNL d   1      32.978  20.704 -21.814  0.00  0.00     0.272 S 
ATOM      2  O   UNL d   1      32.846  20.141 -21.224  0.00  0.00    -0.200 OA
ATOM      3  O   UNL d   1      33.110  21.262 -22.405  0.00  0.00    -0.200 OA
ENDROOT
BRANCH   1   4
ATOM      4  N   UNL d   1      33.057  20.101 -22.371  0.00  0.00    -0.225 N 
ATOM      5  C   UNL d   1      33.153  20.304 -23.247  0.00  0.00     0.118 A 
ATOM      6  C   UNL d   1      33.241  19.641 -23.860  0.00  0.00     0.142 A 
ATOM      7  O   UNL d   1      33.232  18.775 -23.597  0.00  0.00    -0.300 OA
ATOM      8  C   UNL d   1      33.136  18.572 -22.719  0.00  0.00     0.142 A 
ATOM      9  C   UNL d   1      33.049  19.235 -22.106  0.00  0.00     0.118 A 
ENDBRANCH   1   4
BRANCH   1  10
ATOM     10  C   UNL d   1      32.899  21.309 -21.260  0.00  0.00     0.104 A 
ATOM     11  C   UNL d   1      32.482  21.991 -21.453  0.00  0.00     0.015 A 
ATOM     12  C   UNL d   1      32.400  22.603 -20.898  0.00  0.00     0.028 A 
ATOM     13  C   UNL d   1      31.983  23.289 -21.089  0.00  0.00     0.002 C 
ATOM     14  C   UNL d   1      32.741  22.520 -20.152  0.00  0.00     0.140 A 
ATOM     15  C   UNL d   1      33.158  21.834 -19.962  0.00  0.00     0.030 A 
ATOM     16  F   UNL d   1      32.665  23.123 -19.594  0.00  0.00    -0.204 F 
ATOM     17  C   UNL d   1      33.240  21.227 -20.513  0.00  0.00     0.015 A 
ENDBRANCH   1  10
TORSDOF 2
ENDMDL
MODEL 4
REMARK VINA RESULT:      -2.2      2.658      4.272
REMARK  2 active torsions:
REMARK  status: ('A' for Active; 'I' for Inactive)
REMARK    1  A    between atoms: N_2  and  S_1 
REMARK    2  A    between atoms: C_3  and  S_1 
ROOT
ATOM      1  S   UNL d   1      32.761  18.745 -23.286  0.00  0.00     0.272 S 
ATOM      2  O   UNL d   1      32.749  18.417 -22.529  0.00  0.00    -0.200 OA
ATOM      3  O   UNL d   1      32.774  19.076 -24.040  0.00  0.00    -0.200 OA
ENDROOT
BRANCH   1   4
ATOM      4  N   UNL d   1      32.911  19.489 -22.962  0.00  0.00    -0.225 N 
ATOM      5  C   UNL d   1      32.910  19.600 -22.065  0.00  0.00     0.118 A 
ATOM      6  C   UNL d   1      33.075  20.418 -21.709  0.00  0.00     0.142 A 
ATOM      7  O   UNL d   1      33.240  21.124 -22.250  0.00  0.00    -0.300 OA
ATOM      8  C   UNL d   1      33.241  21.012 -23.149  0.00  0.00     0.142 A 
ATOM      9  C   UNL d   1      33.076  20.194 -23.505  0.00  0.00     0.118 A 
ENDBRANCH   1   4
BRANCH   1  10
ATOM     10  C   UNL d   1      32.612  18.003 -23.613  0.00  0.00     0.104 A 
ATOM     11  C   UNL d   1      31.844  17.793 -23.823  0.00  0.00     0.015 A 
ATOM     12  C   UNL d   1      31.689  17.048 -24.152  0.00  0.00     0.028 A 
ATOM     13  C   UNL d   1      30.920  16.835 -24.364  0.00  0.00     0.002 C 
ATOM     14  C   UNL d   1      32.312  16.520 -24.267  0.00  0.00     0.140 A 
ATOM     15  C   UNL d   1      33.080  16.733 -24.056  0.00  0.00     0.030 A 
ATOM     16  F   UNL d   1      32.166  15.776 -24.595  0.00  0.00    -0.204 F 
ATOM     17  C   UNL d   1      33.234  17.474 -23.729  0.00  0.00     0.015 A 
ENDBRANCH   1  10
TORSDOF 2
ENDMDL
MODEL 5
REMARK VINA RESULT:      -2.2      2.319      3.053
REMARK  2 active torsions:
REMARK  status: ('A' for Active; 'I' for Inactive)
REMARK    1  A    between atoms: N_2  and  S_1 
REMARK    2  A    between atoms: C_3  and  S_1 
ROOT
ATOM      1  S   UNL d   1      32.688  18.109 -23.349  0.00  0.00     0.272 S 
ATOM      2  O   UNL d   1      33.148  17.899 -22.697  0.00  0.00    -0.200 OA
ATOM      3  O   UNL d   1      32.227  18.314 -24.001  0.00  0.00    -0.200 OA
ENDROOT
BRANCH   1   4
ATOM      4  N   UNL d   1      32.548  17.312 -23.507  0.00  0.00    -0.225 N 
ATOM      5  C   UNL d   1      31.703  16.989 -23.494  0.00  0.00     0.118 A 
ATOM      6  C   UNL d   1      31.549  16.112 -23.668  0.00  0.00     0.142 A 
ATOM      7  O   UNL d   1      32.240  15.558 -23.856  0.00  0.00    -0.300 OA
ATOM      8  C   UNL d   1      33.086  15.882 -23.869  0.00  0.00     0.142 A 
ATOM      9  C   UNL d   1      33.240  16.759 -23.695  0.00  0.00     0.118 A 
ENDBRANCH   1   4
BRANCH   1  10
ATOM     10  C   UNL d   1      32.825  18.907 -23.194  0.00  0.00     0.104 A 
ATOM     11  C   UNL d   1      32.875  19.172 -22.416  0.00  0.00     0.015 A 
ATOM     12  C   UNL d   1      33.013  19.974 -22.256  0.00  0.00     0.028 A 
ATOM     13  C   UNL d   1      33.064  20.243 -21.477  0.00  0.00     0.002 C 
ATOM     14  C   UNL d   1      33.100  20.503 -22.883  0.00  0.00     0.140 A 
ATOM     15  C   UNL d   1      33.049  20.233 -23.660  0.00  0.00     0.030 A 
ATOM     16  F   UNL d   1      33.238  21.302 -22.732  0.00  0.00    -0.204 F 
ATOM     17  C   UNL d   1      32.912  19.437 -23.820  0.00  0.00     0.015 A 
ENDBRANCH   1  10
TORSDOF 2
ENDMDL
MODEL 6
REMARK VINA RESULT:      -2.1      4.657      6.148
REMARK  2 active torsions:
REMARK  status: ('A' for Active; 'I' for Inactive)
REMARK    1  A    between atoms: N_2  and  S_1 
REMARK    2  A    between atoms: C_3  and  S_1 
ROOT
ATOM      1  S   UNL d   1      32.856  21.330 -21.423  0.00  0.00     0.272 S 
ATOM      2  O   UNL d   1      33.241  21.700 -22.052  0.00  0.00    -0.200 OA
ATOM      3  O   UNL d   1      32.471  20.966 -20.792  0.00  0.00    -0.200 OA
ENDROOT
BRANCH   1   4
ATOM      4  N   UNL d   1      32.758  22.061 -21.053  0.00  0.00    -0.225 N 
ATOM      5  C   UNL d   1      32.209  22.682 -21.415  0.00  0.00     0.118 A 
ATOM      6  C   UNL d   1      32.102  23.486 -21.009  0.00  0.00     0.142 A 
ATOM      7  O   UNL d   1      32.543  23.669 -20.240  0.00  0.00    -0.300 OA
ATOM      8  C   UNL d   1      33.093  23.046 -19.877  0.00  0.00     0.142 A 
ATOM      9  C   UNL d   1      33.200  22.243 -20.284  0.00  0.00     0.118 A 
ENDBRANCH   1   4
BRANCH   1  10
ATOM     10  C   UNL d   1      32.952  20.598 -21.789  0.00  0.00     0.104 A 
ATOM     11  C   UNL d   1      32.855  20.530 -22.603  0.00  0.00     0.015 A 
ATOM     12  C   UNL d   1      32.950  19.796 -22.976  0.00  0.00     0.028 A 
ATOM     13  C   UNL d   1      32.853  19.724 -23.793  0.00  0.00     0.002 C 
ATOM     14  C   UNL d   1      33.143  19.134 -22.522  0.00  0.00     0.140 A 
ATOM     15  C   UNL d   1      33.240  19.206 -21.707  0.00  0.00     0.030 A 
ATOM     16  F   UNL d   1      33.240  18.400 -22.885  0.00  0.00    -0.204 F 
ATOM     17  C   UNL d   1      33.145  19.936 -21.336  0.00  0.00     0.015 A 
ENDBRANCH   1  10
TORSDOF 2
ENDMDL
MODEL 7
REMARK VINA RESULT:      -2.0      6.978      8.231
REMARK  2 active torsions:
REMARK  status: ('A' for Active; 'I' for Inactive)
REMARK    1  A    between atoms: N_2  and  S_1 
REMARK    2  A    between atoms: C_3  and  S_1 
ROOT
ATOM      1  S   UNL d   1      32.677  22.952 -19.197  0.00  0.00     0.272 S 
ATOM      2  O   UNL d   1      33.170  23.611 -19.256  0.00  0.00    -0.200 OA
ATOM      3  O   UNL d   1      32.184  22.295 -19.133  0.00  0.00    -0.200 OA
ENDROOT
BRANCH   1   4
ATOM      4  N   UNL d   1      32.699  23.010 -18.374  0.00  0.00    -0.225 N 
ATOM      5  C   UNL d   1      33.217  22.444 -17.895  0.00  0.00     0.118 A 
ATOM      6  C   UNL d   1      33.241  22.507 -16.990  0.00  0.00     0.142 A 
ATOM      7  O   UNL d   1      32.748  23.136 -16.565  0.00  0.00    -0.300 OA
ATOM      8  C   UNL d   1      32.229  23.702 -17.046  0.00  0.00     0.142 A 
ATOM      9  C   UNL d   1      32.205  23.639 -17.951  0.00  0.00     0.118 A 
ENDBRANCH   1   4
BRANCH   1  10
ATOM     10  C   UNL d   1      32.652  22.892 -20.019  0.00  0.00     0.104 A 
ATOM     11  C   UNL d   1      32.911  22.203 -20.388  0.00  0.00     0.015 A 
ATOM     12  C   UNL d   1      32.888  22.138 -21.215  0.00  0.00     0.028 A 
ATOM     13  C   UNL d   1      33.146  21.449 -21.588  0.00  0.00     0.002 C 
ATOM     14  C   UNL d   1      32.604  22.770 -21.662  0.00  0.00     0.140 A 
ATOM     15  C   UNL d   1      32.345  23.458 -21.289  0.00  0.00     0.030 A 
ATOM     16  F   UNL d   1      32.577  22.713 -22.485  0.00  0.00    -0.204 F 
ATOM     17  C   UNL d   1      32.368  23.523 -20.467  0.00  0.00     0.015 A 
ENDBRANCH   1  10
TORSDOF 2
ENDMDL
