MODEL 1
REMARK VINA RESULT:     180.3      0.000      0.000
REMARK  2 active torsions:
REMARK  status: ('A' for Active; 'I' for Inactive)
REMARK    1  A    between atoms: N_9  and  C_2 
REMARK    2  A    between atoms: C_4  and  N_10 
ROOT
ATOM      1  C   UNL d   1     -55.885-100.857 -43.791  0.00  0.00     0.152 A 
ATOM      2  C   UNL d   1     -56.189-100.381 -43.190  0.00  0.00     0.174 A 
ATOM      3  C   UNL d   1     -55.993-100.644 -44.581  0.00  0.00     0.111 A 
ATOM      4  O   UNL d   1     -55.458-101.562 -43.775  0.00  0.00    -0.302 OA
ATOM      5  N   UNL d   1     -56.602 -99.692 -43.377  0.00  0.00    -0.207 NA
ATOM      6  C   UNL d   1     -55.635-101.215 -45.053  0.00  0.00     0.043 A 
ATOM      7  N   UNL d   1     -56.406 -99.955 -44.768  0.00  0.00    -0.225 NA
ATOM      8  C   UNL d   1     -55.303-101.785 -44.554  0.00  0.00     0.102 A 
ATOM      9  C   UNL d   1     -56.710 -99.479 -44.165  0.00  0.00     0.164 A 
ATOM     10  C   UNL d   1     -55.566-101.293 -45.870  0.00  0.00     0.004 A 
ATOM     11  C   UNL d   1     -54.903-102.432 -44.875  0.00  0.00     0.025 A 
ATOM     12  C   UNL d   1     -57.122 -98.790 -44.352  0.00  0.00     0.042 C 
ATOM     13  C   UNL d   1     -55.166-101.941 -46.191  0.00  0.00     0.000 A 
ATOM     14  C   UNL d   1     -54.834-102.510 -45.693  0.00  0.00     0.002 A 
ENDROOT
BRANCH   2  15
ATOM     15  N   UNL d   1     -56.079-100.596 -42.400  0.00  0.00    -0.285 N 
ATOM     16  C   UNL d   1     -55.329-100.816 -42.135  0.00  0.00     0.101 A 
ATOM     17  C   UNL d   1     -55.219-101.032 -41.346  0.00  0.00     0.117 A 
ATOM     18  N   UNL d   1     -55.858-101.027 -40.823  0.00  0.00    -0.135 N 
ATOM     19  C   UNL d   1     -56.606-100.807 -41.089  0.00  0.00     0.117 A 
ATOM     20  C   UNL d   1     -56.717-100.591 -41.878  0.00  0.00     0.101 A 
BRANCH  18  21
ATOM     21  C   UNL d   1     -55.746-101.242 -40.034  0.00  0.00     0.735 A 
ATOM     22  N   UNL d   1     -56.076-101.942 -39.747  0.00  0.00    -0.060 NA
ATOM     23  C   UNL d   1     -55.965-102.158 -38.960  0.00  0.00     0.101 A 
ATOM     24  C   UNL d   1     -56.295-102.858 -38.673  0.00  0.00     0.021 C 
ATOM     25  C   UNL d   1     -55.524-101.674 -38.457  0.00  0.00     0.040 A 
ATOM     26  C   UNL d   1     -55.195-100.974 -38.744  0.00  0.00     0.101 A 
ATOM     27  N   UNL d   1     -55.306-100.758 -39.533  0.00  0.00    -0.060 NA
ATOM     28  C   UNL d   1     -54.754-100.490 -38.242  0.00  0.00     0.021 C 
ENDBRANCH  18  21
ENDBRANCH   2  15
TORSDOF 2
ENDMDL
