MODEL 1
REMARK VINA RESULT:      -2.8      0.000      0.000
REMARK  2 active torsions:
REMARK  status: ('A' for Active; 'I' for Inactive)
REMARK    1  A    between atoms: C_9  and  C_1 
REMARK    2  A    between atoms: C_18  and  N_6 
ROOT
ATOM      1  C   UNL d   1      32.253  17.559 -24.183  0.00  0.00     0.121 A 
ATOM      2  C   UNL d   1      30.898  17.090 -24.169  0.00  0.00     0.057 A 
ATOM      3  C   UNL d   1      31.448  17.683 -24.363  0.00  0.00     0.204 A 
ATOM      4  C   UNL d   1      31.137  16.384 -23.801  0.00  0.00     0.069 A 
ATOM      5  C   UNL d   1      32.501  16.857 -23.815  0.00  0.00     0.089 A 
ATOM      6  N   UNL d   1      31.940  16.271 -23.625  0.00  0.00    -0.303 N 
ATOM      7  C   UNL d   1      30.586  15.811 -23.615  0.00  0.00     0.044 A 
ATOM      8  C   UNL d   1      30.096  17.203 -24.344  0.00  0.00     0.031 A 
ATOM      9  C   UNL d   1      29.792  15.925 -23.790  0.00  0.00     0.121 A 
ATOM     10  C   UNL d   1      29.547  16.622 -24.154  0.00  0.00     0.119 A 
ATOM     11  O   UNL d   1      29.134  15.453 -23.668  0.00  0.00    -0.299 OA
ATOM     12  O   UNL d   1      28.738  16.578 -24.257  0.00  0.00    -0.300 OA
ATOM     13  O   UNL d   1      31.203  18.379 -24.728  0.00  0.00    -0.286 OA
ATOM     14  C   UNL d   1      28.479  15.861 -23.960  0.00  0.00     0.304 A 
ENDROOT
BRANCH   1  15
ATOM     15  C   UNL d   1      32.806  18.142 -24.372  0.00  0.00     0.215 C 
ATOM     16  O   UNL d   1      32.969  18.744 -23.835  0.00  0.00    -0.644 OA
ATOM     17  O   UNL d   1      33.193  18.120 -25.097  0.00  0.00    -0.644 OA
ENDBRANCH   1  15
BRANCH   6  18
ATOM     18  C   UNL d   1      32.185  15.575 -23.261  0.00  0.00     0.080 C 
ATOM     19  C   UNL d   1      32.987  15.466 -23.080  0.00  0.00     0.021 C 
ENDBRANCH   6  18
TORSDOF 2
ENDMDL
MODEL 2
REMARK VINA RESULT:      -2.7      4.611      6.131
REMARK  2 active torsions:
REMARK  status: ('A' for Active; 'I' for Inactive)
REMARK    1  A    between atoms: C_9  and  C_1 
REMARK    2  A    between atoms: C_18  and  N_6 
ROOT
ATOM      1  C   UNL d   1      32.758  22.655 -20.986  0.00  0.00     0.121 A 
ATOM      2  C   UNL d   1      32.859  21.323 -21.509  0.00  0.00     0.057 A 
ATOM      3  C   UNL d   1      32.720  21.830 -20.864  0.00  0.00     0.204 A 
ATOM      4  C   UNL d   1      33.033  21.624 -22.264  0.00  0.00     0.069 A 
ATOM      5  C   UNL d   1      32.931  22.963 -21.737  0.00  0.00     0.089 A 
ATOM      6  N   UNL d   1      33.068  22.445 -22.374  0.00  0.00    -0.303 N 
ATOM      7  C   UNL d   1      33.167  21.114 -22.887  0.00  0.00     0.044 A 
ATOM      8  C   UNL d   1      32.823  20.503 -21.398  0.00  0.00     0.031 A 
ATOM      9  C   UNL d   1      33.132  20.301 -22.775  0.00  0.00     0.121 A 
ATOM     10  C   UNL d   1      32.960  19.996 -22.031  0.00  0.00     0.119 A 
ATOM     11  O   UNL d   1      33.240  19.675 -23.292  0.00  0.00    -0.299 OA
ATOM     12  O   UNL d   1      32.962  19.181 -22.088  0.00  0.00    -0.300 OA
ATOM     13  O   UNL d   1      32.548  21.524 -20.120  0.00  0.00    -0.286 OA
ATOM     14  C   UNL d   1      33.134  18.979 -22.862  0.00  0.00     0.304 A 
ENDROOT
BRANCH   1  15
ATOM     15  C   UNL d   1      32.621  23.165 -20.352  0.00  0.00     0.215 C 
ATOM     16  O   UNL d   1      33.223  23.322 -19.813  0.00  0.00    -0.644 OA
ATOM     17  O   UNL d   1      31.884  23.516 -20.259  0.00  0.00    -0.644 OA
ENDBRANCH   1  15
BRANCH   6  18
ATOM     18  C   UNL d   1      33.241  22.751 -23.118  0.00  0.00     0.080 C 
ATOM     19  C   UNL d   1      33.100  23.552 -23.276  0.00  0.00     0.021 C 
ENDBRANCH   6  18
TORSDOF 2
ENDMDL
MODEL 3
REMARK VINA RESULT:      -2.7      1.329      3.814
REMARK  2 active torsions:
REMARK  status: ('A' for Active; 'I' for Inactive)
REMARK    1  A    between atoms: C_9  and  C_1 
REMARK    2  A    between atoms: C_18  and  N_6 
ROOT
ATOM      1  C   UNL d   1      28.711  16.379 -23.618  0.00  0.00     0.121 A 
ATOM      2  C   UNL d   1      30.142  16.312 -23.657  0.00  0.00     0.057 A 
ATOM      3  C   UNL d   1      29.422  16.042 -23.342  0.00  0.00     0.204 A 
ATOM      4  C   UNL d   1      30.164  16.906 -24.238  0.00  0.00     0.069 A 
ATOM      5  C   UNL d   1      28.723  16.974 -24.198  0.00  0.00     0.089 A 
ATOM      6  N   UNL d   1      29.451  17.235 -24.505  0.00  0.00    -0.303 N 
ATOM      7  C   UNL d   1      30.878  17.161 -24.539  0.00  0.00     0.044 A 
ATOM      8  C   UNL d   1      30.854  15.983 -23.390  0.00  0.00     0.031 A 
ATOM      9  C   UNL d   1      31.582  16.833 -24.271  0.00  0.00     0.121 A 
ATOM     10  C   UNL d   1      31.570  16.244 -23.697  0.00  0.00     0.119 A 
ATOM     11  O   UNL d   1      32.363  16.981 -24.473  0.00  0.00    -0.299 OA
ATOM     12  O   UNL d   1      32.343  16.028 -23.544  0.00  0.00    -0.300 OA
ATOM     13  O   UNL d   1      29.410  15.453 -22.767  0.00  0.00    -0.286 OA
ATOM     14  C   UNL d   1      32.834  16.479 -24.018  0.00  0.00     0.304 A 
ENDROOT
BRANCH   1  15
ATOM     15  C   UNL d   1      27.991  16.118 -23.311  0.00  0.00     0.215 C 
ATOM     16  O   UNL d   1      27.625  15.453 -23.629  0.00  0.00    -0.644 OA
ATOM     17  O   UNL d   1      27.640  16.522 -22.687  0.00  0.00    -0.644 OA
ENDBRANCH   1  15
BRANCH   6  18
ATOM     18  C   UNL d   1      29.463  17.824 -25.080  0.00  0.00     0.080 C 
ATOM     19  C   UNL d   1      28.861  18.394 -25.097  0.00  0.00     0.021 C 
ENDBRANCH   6  18
TORSDOF 2
ENDMDL
MODEL 4
REMARK VINA RESULT:      -2.3      0.810      3.232
REMARK  2 active torsions:
REMARK  status: ('A' for Active; 'I' for Inactive)
REMARK    1  A    between atoms: C_9  and  C_1 
REMARK    2  A    between atoms: C_18  and  N_6 
ROOT
ATOM      1  C   UNL d   1      29.740  16.562 -24.308  0.00  0.00     0.121 A 
ATOM      2  C   UNL d   1      30.843  17.440 -24.566  0.00  0.00     0.057 A 
ATOM      3  C   UNL d   1      30.038  17.257 -24.661  0.00  0.00     0.204 A 
ATOM      4  C   UNL d   1      31.349  16.948 -24.128  0.00  0.00     0.069 A 
ATOM      5  C   UNL d   1      30.239  16.064 -23.868  0.00  0.00     0.089 A 
ATOM      6  N   UNL d   1      31.043  16.260 -23.780  0.00  0.00    -0.303 N 
ATOM      7  C   UNL d   1      32.138  17.141 -24.042  0.00  0.00     0.044 A 
ATOM      8  C   UNL d   1      31.149  18.128 -24.913  0.00  0.00     0.031 A 
ATOM      9  C   UNL d   1      32.439  17.823 -24.388  0.00  0.00     0.121 A 
ATOM     10  C   UNL d   1      31.944  18.316 -24.823  0.00  0.00     0.119 A 
ATOM     11  O   UNL d   1      33.192  18.145 -24.391  0.00  0.00    -0.299 OA
ATOM     12  O   UNL d   1      32.393  18.942 -25.096  0.00  0.00    -0.300 OA
ATOM     13  O   UNL d   1      29.544  17.750 -25.097  0.00  0.00    -0.286 OA
ATOM     14  C   UNL d   1      33.161  18.841 -24.833  0.00  0.00     0.304 A 
ENDROOT
BRANCH   1  15
ATOM     15  C   UNL d   1      28.942  16.371 -24.397  0.00  0.00     0.215 C 
ATOM     16  O   UNL d   1      28.703  15.884 -25.016  0.00  0.00    -0.644 OA
ATOM     17  O   UNL d   1      28.387  16.668 -23.868  0.00  0.00    -0.644 OA
ENDBRANCH   1  15
BRANCH   6  18
ATOM     18  C   UNL d   1      31.537  15.767 -23.344  0.00  0.00     0.080 C 
ATOM     19  C   UNL d   1      31.273  15.453 -22.624  0.00  0.00     0.021 C 
ENDBRANCH   6  18
TORSDOF 2
ENDMDL
MODEL 5
REMARK VINA RESULT:      -1.9      5.038      6.497
REMARK  2 active torsions:
REMARK  status: ('A' for Active; 'I' for Inactive)
REMARK    1  A    between atoms: C_9  and  C_1 
REMARK    2  A    between atoms: C_18  and  N_6 
ROOT
ATOM      1  C   UNL d   1      32.750  22.158 -21.055  0.00  0.00     0.121 A 
ATOM      2  C   UNL d   1      32.865  22.662 -22.392  0.00  0.00     0.057 A 
ATOM      3  C   UNL d   1      32.729  22.803 -21.584  0.00  0.00     0.204 A 
ATOM      4  C   UNL d   1      33.019  21.897 -22.677  0.00  0.00     0.069 A 
ATOM      5  C   UNL d   1      32.904  21.390 -21.331  0.00  0.00     0.089 A 
ATOM      6  N   UNL d   1      33.038  21.263 -22.142  0.00  0.00    -0.303 N 
ATOM      7  C   UNL d   1      33.150  21.774 -23.473  0.00  0.00     0.044 A 
ATOM      8  C   UNL d   1      32.846  23.296 -22.926  0.00  0.00     0.031 A 
ATOM      9  C   UNL d   1      33.131  22.404 -24.000  0.00  0.00     0.121 A 
ATOM     10  C   UNL d   1      32.979  23.165 -23.726  0.00  0.00     0.119 A 
ATOM     11  O   UNL d   1      33.241  22.438 -24.811  0.00  0.00    -0.299 OA
ATOM     12  O   UNL d   1      32.995  23.669 -24.369  0.00  0.00    -0.300 OA
ATOM     13  O   UNL d   1      32.577  23.564 -21.311  0.00  0.00    -0.286 OA
ATOM     14  C   UNL d   1      33.156  23.227 -25.038  0.00  0.00     0.304 A 
ENDROOT
BRANCH   1  15
ATOM     15  C   UNL d   1      32.617  22.288 -20.251  0.00  0.00     0.215 C 
ATOM     16  O   UNL d   1      33.227  22.563 -19.772  0.00  0.00    -0.644 OA
ATOM     17  O   UNL d   1      31.875  22.141 -19.929  0.00  0.00    -0.644 OA
ENDBRANCH   1  15
BRANCH   6  18
ATOM     18  C   UNL d   1      33.190  20.502 -22.416  0.00  0.00     0.080 C 
ATOM     19  C   UNL d   1      33.180  19.864 -21.886  0.00  0.00     0.021 C 
ENDBRANCH   6  18
TORSDOF 2
ENDMDL
MODEL 6
REMARK VINA RESULT:      -1.3      4.973      6.666
REMARK  2 active torsions:
REMARK  status: ('A' for Active; 'I' for Inactive)
REMARK    1  A    between atoms: C_9  and  C_1 
REMARK    2  A    between atoms: C_18  and  N_6 
ROOT
ATOM      1  C   UNL d   1      33.198  20.592 -22.057  0.00  0.00     0.121 A 
ATOM      2  C   UNL d   1      33.121  21.483 -20.936  0.00  0.00     0.057 A 
ATOM      3  C   UNL d   1      33.143  20.707 -21.232  0.00  0.00     0.204 A 
ATOM      4  C   UNL d   1      33.153  22.140 -21.445  0.00  0.00     0.069 A 
ATOM      5  C   UNL d   1      33.231  21.243 -22.572  0.00  0.00     0.089 A 
ATOM      6  N   UNL d   1      33.208  22.015 -22.263  0.00  0.00    -0.303 N 
ATOM      7  C   UNL d   1      33.131  22.897 -21.140  0.00  0.00     0.044 A 
ATOM      8  C   UNL d   1      33.066  21.607 -20.119  0.00  0.00     0.031 A 
ATOM      9  C   UNL d   1      33.076  23.017 -20.329  0.00  0.00     0.121 A 
ATOM     10  C   UNL d   1      33.044  22.372 -19.819  0.00  0.00     0.119 A 
ATOM     11  O   UNL d   1      33.044  23.702 -19.881  0.00  0.00    -0.299 OA
ATOM     12  O   UNL d   1      32.992  22.660 -19.056  0.00  0.00    -0.300 OA
ATOM     13  O   UNL d   1      33.110  20.062 -20.721  0.00  0.00    -0.286 OA
ATOM     14  C   UNL d   1      32.992  23.477 -19.089  0.00  0.00     0.304 A 
ENDROOT
BRANCH   1  15
ATOM     15  C   UNL d   1      33.221  19.825 -22.360  0.00  0.00     0.215 C 
ATOM     16  O   UNL d   1      33.240  19.705 -23.174  0.00  0.00    -0.644 OA
ATOM     17  O   UNL d   1      33.224  19.181 -21.849  0.00  0.00    -0.644 OA
ENDBRANCH   1  15
BRANCH   6  18
ATOM     18  C   UNL d   1      33.241  22.660 -22.773  0.00  0.00     0.080 C 
ATOM     19  C   UNL d   1      33.062  22.557 -23.576  0.00  0.00     0.021 C 
ENDBRANCH   6  18
TORSDOF 2
ENDMDL
MODEL 7
REMARK VINA RESULT:      -0.9      4.228      5.534
REMARK  2 active torsions:
REMARK  status: ('A' for Active; 'I' for Inactive)
REMARK    1  A    between atoms: C_9  and  C_1 
REMARK    2  A    between atoms: C_18  and  N_6 
ROOT
ATOM      1  C   UNL d   1      32.909  22.444 -21.653  0.00  0.00     0.121 A 
ATOM      2  C   UNL d   1      33.013  21.150 -22.263  0.00  0.00     0.057 A 
ATOM      3  C   UNL d   1      32.935  21.974 -22.342  0.00  0.00     0.204 A 
ATOM      4  C   UNL d   1      33.065  20.792 -21.515  0.00  0.00     0.069 A 
ATOM      5  C   UNL d   1      32.960  22.094 -20.901  0.00  0.00     0.089 A 
ATOM      6  N   UNL d   1      33.038  21.268 -20.836  0.00  0.00    -0.303 N 
ATOM      7  C   UNL d   1      33.142  19.981 -21.452  0.00  0.00     0.044 A 
ATOM      8  C   UNL d   1      33.040  20.675 -22.941  0.00  0.00     0.031 A 
ATOM      9  C   UNL d   1      33.168  19.513 -22.126  0.00  0.00     0.121 A 
ATOM     10  C   UNL d   1      33.118  19.860 -22.871  0.00  0.00     0.119 A 
ATOM     11  O   UNL d   1      33.241  18.703 -22.224  0.00  0.00    -0.299 OA
ATOM     12  O   UNL d   1      33.159  19.264 -23.428  0.00  0.00    -0.300 OA
ATOM     13  O   UNL d   1      32.884  22.321 -23.087  0.00  0.00    -0.286 OA
ATOM     14  C   UNL d   1      33.235  18.550 -23.035  0.00  0.00     0.304 A 
ENDROOT
BRANCH   1  15
ATOM     15  C   UNL d   1      32.831  23.263 -21.722  0.00  0.00     0.215 C 
ATOM     16  O   UNL d   1      32.366  23.678 -21.185  0.00  0.00    -0.644 OA
ATOM     17  O   UNL d   1      33.218  23.662 -22.326  0.00  0.00    -0.644 OA
ENDBRANCH   1  15
BRANCH   6  18
ATOM     18  C   UNL d   1      33.088  20.921 -20.091  0.00  0.00     0.080 C 
ATOM     19  C   UNL d   1      33.201  21.398 -19.423  0.00  0.00     0.021 C 
ENDBRANCH   6  18
TORSDOF 2
ENDMDL
MODEL 8
REMARK VINA RESULT:      -0.6      2.862      4.390
REMARK  2 active torsions:
REMARK  status: ('A' for Active; 'I' for Inactive)
REMARK    1  A    between atoms: C_9  and  C_1 
REMARK    2  A    between atoms: C_18  and  N_6 
ROOT
ATOM      1  C   UNL d   1      32.988  20.809 -22.305  0.00  0.00     0.121 A 
ATOM      2  C   UNL d   1      33.041  19.433 -22.706  0.00  0.00     0.057 A 
ATOM      3  C   UNL d   1      32.968  19.999 -22.102  0.00  0.00     0.204 A 
ATOM      4  C   UNL d   1      33.132  19.658 -23.501  0.00  0.00     0.069 A 
ATOM      5  C   UNL d   1      33.079  21.043 -23.097  0.00  0.00     0.089 A 
ATOM      6  N   UNL d   1      33.151  20.465 -23.692  0.00  0.00    -0.303 N 
ATOM      7  C   UNL d   1      33.202  19.091 -24.083  0.00  0.00     0.044 A 
ATOM      8  C   UNL d   1      33.022  18.627 -22.514  0.00  0.00     0.031 A 
ATOM      9  C   UNL d   1      33.183  18.293 -23.890  0.00  0.00     0.121 A 
ATOM     10  C   UNL d   1      33.093  18.061 -23.105  0.00  0.00     0.119 A 
ATOM     11  O   UNL d   1      33.240  17.619 -24.353  0.00  0.00    -0.299 OA
ATOM     12  O   UNL d   1      33.094  17.244 -23.084  0.00  0.00    -0.300 OA
ATOM     13  O   UNL d   1      32.878  19.768 -21.317  0.00  0.00    -0.286 OA
ATOM     14  C   UNL d   1      33.184  16.968 -23.849  0.00  0.00     0.304 A 
ENDROOT
BRANCH   1  15
ATOM     15  C   UNL d   1      32.917  21.379 -21.713  0.00  0.00     0.215 C 
ATOM     16  O   UNL d   1      32.522  22.084 -21.867  0.00  0.00    -0.644 OA
ATOM     17  O   UNL d   1      33.241  21.241 -20.970  0.00  0.00    -0.644 OA
ENDBRANCH   1  15
BRANCH   6  18
ATOM     18  C   UNL d   1      33.241  20.697 -24.477  0.00  0.00     0.080 C 
ATOM     19  C   UNL d   1      33.095  21.484 -24.692  0.00  0.00     0.021 C 
ENDBRANCH   6  18
TORSDOF 2
ENDMDL
MODEL 9
REMARK VINA RESULT:      -0.6      4.448      6.043
REMARK  2 active torsions:
REMARK  status: ('A' for Active; 'I' for Inactive)
REMARK    1  A    between atoms: C_9  and  C_1 
REMARK    2  A    between atoms: C_18  and  N_6 
ROOT
ATOM      1  C   UNL d   1      33.207  21.470 -23.437  0.00  0.00     0.121 A 
ATOM      2  C   UNL d   1      33.213  22.030 -22.117  0.00  0.00     0.057 A 
ATOM      3  C   UNL d   1      33.221  22.141 -22.941  0.00  0.00     0.204 A 
ATOM      4  C   UNL d   1      33.193  21.268 -21.784  0.00  0.00     0.069 A 
ATOM      5  C   UNL d   1      33.187  20.705 -23.113  0.00  0.00     0.089 A 
ATOM      6  N   UNL d   1      33.180  20.608 -22.286  0.00  0.00    -0.303 N 
ATOM      7  C   UNL d   1      33.187  21.175 -20.973  0.00  0.00     0.044 A 
ATOM      8  C   UNL d   1      33.227  22.689 -21.616  0.00  0.00     0.031 A 
ATOM      9  C   UNL d   1      33.200  21.830 -20.479  0.00  0.00     0.121 A 
ATOM     10  C   UNL d   1      33.220  22.588 -20.800  0.00  0.00     0.119 A 
ATOM     11  O   UNL d   1      33.197  21.896 -19.662  0.00  0.00    -0.299 OA
ATOM     12  O   UNL d   1      33.229  23.122 -20.181  0.00  0.00    -0.300 OA
ATOM     13  O   UNL d   1      33.240  22.898 -23.262  0.00  0.00    -0.286 OA
ATOM     14  C   UNL d   1      33.215  22.701 -19.480  0.00  0.00     0.304 A 
ENDROOT
BRANCH   1  15
ATOM     15  C   UNL d   1      33.214  21.570 -24.256  0.00  0.00     0.215 C 
ATOM     16  O   UNL d   1      33.241  20.913 -24.750  0.00  0.00    -0.644 OA
ATOM     17  O   UNL d   1      33.194  22.326 -24.577  0.00  0.00    -0.644 OA
ENDBRANCH   1  15
BRANCH   6  18
ATOM     18  C   UNL d   1      33.160  19.851 -21.965  0.00  0.00     0.080 C 
ATOM     19  C   UNL d   1      33.006  19.200 -22.455  0.00  0.00     0.021 C 
ENDBRANCH   6  18
TORSDOF 2
ENDMDL
