MODEL 1
REMARK VINA RESULT:      -1.1      0.000      0.000
REMARK  8 active torsions:
REMARK  status: ('A' for Active; 'I' for Inactive)
REMARK    1  A    between atoms: N_3  and  C_1 
REMARK    2  A    between atoms: S_2  and  C_9 
REMARK    3  A    between atoms: N_10  and  S_2 
REMARK       I    between atoms: C_8  and  N_3 
REMARK    4  A    between atoms: C_15  and  C_8 
REMARK    5  A    between atoms: C_27  and  N_10 
REMARK       I    between atoms: C_16  and  N_17 
REMARK    6  A    between atoms: N_17  and  C_18 
REMARK    7  A    between atoms: C_30  and  C_27 
REMARK    8  A    between atoms: C_31  and  C_30 
ROOT
ATOM      1  N   UNL d   1      57.193  -0.258  31.493  0.00  0.00    -0.184 NA
ATOM      2  C   UNL d   1      56.794  -0.779  31.994  0.00  0.00     0.281 C 
ATOM      3  O   UNL d   1      56.810  -1.599  31.847  0.00  0.00    -0.265 OA
ENDROOT
BRANCH   2   4
ATOM      4  C   UNL d   1      56.376  -0.492  32.644  0.00  0.00     0.058 A 
ATOM      5  C   UNL d   1      56.478   0.291  32.888  0.00  0.00     0.005 A 
ATOM      6  C   UNL d   1      56.060   0.578  33.539  0.00  0.00     0.013 A 
ATOM      7  C   UNL d   1      55.536   0.091  33.955  0.00  0.00     0.104 A 
ATOM      8  C   UNL d   1      55.435  -0.690  33.711  0.00  0.00     0.013 A 
ATOM      9  C   UNL d   1      55.854  -0.981  33.057  0.00  0.00     0.005 A 
BRANCH   7  10
ATOM     10  S   UNL d   1      55.114   0.386  34.615  0.00  0.00     0.271 S 
ATOM     11  O   UNL d   1      54.687   0.679  35.263  0.00  0.00    -0.200 OA
ATOM     12  O   UNL d   1      55.789   0.333  35.074  0.00  0.00    -0.200 OA
BRANCH  10  13
ATOM     13  N   UNL d   1      54.431   0.437  34.140  0.00  0.00    -0.228 N 
ATOM     14  C   UNL d   1      54.497   0.557  33.321  0.00  0.00     0.111 C 
BRANCH  13  15
ATOM     15  C   UNL d   1      53.686   0.368  34.485  0.00  0.00     0.092 C 
BRANCH  15  16
ATOM     16  C   UNL d   1      53.018   0.553  34.050  0.00  0.00     0.020 C 
BRANCH  16  17
ATOM     17  C   UNL d   1      52.302   0.216  34.243  0.00  0.00     0.002 C 
ATOM     18  C   UNL d   1      51.718   0.682  34.626  0.00  0.00     0.000 C 
ENDBRANCH  16  17
ENDBRANCH  15  16
ENDBRANCH  13  15
ENDBRANCH  10  13
ENDBRANCH   7  10
ENDBRANCH   2   4
BRANCH   1  19
ATOM     19  C   UNL d   1      57.614  -0.551  30.836  0.00  0.00     0.182 A 
ATOM     20  N   UNL d   1      57.795  -0.127  30.156  0.00  0.00    -0.283 N 
ATOM     21  C   UNL d   1      58.215  -0.612  29.641  0.00  0.00     0.072 A 
ATOM     22  C   UNL d   1      57.583   0.668  30.014  0.00  0.00     0.101 C 
ATOM     23  C   UNL d   1      58.534  -0.480  28.887  0.00  0.00     0.020 A 
ATOM     24  C   UNL d   1      58.306  -1.352  29.992  0.00  0.00     0.050 A 
ATOM     25  C   UNL d   1      58.934  -1.085  28.502  0.00  0.00     0.021 A 
ATOM     26  C   UNL d   1      59.022  -1.822  28.856  0.00  0.00     0.085 A 
ATOM     27  C   UNL d   1      58.706  -1.958  29.607  0.00  0.00     0.027 A 
ATOM     28  S   UNL d   1      57.932  -1.316  30.736  0.00  0.00    -0.048 SA
BRANCH  26  29
ATOM     29  N   UNL d   1      59.431  -2.435  28.457  0.00  0.00    -0.208 NA
ATOM     30  C   UNL d   1      59.953  -2.921  28.885  0.00  0.00     0.279 C 
ATOM     31  O   UNL d   1      60.358  -3.525  28.498  0.00  0.00    -0.265 OA
ATOM     32  C   UNL d   1      60.057  -2.791  29.693  0.00  0.00     0.068 C 
ENDBRANCH  26  29
ENDBRANCH   1  19
TORSDOF 8
ENDMDL
