MODEL 1
REMARK VINA RESULT:      26.6      0.000      0.000
REMARK  2 active torsions:
REMARK  status: ('A' for Active; 'I' for Inactive)
REMARK    1  A    between atoms: C_9  and  C_1 
REMARK    2  A    between atoms: C_18  and  N_6 
ROOT
ATOM      1  C   UNL d   1      14.834  13.156  -1.126  0.00  0.00     0.121 A 
ATOM      2  C   UNL d   1      14.115  12.706  -2.283  0.00  0.00     0.057 A 
ATOM      3  C   UNL d   1      14.457  12.539  -1.544  0.00  0.00     0.204 A 
ATOM      4  C   UNL d   1      14.143  13.470  -2.608  0.00  0.00     0.069 A 
ATOM      5  C   UNL d   1      14.866  13.923  -1.444  0.00  0.00     0.089 A 
ATOM      6  N   UNL d   1      14.520  14.076  -2.185  0.00  0.00    -0.303 N 
ATOM      7  C   UNL d   1      13.803  13.619  -3.335  0.00  0.00     0.044 A 
ATOM      8  C   UNL d   1      13.739  12.100  -2.705  0.00  0.00     0.031 A 
ATOM      9  C   UNL d   1      13.431  13.017  -3.752  0.00  0.00     0.121 A 
ATOM     10  C   UNL d   1      13.399  12.258  -3.436  0.00  0.00     0.119 A 
ATOM     11  O   UNL d   1      13.051  13.011  -4.478  0.00  0.00    -0.299 OA
ATOM     12  O   UNL d   1      12.999  11.783  -3.968  0.00  0.00    -0.300 OA
ATOM     13  O   UNL d   1      14.425  11.779  -1.229  0.00  0.00    -0.286 OA
ATOM     14  C   UNL d   1      12.784  12.242  -4.610  0.00  0.00     0.304 A 
ENDROOT
BRANCH   1  15
ATOM     15  C   UNL d   1      15.176  13.000  -0.392  0.00  0.00     0.215 C 
ATOM     16  O   UNL d   1      15.649  13.568  -0.030  0.00  0.00    -0.644 OA
ATOM     17  O   UNL d   1      15.043  12.278  -0.022  0.00  0.00    -0.644 OA
ENDBRANCH   1  15
BRANCH   6  18
ATOM     18  C   UNL d   1      14.551  14.836  -2.501  0.00  0.00     0.080 C 
ATOM     19  C   UNL d   1      14.626  15.488  -1.994  0.00  0.00     0.021 C 
ENDBRANCH   6  18
TORSDOF 2
ENDMDL
MODEL 2
REMARK VINA RESULT:      27.5      0.616      3.163
REMARK  2 active torsions:
REMARK  status: ('A' for Active; 'I' for Inactive)
REMARK    1  A    between atoms: C_9  and  C_1 
REMARK    2  A    between atoms: C_18  and  N_6 
ROOT
ATOM      1  C   UNL d   1      13.461  13.133  -3.729  0.00  0.00     0.121 A 
ATOM      2  C   UNL d   1      13.963  12.690  -2.461  0.00  0.00     0.057 A 
ATOM      3  C   UNL d   1      13.549  12.526  -3.163  0.00  0.00     0.204 A 
ATOM      4  C   UNL d   1      14.288  13.441  -2.316  0.00  0.00     0.069 A 
ATOM      5  C   UNL d   1      13.783  13.887  -3.592  0.00  0.00     0.089 A 
ATOM      6  N   UNL d   1      14.195  14.037  -2.885  0.00  0.00    -0.303 N 
ATOM      7  C   UNL d   1      14.692  13.587  -1.622  0.00  0.00     0.044 A 
ATOM      8  C   UNL d   1      14.055  12.093  -1.893  0.00  0.00     0.031 A 
ATOM      9  C   UNL d   1      14.782  12.994  -1.061  0.00  0.00     0.121 A 
ATOM     10  C   UNL d   1      14.463  12.247  -1.196  0.00  0.00     0.119 A 
ATOM     11  O   UNL d   1      15.154  12.987  -0.331  0.00  0.00    -0.299 OA
ATOM     12  O   UNL d   1      14.639  11.779  -0.550  0.00  0.00    -0.300 OA
ATOM     13  O   UNL d   1      13.231  11.779  -3.298  0.00  0.00    -0.286 OA
ATOM     14  C   UNL d   1      15.063  12.230  -0.015  0.00  0.00     0.304 A 
ENDROOT
BRANCH   1  15
ATOM     15  C   UNL d   1      13.052  12.981  -4.429  0.00  0.00     0.215 C 
ATOM     16  O   UNL d   1      12.832  12.210  -4.616  0.00  0.00    -0.644 OA
ATOM     17  O   UNL d   1      12.865  13.598  -4.938  0.00  0.00    -0.644 OA
ENDBRANCH   1  15
BRANCH   6  18
ATOM     18  C   UNL d   1      14.513  14.784  -2.750  0.00  0.00     0.080 C 
ATOM     19  C   UNL d   1      14.128  15.455  -3.046  0.00  0.00     0.021 C 
ENDBRANCH   6  18
TORSDOF 2
ENDMDL
MODEL 3
REMARK VINA RESULT:      27.6      1.208      3.494
REMARK  2 active torsions:
REMARK  status: ('A' for Active; 'I' for Inactive)
REMARK    1  A    between atoms: C_9  and  C_1 
REMARK    2  A    between atoms: C_18  and  N_6 
ROOT
ATOM      1  C   UNL d   1      13.607  14.045  -3.715  0.00  0.00     0.121 A 
ATOM      2  C   UNL d   1      14.130  13.543  -2.478  0.00  0.00     0.057 A 
ATOM      3  C   UNL d   1      14.011  14.181  -2.997  0.00  0.00     0.204 A 
ATOM      4  C   UNL d   1      13.854  12.781  -2.660  0.00  0.00     0.069 A 
ATOM      5  C   UNL d   1      13.328  13.286  -3.905  0.00  0.00     0.089 A 
ATOM      6  N   UNL d   1      13.453  12.657  -3.376  0.00  0.00    -0.303 N 
ATOM      7  C   UNL d   1      13.977  12.164  -2.140  0.00  0.00     0.044 A 
ATOM      8  C   UNL d   1      14.530  13.668  -1.763  0.00  0.00     0.031 A 
ATOM      9  C   UNL d   1      14.374  12.291  -1.432  0.00  0.00     0.121 A 
ATOM     10  C   UNL d   1      14.651  13.043  -1.244  0.00  0.00     0.119 A 
ATOM     11  O   UNL d   1      14.571  11.783  -0.820  0.00  0.00    -0.299 OA
ATOM     12  O   UNL d   1      15.018  12.999  -0.515  0.00  0.00    -0.300 OA
ATOM     13  O   UNL d   1      14.288  14.933  -2.809  0.00  0.00    -0.286 OA
ATOM     14  C   UNL d   1      14.972  12.226  -0.250  0.00  0.00     0.304 A 
ENDROOT
BRANCH   1  15
ATOM     15  C   UNL d   1      13.485  14.672  -4.238  0.00  0.00     0.215 C 
ATOM     16  O   UNL d   1      14.080  15.227  -4.361  0.00  0.00    -0.644 OA
ATOM     17  O   UNL d   1      12.769  14.742  -4.635  0.00  0.00    -0.644 OA
ENDBRANCH   1  15
BRANCH   6  18
ATOM     18  C   UNL d   1      13.177  11.905  -3.564  0.00  0.00     0.080 C 
ATOM     19  C   UNL d   1      12.781  11.780  -4.282  0.00  0.00     0.021 C 
ENDBRANCH   6  18
TORSDOF 2
ENDMDL
