MODEL 1
REMARK VINA RESULT:      49.9      0.000      0.000
REMARK  3 active torsions:
REMARK  status: ('A' for Active; 'I' for Inactive)
REMARK    1  A    between atoms: C_13  and  C_4 
REMARK    2  A    between atoms: O_15  and  C_13 
REMARK    3  A    between atoms: C_16  and  O_15 
ROOT
ATOM      1  C   UNL d   1     -49.127  27.809  33.869  0.00  0.00     0.144 C 
ENDROOT
BRANCH   1   2
ATOM      2  C   UNL d   1     -49.732  27.278  33.741  0.00  0.00     0.142 A 
ATOM      3  N   UNL d   1     -50.534  27.443  33.669  0.00  0.00    -0.057 NA
ATOM      4  C   UNL d   1     -50.951  26.744  33.542  0.00  0.00     0.735 A 
ATOM      5  N   UNL d   1     -50.404  26.112  33.532  0.00  0.00    -0.136 N 
ATOM      6  N   UNL d   1     -51.748  26.587  33.434  0.00  0.00    -0.059 NA
ATOM      7  C   UNL d   1     -49.659  26.460  33.656  0.00  0.00     0.120 A 
ATOM      8  C   UNL d   1     -50.657  25.337  33.415  0.00  0.00     0.100 A 
ATOM      9  C   UNL d   1     -51.435  25.166  33.308  0.00  0.00     0.041 A 
ATOM     10  C   UNL d   1     -52.013  25.796  33.314  0.00  0.00     0.119 A 
ENDBRANCH   1   2
BRANCH   1  11
ATOM     11  O   UNL d   1     -48.905  28.004  34.632  0.00  0.00    -0.303 OA
BRANCH  11  12
ATOM     12  C   UNL d   1     -48.531  28.722  34.791  0.00  0.00     0.100 A 
ATOM     13  C   UNL d   1     -48.073  28.792  35.463  0.00  0.00     0.025 A 
ATOM     14  C   UNL d   1     -47.699  29.508  35.625  0.00  0.00     0.013 A 
ATOM     15  C   UNL d   1     -47.224  29.580  36.322  0.00  0.00     0.001 C 
ATOM     16  C   UNL d   1     -47.782  30.155  35.114  0.00  0.00     0.058 A 
ATOM     17  C   UNL d   1     -48.240  30.085  34.443  0.00  0.00     0.013 A 
ATOM     18 CL   UNL d   1     -47.410  30.887  35.263  0.00  0.00    -0.082 Cl
ATOM     19  C   UNL d   1     -48.614  29.366  34.283  0.00  0.00     0.026 A 
ENDBRANCH  11  12
ENDBRANCH   1  11
TORSDOF 3
ENDMDL
MODEL 2
REMARK VINA RESULT:      50.2      2.570      5.232
REMARK  3 active torsions:
REMARK  status: ('A' for Active; 'I' for Inactive)
REMARK    1  A    between atoms: C_13  and  C_4 
REMARK    2  A    between atoms: O_15  and  C_13 
REMARK    3  A    between atoms: C_16  and  O_15 
ROOT
ATOM      1  C   UNL d   1     -50.675  26.386  33.856  0.00  0.00     0.144 C 
ENDROOT
BRANCH   1   2
ATOM      2  C   UNL d   1     -50.054  26.830  34.138  0.00  0.00     0.142 A 
ATOM      3  N   UNL d   1     -49.250  26.683  34.040  0.00  0.00    -0.057 NA
ATOM      4  C   UNL d   1     -48.813  27.272  34.417  0.00  0.00     0.735 A 
ATOM      5  N   UNL d   1     -49.348  27.812  34.766  0.00  0.00    -0.136 N 
ATOM      6  N   UNL d   1     -48.007  27.398  34.494  0.00  0.00    -0.059 NA
ATOM      7  C   UNL d   1     -50.106  27.523  34.584  0.00  0.00     0.120 A 
ATOM      8  C   UNL d   1     -49.073  28.465  35.184  0.00  0.00     0.100 A 
ATOM      9  C   UNL d   1     -48.286  28.603  35.269  0.00  0.00     0.041 A 
ATOM     10  C   UNL d   1     -47.721  28.065  34.921  0.00  0.00     0.119 A 
ENDBRANCH   1   2
BRANCH   1  11
ATOM     11  O   UNL d   1     -50.535  25.734  33.382  0.00  0.00    -0.303 OA
BRANCH  11  12
ATOM     12  C   UNL d   1     -51.067  25.104  33.364  0.00  0.00     0.100 A 
ATOM     13  C   UNL d   1     -51.868  25.260  33.347  0.00  0.00     0.025 A 
ATOM     14  C   UNL d   1     -52.403  24.633  33.329  0.00  0.00     0.013 A 
ATOM     15  C   UNL d   1     -53.234  24.796  33.312  0.00  0.00     0.001 C 
ATOM     16  C   UNL d   1     -52.135  23.848  33.326  0.00  0.00     0.058 A 
ATOM     17  C   UNL d   1     -51.335  23.693  33.343  0.00  0.00     0.013 A 
ATOM     18 CL   UNL d   1     -52.663  23.202  33.308  0.00  0.00    -0.082 Cl
ATOM     19  C   UNL d   1     -50.802  24.324  33.361  0.00  0.00     0.026 A 
ENDBRANCH  11  12
ENDBRANCH   1  11
TORSDOF 3
ENDMDL
