MODEL 1
REMARK VINA RESULT:      -3.6      0.000      0.000
REMARK  1 active torsions:
REMARK  status: ('A' for Active; 'I' for Inactive)
REMARK    1  A    between atoms: C_2  and  C_1 
REMARK       I    between atoms: N_3  and  C_2 
ROOT
ATOM      1  C   UNL d   1      31.072  16.994 -24.265  0.00  0.00     0.109 A 
ATOM      2  C   UNL d   1      30.960  17.407 -24.947  0.00  0.00     0.026 A 
ATOM      3  C   UNL d   1      31.695  17.231 -23.831  0.00  0.00    -0.014 A 
ATOM      4  C   UNL d   1      31.636  16.955 -23.535  0.00  0.00    -0.014 A 
ATOM      5  C   UNL d   1      31.589  18.031 -25.018  0.00  0.00     0.045 A 
ATOM      6  C   UNL d   1      32.161  17.472 -23.590  0.00  0.00    -0.007 A 
ATOM      7  C   UNL d   1      32.363  17.907 -23.923  0.00  0.00    -0.007 A 
ATOM      8  C   UNL d   1      32.926  17.867 -23.194  0.00  0.00    -0.001 A 
ATOM      9  C   UNL d   1      32.256  18.302 -24.576  0.00  0.00    -0.022 A 
ATOM     10  C   UNL d   1      32.064  18.044 -24.464  0.00  0.00    -0.022 A 
ENDROOT
BRANCH   1  11
ATOM     11  C   UNL d   1      30.371  16.232 -24.097  0.00  0.00     0.248 C 
ATOM     12  N   UNL d   1      29.375  16.420 -23.858  0.00  0.00    -0.275 N 
ATOM     13  C   UNL d   1      28.760  16.879 -23.710  0.00  0.00     0.083 A 
ATOM     14  C   UNL d   1      29.136  15.685 -23.801  0.00  0.00     0.083 A 
ATOM     15  C   UNL d   1      28.141  16.414 -23.562  0.00  0.00     0.021 A 
ATOM     16  C   UNL d   1      28.373  15.677 -23.618  0.00  0.00     0.021 A 
ATOM     17  O   UNL d   1      30.693  15.453 -24.174  0.00  0.00    -0.271 OA
ENDBRANCH   1  11
TORSDOF 1
ENDMDL
MODEL 2
REMARK VINA RESULT:      -3.5      1.031      3.315
REMARK  1 active torsions:
REMARK  status: ('A' for Active; 'I' for Inactive)
REMARK    1  A    between atoms: C_2  and  C_1 
REMARK       I    between atoms: N_3  and  C_2 
ROOT
ATOM      1  C   UNL d   1      30.208  16.765 -24.282  0.00  0.00     0.109 A 
ATOM      2  C   UNL d   1      29.785  17.364 -24.613  0.00  0.00     0.026 A 
ATOM      3  C   UNL d   1      29.780  16.263 -23.837  0.00  0.00    -0.014 A 
ATOM      4  C   UNL d   1      30.099  16.026 -23.740  0.00  0.00    -0.014 A 
ATOM      5  C   UNL d   1      28.931  17.287 -24.376  0.00  0.00     0.045 A 
ATOM      6  C   UNL d   1      29.391  15.957 -23.540  0.00  0.00    -0.007 A 
ATOM      7  C   UNL d   1      28.860  16.194 -23.593  0.00  0.00    -0.007 A 
ATOM      8  C   UNL d   1      28.752  15.456 -23.050  0.00  0.00    -0.001 A 
ATOM      9  C   UNL d   1      28.455  16.768 -23.910  0.00  0.00    -0.022 A 
ATOM     10  C   UNL d   1      28.790  16.716 -23.945  0.00  0.00    -0.022 A 
ENDROOT
BRANCH   1  11
ATOM     11  C   UNL d   1      31.232  16.777 -24.509  0.00  0.00     0.248 C 
ATOM     12  N   UNL d   1      31.897  17.461 -24.093  0.00  0.00    -0.275 N 
ATOM     13  C   UNL d   1      32.095  18.064 -23.636  0.00  0.00     0.083 A 
ATOM     14  C   UNL d   1      32.541  17.216 -24.447  0.00  0.00     0.083 A 
ATOM     15  C   UNL d   1      32.870  18.183 -23.716  0.00  0.00     0.021 A 
ATOM     16  C   UNL d   1      33.146  17.660 -24.216  0.00  0.00     0.021 A 
ATOM     17  O   UNL d   1      31.462  16.178 -25.061  0.00  0.00    -0.271 OA
ENDBRANCH   1  11
TORSDOF 1
ENDMDL
MODEL 3
REMARK VINA RESULT:      -3.2      4.784      5.942
REMARK  1 active torsions:
REMARK  status: ('A' for Active; 'I' for Inactive)
REMARK    1  A    between atoms: C_2  and  C_1 
REMARK       I    between atoms: N_3  and  C_2 
ROOT
ATOM      1  C   UNL d   1      32.896  21.902 -21.650  0.00  0.00     0.109 A 
ATOM      2  C   UNL d   1      33.230  22.160 -22.335  0.00  0.00     0.026 A 
ATOM      3  C   UNL d   1      32.485  22.455 -21.252  0.00  0.00    -0.014 A 
ATOM      4  C   UNL d   1      32.379  22.204 -20.948  0.00  0.00    -0.014 A 
ATOM      5  C   UNL d   1      33.034  23.019 -22.453  0.00  0.00     0.045 A 
ATOM      6  C   UNL d   1      32.213  22.919 -21.040  0.00  0.00    -0.007 A 
ATOM      7  C   UNL d   1      32.284  23.378 -21.394  0.00  0.00    -0.007 A 
ATOM      8  C   UNL d   1      31.767  23.678 -20.692  0.00  0.00    -0.001 A 
ATOM      9  C   UNL d   1      32.603  23.624 -22.050  0.00  0.00    -0.022 A 
ATOM     10  C   UNL d   1      32.625  23.308 -21.923  0.00  0.00    -0.022 A 
ENDROOT
BRANCH   1  11
ATOM     11  C   UNL d   1      33.076  20.893 -21.429  0.00  0.00     0.248 C 
ATOM     12  N   UNL d   1      33.056  20.142 -22.151  0.00  0.00    -0.275 N 
ATOM     13  C   UNL d   1      32.968  19.863 -22.876  0.00  0.00     0.083 A 
ATOM     14  C   UNL d   1      33.221  19.543 -21.690  0.00  0.00     0.083 A 
ATOM     15  C   UNL d   1      33.082  19.084 -22.850  0.00  0.00     0.021 A 
ATOM     16  C   UNL d   1      33.238  18.885 -22.119  0.00  0.00     0.021 A 
ATOM     17  O   UNL d   1      33.240  20.749 -20.612  0.00  0.00    -0.271 OA
ENDBRANCH   1  11
TORSDOF 1
ENDMDL
MODEL 4
REMARK VINA RESULT:      -3.0      2.250      3.933
REMARK  1 active torsions:
REMARK  status: ('A' for Active; 'I' for Inactive)
REMARK    1  A    between atoms: C_2  and  C_1 
REMARK       I    between atoms: N_3  and  C_2 
ROOT
ATOM      1  C   UNL d   1      32.708  18.076 -23.504  0.00  0.00     0.109 A 
ATOM      2  C   UNL d   1      33.117  17.579 -23.020  0.00  0.00     0.026 A 
ATOM      3  C   UNL d   1      32.162  17.721 -23.960  0.00  0.00    -0.014 A 
ATOM      4  C   UNL d   1      32.041  18.067 -24.140  0.00  0.00    -0.014 A 
ATOM      5  C   UNL d   1      32.828  16.747 -23.142  0.00  0.00     0.045 A 
ATOM      6  C   UNL d   1      31.796  17.377 -24.246  0.00  0.00    -0.007 A 
ATOM      7  C   UNL d   1      31.863  16.822 -24.079  0.00  0.00    -0.007 A 
ATOM      8  C   UNL d   1      31.195  16.814 -24.715  0.00  0.00    -0.001 A 
ATOM      9  C   UNL d   1      32.254  16.346 -23.616  0.00  0.00    -0.022 A 
ATOM     10  C   UNL d   1      32.296  16.684 -23.638  0.00  0.00    -0.022 A 
ENDROOT
BRANCH   1  11
ATOM     11  C   UNL d   1      32.986  19.085 -23.426  0.00  0.00     0.248 C 
ATOM     12  N   UNL d   1      32.959  19.613 -22.529  0.00  0.00    -0.275 N 
ATOM     13  C   UNL d   1      32.829  19.695 -21.762  0.00  0.00     0.083 A 
ATOM     14  C   UNL d   1      33.211  20.295 -22.797  0.00  0.00     0.083 A 
ATOM     15  C   UNL d   1      33.006  20.437 -21.566  0.00  0.00     0.021 A 
ATOM     16  C   UNL d   1      33.241  20.808 -22.204  0.00  0.00     0.021 A 
ATOM     17  O   UNL d   1      33.232  19.425 -24.161  0.00  0.00    -0.271 OA
ENDBRANCH   1  11
TORSDOF 1
ENDMDL
MODEL 5
REMARK VINA RESULT:      -2.8      2.153      3.126
REMARK  1 active torsions:
REMARK  status: ('A' for Active; 'I' for Inactive)
REMARK    1  A    between atoms: C_2  and  C_1 
REMARK       I    between atoms: N_3  and  C_2 
ROOT
ATOM      1  C   UNL d   1      32.913  19.076 -23.096  0.00  0.00     0.109 A 
ATOM      2  C   UNL d   1      33.045  19.476 -23.781  0.00  0.00     0.026 A 
ATOM      3  C   UNL d   1      32.949  19.522 -22.438  0.00  0.00    -0.014 A 
ATOM      4  C   UNL d   1      32.868  19.211 -22.184  0.00  0.00    -0.014 A 
ATOM      5  C   UNL d   1      33.198  20.333 -23.597  0.00  0.00     0.045 A 
ATOM      6  C   UNL d   1      32.995  19.923 -22.025  0.00  0.00    -0.007 A 
ATOM      7  C   UNL d   1      33.115  20.444 -22.257  0.00  0.00    -0.007 A 
ATOM      8  C   UNL d   1      33.069  20.579 -21.346  0.00  0.00    -0.001 A 
ATOM      9  C   UNL d   1      33.241  20.828 -22.914  0.00  0.00    -0.022 A 
ATOM     10  C   UNL d   1      33.174  20.495 -22.885  0.00  0.00    -0.022 A 
ENDROOT
BRANCH   1  11
ATOM     11  C   UNL d   1      32.723  18.051 -23.219  0.00  0.00     0.248 C 
ATOM     12  N   UNL d   1      31.968  17.685 -23.837  0.00  0.00    -0.275 N 
ATOM     13  C   UNL d   1      31.372  17.753 -24.337  0.00  0.00     0.083 A 
ATOM     14  C   UNL d   1      32.085  16.929 -23.713  0.00  0.00     0.083 A 
ATOM     15  C   UNL d   1      31.125  17.026 -24.518  0.00  0.00     0.021 A 
ATOM     16  C   UNL d   1      31.565  16.518 -24.134  0.00  0.00     0.021 A 
ATOM     17  O   UNL d   1      33.241  17.555 -22.770  0.00  0.00    -0.271 OA
ENDBRANCH   1  11
TORSDOF 1
ENDMDL
MODEL 6
REMARK VINA RESULT:      -2.4      3.350      4.686
REMARK  1 active torsions:
REMARK  status: ('A' for Active; 'I' for Inactive)
REMARK    1  A    between atoms: C_2  and  C_1 
REMARK       I    between atoms: N_3  and  C_2 
ROOT
ATOM      1  C   UNL d   1      32.969  20.236 -22.063  0.00  0.00     0.109 A 
ATOM      2  C   UNL d   1      33.240  19.747 -21.484  0.00  0.00     0.026 A 
ATOM      3  C   UNL d   1      32.729  20.951 -21.808  0.00  0.00    -0.014 A 
ATOM      4  C   UNL d   1      32.625  21.084 -22.180  0.00  0.00    -0.014 A 
ATOM      5  C   UNL d   1      33.190  20.163 -20.700  0.00  0.00     0.045 A 
ATOM      6  C   UNL d   1      32.582  21.435 -21.531  0.00  0.00    -0.007 A 
ATOM      7  C   UNL d   1      32.683  21.383 -20.959  0.00  0.00    -0.007 A 
ATOM      8  C   UNL d   1      32.339  22.231 -21.077  0.00  0.00    -0.001 A 
ATOM      9  C   UNL d   1      32.942  20.915 -20.404  0.00  0.00    -0.022 A 
ATOM     10  C   UNL d   1      32.923  20.841 -20.737  0.00  0.00    -0.022 A 
ENDROOT
BRANCH   1  11
ATOM     11  C   UNL d   1      32.991  19.825 -23.028  0.00  0.00     0.248 C 
ATOM     12  N   UNL d   1      32.739  18.834 -23.228  0.00  0.00    -0.275 N 
ATOM     13  C   UNL d   1      32.508  18.113 -23.035  0.00  0.00     0.083 A 
ATOM     14  C   UNL d   1      32.853  18.846 -23.994  0.00  0.00     0.083 A 
ATOM     15  C   UNL d   1      32.481  17.684 -23.696  0.00  0.00     0.021 A 
ATOM     16  C   UNL d   1      32.694  18.135 -24.287  0.00  0.00     0.021 A 
ATOM     17  O   UNL d   1      33.232  20.375 -23.624  0.00  0.00    -0.271 OA
ENDBRANCH   1  11
TORSDOF 1
ENDMDL
MODEL 7
REMARK VINA RESULT:      -1.7      1.505      1.879
REMARK  1 active torsions:
REMARK  status: ('A' for Active; 'I' for Inactive)
REMARK    1  A    between atoms: C_2  and  C_1 
REMARK       I    between atoms: N_3  and  C_2 
ROOT
ATOM      1  C   UNL d   1      31.162  16.022 -23.951  0.00  0.00     0.109 A 
ATOM      2  C   UNL d   1      31.348  16.102 -23.172  0.00  0.00     0.026 A 
ATOM      3  C   UNL d   1      31.774  15.827 -24.421  0.00  0.00    -0.014 A 
ATOM      4  C   UNL d   1      31.550  15.820 -24.763  0.00  0.00    -0.014 A 
ATOM      5  C   UNL d   1      32.215  15.944 -23.060  0.00  0.00     0.045 A 
ATOM      6  C   UNL d   1      32.273  15.687 -24.675  0.00  0.00    -0.007 A 
ATOM      7  C   UNL d   1      32.703  15.660 -24.283  0.00  0.00    -0.007 A 
ATOM      8  C   UNL d   1      33.091  15.458 -25.095  0.00  0.00    -0.001 A 
ATOM      9  C   UNL d   1      32.882  15.737 -23.537  0.00  0.00    -0.022 A 
ATOM     10  C   UNL d   1      32.572  15.778 -23.675  0.00  0.00    -0.022 A 
ENDROOT
BRANCH   1  11
ATOM     11  C   UNL d   1      30.152  16.192 -24.178  0.00  0.00     0.248 C 
ATOM     12  N   UNL d   1      29.371  15.840 -23.585  0.00  0.00    -0.275 N 
ATOM     13  C   UNL d   1      29.065  15.463 -22.972  0.00  0.00     0.083 A 
ATOM     14  C   UNL d   1      28.782  16.120 -24.004  0.00  0.00     0.083 A 
ATOM     15  C   UNL d   1      28.280  15.517 -23.023  0.00  0.00     0.021 A 
ATOM     16  C   UNL d   1      28.105  15.921 -23.659  0.00  0.00     0.021 A 
ATOM     17  O   UNL d   1      30.035  16.640 -24.886  0.00  0.00    -0.271 OA
ENDBRANCH   1  11
TORSDOF 1
ENDMDL
