MODEL 1
REMARK VINA RESULT:      42.9      0.000      0.000
REMARK  4 active torsions:
REMARK  status: ('A' for Active; 'I' for Inactive)
REMARK    1  A    between atoms: C_10  and  C_3 
REMARK    2  A    between atoms: S_8  and  C_4 
REMARK       I    between atoms: N_6  and  C_7 
REMARK    3  A    between atoms: C_7  and  C_9 
REMARK    4  A    between atoms: C_9  and  S_8 
ROOT
ATOM      1  O   UNL d   1      58.920  49.638  50.302  0.00  0.00    -0.263 OA
ATOM      2  N   UNL d   1      58.253  49.705  51.454  0.00  0.00    -0.120 NA
ATOM      3  C   UNL d   1      58.168  49.669  50.641  0.00  0.00     0.205 A 
ATOM      4  C   UNL d   1      59.473  49.655  50.912  0.00  0.00     0.236 A 
ATOM      5  N   UNL d   1      59.064  49.697  51.624  0.00  0.00    -0.114 NA
ENDROOT
BRANCH   4   6
ATOM      6  S   UNL d   1      60.300  49.634  50.824  0.00  0.00    -0.036 SA
BRANCH   6   7
ATOM      7  C   UNL d   1      60.713  48.937  50.981  0.00  0.00     0.100 C 
BRANCH   7   8
ATOM      8  C   UNL d   1      61.170  48.574  50.397  0.00  0.00     0.272 C 
ATOM      9  N   UNL d   1      61.240  47.756  50.373  0.00  0.00    -0.272 N 
ATOM     10  C   UNL d   1      60.853  47.285  50.933  0.00  0.00     0.083 A 
ATOM     11  C   UNL d   1      61.704  47.403  49.778  0.00  0.00     0.083 A 
ATOM     12  C   UNL d   1      60.931  46.462  50.898  0.00  0.00     0.019 A 
ATOM     13  C   UNL d   1      61.388  46.115  50.314  0.00  0.00     0.003 A 
ATOM     14  C   UNL d   1      61.773  46.576  49.757  0.00  0.00     0.019 A 
ATOM     15  O   UNL d   1      61.557  49.044  49.837  0.00  0.00    -0.266 OA
ENDBRANCH   7   8
ENDBRANCH   6   7
ENDBRANCH   4   6
BRANCH   3  16
ATOM     16  C   UNL d   1      57.476  49.662  50.204  0.00  0.00     0.043 A 
ATOM     17  C   UNL d   1      57.515  49.629  49.380  0.00  0.00     0.004 A 
ATOM     18  C   UNL d   1      56.822  49.622  48.934  0.00  0.00     0.000 A 
ATOM     19  C   UNL d   1      56.090  49.648  49.324  0.00  0.00     0.000 A 
ATOM     20  C   UNL d   1      56.050  49.682  50.148  0.00  0.00     0.000 A 
ATOM     21  C   UNL d   1      56.751  49.688  50.578  0.00  0.00     0.004 A 
ENDBRANCH   3  16
TORSDOF 4
ENDMDL
MODEL 2
REMARK VINA RESULT:      44.0      0.901      4.511
REMARK  4 active torsions:
REMARK  status: ('A' for Active; 'I' for Inactive)
REMARK    1  A    between atoms: C_10  and  C_3 
REMARK    2  A    between atoms: S_8  and  C_4 
REMARK       I    between atoms: N_6  and  C_7 
REMARK    3  A    between atoms: C_7  and  C_9 
REMARK    4  A    between atoms: C_9  and  S_8 
ROOT
ATOM      1  O   UNL d   1      60.084  48.337  50.868  0.00  0.00    -0.263 OA
ATOM      2  N   UNL d   1      61.361  48.715  50.800  0.00  0.00    -0.120 NA
ATOM      3  C   UNL d   1      60.854  48.077  50.720  0.00  0.00     0.205 A 
ATOM      4  C   UNL d   1      60.118  49.141  51.041  0.00  0.00     0.236 A 
ATOM      5  N   UNL d   1      60.904  49.377  51.000  0.00  0.00    -0.114 NA
ENDROOT
BRANCH   4   6
ATOM      6  S   UNL d   1      59.470  49.630  51.225  0.00  0.00    -0.036 SA
BRANCH   6   7
ATOM      7  C   UNL d   1      58.847  49.707  50.688  0.00  0.00     0.100 C 
BRANCH   7   8
ATOM      8  C   UNL d   1      58.063  49.707  50.945  0.00  0.00     0.272 C 
ATOM      9  N   UNL d   1      57.447  49.707  50.401  0.00  0.00    -0.272 N 
ATOM     10  C   UNL d   1      57.605  49.707  49.589  0.00  0.00     0.083 A 
ATOM     11  C   UNL d   1      56.661  49.706  50.675  0.00  0.00     0.083 A 
ATOM     12  C   UNL d   1      56.977  49.707  49.051  0.00  0.00     0.019 A 
ATOM     13  C   UNL d   1      56.204  49.706  49.319  0.00  0.00     0.003 A 
ATOM     14  C   UNL d   1      56.041  49.706  50.122  0.00  0.00     0.019 A 
ATOM     15  O   UNL d   1      57.905  49.706  51.757  0.00  0.00    -0.266 OA
ENDBRANCH   7   8
ENDBRANCH   6   7
ENDBRANCH   4   6
BRANCH   3  16
ATOM     16  C   UNL d   1      61.039  47.304  50.527  0.00  0.00     0.043 A 
ATOM     17  C   UNL d   1      61.613  47.154  49.954  0.00  0.00     0.004 A 
ATOM     18  C   UNL d   1      61.804  46.377  49.755  0.00  0.00     0.000 A 
ATOM     19  C   UNL d   1      61.414  45.753  50.139  0.00  0.00     0.000 A 
ATOM     20  C   UNL d   1      60.841  45.903  50.714  0.00  0.00     0.000 A 
ATOM     21  C   UNL d   1      60.661  46.683  50.900  0.00  0.00     0.004 A 
ENDBRANCH   3  16
TORSDOF 4
ENDMDL
