MODEL 1
REMARK VINA RESULT:      34.4      0.000      0.000
REMARK  6 active torsions:
REMARK  status: ('A' for Active; 'I' for Inactive)
REMARK    1  A    between atoms: C_10  and  C_3 
REMARK    2  A    between atoms: N_12  and  C_4 
REMARK    3  A    between atoms: N_11  and  C_20 
REMARK    4  A    between atoms: C_25  and  N_12 
REMARK    5  A    between atoms: C_20  and  C_21 
REMARK    6  A    between atoms: C_21  and  C_25 
ROOT
ATOM      1  C   UNL d   1      46.266 -17.209  43.201  0.00  0.00     0.168 A 
ATOM      2  N   UNL d   1      46.215 -16.433  43.543  0.00  0.00    -0.184 N 
ATOM      3  C   UNL d   1      46.447 -17.294  42.416  0.00  0.00     0.057 A 
ATOM      4  C   UNL d   1      46.034 -16.364  44.326  0.00  0.00     0.218 A 
ATOM      5  N   UNL d   1      46.533 -15.868  42.278  0.00  0.00    -0.160 NA
ATOM      6  N   UNL d   1      46.133 -17.865  43.664  0.00  0.00    -0.227 NA
ATOM      7  C   UNL d   1      45.898 -17.022  44.802  0.00  0.00     0.071 A 
ATOM      8  C   UNL d   1      46.583 -16.621  41.946  0.00  0.00     0.124 A 
ATOM      9  C   UNL d   1      45.948 -17.787  44.465  0.00  0.00     0.087 A 
ATOM     10  C   UNL d   1      45.807 -18.479  44.954  0.00  0.00     0.021 C 
ENDROOT
BRANCH   4  11
ATOM     11  N   UNL d   1      45.982 -15.581  44.675  0.00  0.00    -0.380 NA
BRANCH  11  12
ATOM     12  C   UNL d   1      45.831 -14.783  44.955  0.00  0.00     0.164 C 
BRANCH  12  13
ATOM     13  C   UNL d   1      45.938 -14.114  44.438  0.00  0.00     0.054 C 
BRANCH  13  14
ATOM     14  C   UNL d   1      45.403 -13.444  44.472  0.00  0.00     0.083 C 
BRANCH  14  15
ATOM     15  N   UNL d   1      45.197 -13.028  43.741  0.00  0.00    -0.299 N 
ATOM     16  C   UNL d   1      45.808 -12.589  43.310  0.00  0.00     0.107 A 
ATOM     17  C   UNL d   1      45.600 -12.179  42.586  0.00  0.00     0.142 A 
ATOM     18  O   UNL d   1      44.797 -12.201  42.289  0.00  0.00    -0.300 OA
ATOM     19  C   UNL d   1      44.191 -12.637  42.719  0.00  0.00     0.142 A 
ATOM     20  C   UNL d   1      44.391 -13.055  43.450  0.00  0.00     0.107 A 
ENDBRANCH  14  15
ENDBRANCH  13  14
ENDBRANCH  12  13
ENDBRANCH  11  12
ENDBRANCH   4  11
BRANCH   3  21
ATOM     21  C   UNL d   1      46.497 -18.048  42.084  0.00  0.00     0.005 A 
ATOM     22  C   UNL d   1      46.479 -18.704  42.565  0.00  0.00     0.001 A 
ATOM     23  C   UNL d   1      46.528 -19.445  42.238  0.00  0.00     0.011 A 
ATOM     24  C   UNL d   1      46.595 -19.542  41.426  0.00  0.00     0.058 A 
ATOM     25  C   UNL d   1      46.613 -18.884  40.945  0.00  0.00     0.011 A 
ATOM     26 CL   UNL d   1      46.647 -20.330  41.079  0.00  0.00    -0.082 Cl
ATOM     27  C   UNL d   1      46.563 -18.131  41.276  0.00  0.00     0.001 A 
ENDBRANCH   3  21
TORSDOF 6
ENDMDL
