MODEL 1
REMARK VINA RESULT:       0.7      0.000      0.000
REMARK  9 active torsions:
REMARK  status: ('A' for Active; 'I' for Inactive)
REMARK    1  A    between atoms: C_6  and  N_1 
REMARK    2  A    between atoms: S_11  and  C_2 
REMARK    3  A    between atoms: C_14  and  C_3 
REMARK       I    between atoms: C_7  and  N_12 
REMARK    4  A    between atoms: C_8  and  C_7 
REMARK    5  A    between atoms: C_9  and  N_10 
REMARK       I    between atoms: N_10  and  C_13 
REMARK    6  A    between atoms: C_24  and  S_11 
REMARK    7  A    between atoms: N_12  and  C_14 
REMARK    8  A    between atoms: C_13  and  C_24 
REMARK    9  A    between atoms: O_28  and  C_19 
ROOT
ATOM      1  N   UNL d   1      58.669  -0.187  30.229  0.00  0.00    -0.266 N 
ATOM      2  C   UNL d   1      57.906   0.054  30.442  0.00  0.00     0.201 A 
ATOM      3  C   UNL d   1      58.603  -0.753  29.624  0.00  0.00     0.190 A 
ATOM      4  N   UNL d   1      57.360  -0.364  29.966  0.00  0.00    -0.121 NA
ATOM      5  N   UNL d   1      57.790  -0.862  29.463  0.00  0.00    -0.126 NA
ENDROOT
BRANCH   2   6
ATOM      6  S   UNL d   1      57.715   0.604  31.015  0.00  0.00    -0.043 SA
BRANCH   6   7
ATOM      7  C   UNL d   1      56.960   0.616  31.356  0.00  0.00     0.101 C 
BRANCH   7   8
ATOM      8  C   UNL d   1      56.850   0.376  32.128  0.00  0.00     0.286 C 
ATOM      9  N   UNL d   1      56.091   0.322  32.441  0.00  0.00    -0.208 NA
ATOM     10  O   UNL d   1      57.504   0.185  32.601  0.00  0.00    -0.265 OA
BRANCH   9  11
ATOM     11  C   UNL d   1      55.980   0.079  33.222  0.00  0.00     0.085 A 
ATOM     12  C   UNL d   1      55.512  -0.568  33.394  0.00  0.00     0.018 A 
ATOM     13  C   UNL d   1      55.401  -0.811  34.176  0.00  0.00     0.002 A 
ATOM     14  C   UNL d   1      55.146  -0.986  32.787  0.00  0.00     0.002 C 
ATOM     15  C   UNL d   1      55.769  -0.391  34.785  0.00  0.00     0.000 A 
ATOM     16  C   UNL d   1      56.249   0.272  34.613  0.00  0.00     0.002 A 
ATOM     17  C   UNL d   1      56.347   0.499  33.826  0.00  0.00     0.019 A 
ATOM     18  C   UNL d   1      56.607   0.680  35.211  0.00  0.00     0.000 C 
ENDBRANCH   9  11
ENDBRANCH   7   8
ENDBRANCH   6   7
ENDBRANCH   2   6
BRANCH   1  19
ATOM     19  C   UNL d   1      59.365   0.084  30.555  0.00  0.00     0.090 A 
ATOM     20  C   UNL d   1      59.945   0.404  30.063  0.00  0.00     0.110 A 
ATOM     21  C   UNL d   1      60.649   0.678  30.388  0.00  0.00     0.026 A 
ATOM     22  C   UNL d   1      60.775   0.632  31.208  0.00  0.00     0.002 A 
ATOM     23  C   UNL d   1      60.182   0.307  31.693  0.00  0.00     0.002 A 
ATOM     24  C   UNL d   1      59.479   0.034  31.364  0.00  0.00     0.020 A 
BRANCH  20  25
ATOM     25  O   UNL d   1      59.828   0.452  29.253  0.00  0.00    -0.327 OA
ATOM     26  C   UNL d   1      60.438   0.681  28.754  0.00  0.00     0.181 C 
ENDBRANCH  20  25
ENDBRANCH   1  19
BRANCH   3  27
ATOM     27  C   UNL d   1      59.227  -1.141  29.248  0.00  0.00     0.141 C 
BRANCH  27  28
ATOM     28  N   UNL d   1      59.399  -1.926  29.438  0.00  0.00    -0.202 NA
ATOM     29  C   UNL d   1      60.013  -2.315  29.041  0.00  0.00     0.302 C 
ATOM     30  O   UNL d   1      60.446  -1.914  28.460  0.00  0.00    -0.263 OA
BRANCH  29  31
ATOM     31  C   UNL d   1      60.197  -3.103  29.222  0.00  0.00     0.158 A 
ATOM     32  O   UNL d   1      59.773  -3.756  28.966  0.00  0.00    -0.300 OA
ATOM     33  C   UNL d   1      60.138  -4.431  29.267  0.00  0.00     0.123 A 
ATOM     34  C   UNL d   1      60.793  -4.179  29.713  0.00  0.00     0.029 A 
ATOM     35  C   UNL d   1      60.826  -3.357  29.683  0.00  0.00     0.032 A 
ENDBRANCH  29  31
ENDBRANCH  27  28
ENDBRANCH   3  27
TORSDOF 9
ENDMDL
MODEL 2
REMARK VINA RESULT:       1.0      1.171      2.124
REMARK  9 active torsions:
REMARK  status: ('A' for Active; 'I' for Inactive)
REMARK    1  A    between atoms: C_6  and  N_1 
REMARK    2  A    between atoms: S_11  and  C_2 
REMARK    3  A    between atoms: C_14  and  C_3 
REMARK       I    between atoms: C_7  and  N_12 
REMARK    4  A    between atoms: C_8  and  C_7 
REMARK    5  A    between atoms: C_9  and  N_10 
REMARK       I    between atoms: N_10  and  C_13 
REMARK    6  A    between atoms: C_24  and  S_11 
REMARK    7  A    between atoms: N_12  and  C_14 
REMARK    8  A    between atoms: C_13  and  C_24 
REMARK    9  A    between atoms: O_28  and  C_19 
ROOT
ATOM      1  N   UNL d   1      59.100   0.023  30.655  0.00  0.00    -0.266 N 
ATOM      2  C   UNL d   1      59.001   0.285  31.434  0.00  0.00     0.201 A 
ATOM      3  C   UNL d   1      59.865  -0.295  30.584  0.00  0.00     0.190 A 
ATOM      4  N   UNL d   1      59.708   0.129  31.851  0.00  0.00    -0.121 NA
ATOM      5  N   UNL d   1      60.240  -0.228  31.327  0.00  0.00    -0.126 NA
ENDROOT
BRANCH   2   6
ATOM      6  S   UNL d   1      58.331   0.635  31.745  0.00  0.00    -0.043 SA
BRANCH   6   7
ATOM      7  C   UNL d   1      58.212   0.669  32.564  0.00  0.00     0.101 C 
BRANCH   7   8
ATOM      8  C   UNL d   1      57.460   0.625  32.877  0.00  0.00     0.286 C 
ATOM      9  N   UNL d   1      57.353   0.558  33.690  0.00  0.00    -0.208 NA
ATOM     10  O   UNL d   1      56.799   0.646  32.376  0.00  0.00    -0.265 OA
BRANCH   9  11
ATOM     11  C   UNL d   1      56.591   0.514  34.006  0.00  0.00     0.085 A 
ATOM     12  C   UNL d   1      56.472   0.569  34.812  0.00  0.00     0.018 A 
ATOM     13  C   UNL d   1      55.710   0.524  35.129  0.00  0.00     0.002 A 
ATOM     14  C   UNL d   1      57.113   0.670  35.319  0.00  0.00     0.002 C 
ATOM     15  C   UNL d   1      55.067   0.422  34.619  0.00  0.00     0.000 A 
ATOM     16  C   UNL d   1      55.185   0.366  33.793  0.00  0.00     0.002 A 
ATOM     17  C   UNL d   1      55.954   0.413  33.497  0.00  0.00     0.019 A 
ATOM     18  C   UNL d   1      54.555   0.267  33.299  0.00  0.00     0.000 C 
ENDBRANCH   9  11
ENDBRANCH   7   8
ENDBRANCH   6   7
ENDBRANCH   2   6
BRANCH   1  19
ATOM     19  C   UNL d   1      58.544   0.068  30.060  0.00  0.00     0.090 A 
ATOM     20  C   UNL d   1      57.880  -0.421  30.089  0.00  0.00     0.110 A 
ATOM     21  C   UNL d   1      57.317  -0.378  29.490  0.00  0.00     0.026 A 
ATOM     22  C   UNL d   1      57.418   0.154  28.861  0.00  0.00     0.002 A 
ATOM     23  C   UNL d   1      58.093   0.642  28.844  0.00  0.00     0.002 A 
ATOM     24  C   UNL d   1      58.653   0.596  29.445  0.00  0.00     0.020 A 
BRANCH  20  25
ATOM     25  O   UNL d   1      57.774  -0.950  30.707  0.00  0.00    -0.327 OA
ATOM     26  C   UNL d   1      57.091  -1.402  30.759  0.00  0.00     0.181 C 
ENDBRANCH  20  25
ENDBRANCH   1  19
BRANCH   3  27
ATOM     27  C   UNL d   1      60.197  -0.621  29.901  0.00  0.00     0.141 C 
BRANCH  27  28
ATOM     28  N   UNL d   1      60.423  -1.414  29.891  0.00  0.00    -0.202 NA
ATOM     29  C   UNL d   1      60.464  -1.817  29.167  0.00  0.00     0.302 C 
ATOM     30  O   UNL d   1      60.277  -1.419  28.466  0.00  0.00    -0.263 OA
BRANCH  29  31
ATOM     31  C   UNL d   1      60.689  -2.613  29.143  0.00  0.00     0.158 A 
ATOM     32  O   UNL d   1      60.911  -3.060  29.793  0.00  0.00    -0.300 OA
ATOM     33  C   UNL d   1      61.092  -3.821  29.530  0.00  0.00     0.123 A 
ATOM     34  C   UNL d   1      60.977  -3.831  28.707  0.00  0.00     0.029 A 
ATOM     35  C   UNL d   1      60.727  -3.082  28.471  0.00  0.00     0.032 A 
ENDBRANCH  29  31
ENDBRANCH  27  28
ENDBRANCH   3  27
TORSDOF 9
ENDMDL
