MODEL 1
REMARK VINA RESULT:      -4.2      0.000      0.000
REMARK  3 active torsions:
REMARK  status: ('A' for Active; 'I' for Inactive)
REMARK    1  A    between atoms: C_11  and  C_6 
REMARK       I    between atoms: N_15  and  C_11 
REMARK    2  A    between atoms: C_23  and  N_15 
REMARK    3  A    between atoms: C_22  and  C_23 
ROOT
ATOM      1  C   UNL d   1      59.476  -1.387  29.487  0.00  0.00     0.155 A 
ATOM      2  C   UNL d   1      58.703  -1.646  29.626  0.00  0.00     0.091 A 
ATOM      3  N   UNL d   1      60.027  -1.904  29.159  0.00  0.00    -0.210 NA
ATOM      4  N   UNL d   1      59.040  -2.931  29.109  0.00  0.00    -0.258 N 
ATOM      5  N   UNL d   1      59.689  -0.617  29.677  0.00  0.00    -0.272 N 
ATOM      6  C   UNL d   1      58.364  -0.352  30.147  0.00  0.00     0.094 A 
ATOM      7  C   UNL d   1      59.811  -2.665  28.973  0.00  0.00     0.152 A 
ATOM      8  C   UNL d   1      58.484  -2.421  29.436  0.00  0.00     0.269 A 
ATOM      9  C   UNL d   1      59.129  -0.095  30.009  0.00  0.00     0.175 A 
ATOM     10  C   UNL d   1      58.146  -1.134  29.954  0.00  0.00     0.016 A 
ATOM     11  C   UNL d   1      60.363  -3.186  28.643  0.00  0.00     0.035 A 
ATOM     12  C   UNL d   1      58.820  -3.703  28.921  0.00  0.00     0.084 A 
ATOM     13  N   UNL d   1      59.348   0.682  30.199  0.00  0.00    -0.128 N 
ATOM     14  O   UNL d   1      57.716  -2.678  29.574  0.00  0.00    -0.266 OA
ATOM     15  C   UNL d   1      59.376  -4.210  28.594  0.00  0.00     0.019 A 
ATOM     16  C   UNL d   1      60.149  -3.951  28.455  0.00  0.00     0.005 A 
ATOM     17  C   UNL d   1      60.459  -0.359  29.538  0.00  0.00     0.102 C 
ATOM     18  C   UNL d   1      61.133  -2.928  28.504  0.00  0.00     0.003 C 
ENDROOT
BRANCH   6  19
ATOM     19  C   UNL d   1      57.805   0.165  30.477  0.00  0.00     0.282 C 
ATOM     20  N   UNL d   1      57.684   0.168  31.293  0.00  0.00    -0.206 NA
ATOM     21  O   UNL d   1      57.375   0.671  29.993  0.00  0.00    -0.265 OA
BRANCH  20  22
ATOM     22  C   UNL d   1      57.129   0.682  31.617  0.00  0.00     0.104 C 
BRANCH  22  23
ATOM     23  C   UNL d   1      56.819   0.525  32.367  0.00  0.00     0.038 A 
ATOM     24  C   UNL d   1      57.295   0.629  33.033  0.00  0.00     0.101 A 
ATOM     25  N   UNL d   1      56.990   0.474  33.783  0.00  0.00    -0.242 NA
ATOM     26  C   UNL d   1      56.211   0.216  33.865  0.00  0.00     0.099 A 
ATOM     27  C   UNL d   1      55.736   0.112  33.196  0.00  0.00     0.021 A 
ATOM     28  C   UNL d   1      56.046   0.269  32.448  0.00  0.00     0.005 A 
ENDBRANCH  22  23
ENDBRANCH  20  22
ENDBRANCH   6  19
TORSDOF 3
ENDMDL
MODEL 2
REMARK VINA RESULT:      -2.5      8.227      8.743
REMARK  3 active torsions:
REMARK  status: ('A' for Active; 'I' for Inactive)
REMARK    1  A    between atoms: C_11  and  C_6 
REMARK       I    between atoms: N_15  and  C_11 
REMARK    2  A    between atoms: C_23  and  N_15 
REMARK    3  A    between atoms: C_22  and  C_23 
ROOT
ATOM      1  C   UNL d   1      59.195  -9.545  31.285  0.00  0.00     0.155 A 
ATOM      2  C   UNL d   1      58.686  -9.580  31.936  0.00  0.00     0.091 A 
ATOM      3  N   UNL d   1      58.885  -9.587  30.523  0.00  0.00    -0.210 NA
ATOM      4  N   UNL d   1      57.570  -9.698  31.059  0.00  0.00    -0.258 N 
ATOM      5  N   UNL d   1      60.004  -9.468  31.403  0.00  0.00    -0.272 N 
ATOM      6  C   UNL d   1      59.812  -9.462  32.821  0.00  0.00     0.094 A 
ATOM      7  C   UNL d   1      58.084  -9.662  30.413  0.00  0.00     0.152 A 
ATOM      8  C   UNL d   1      57.871  -9.657  31.824  0.00  0.00     0.269 A 
ATOM      9  C   UNL d   1      60.315  -9.427  32.175  0.00  0.00     0.175 A 
ATOM     10  C   UNL d   1      58.990  -9.539  32.703  0.00  0.00     0.016 A 
ATOM     11  C   UNL d   1      57.771  -9.704  29.648  0.00  0.00     0.035 A 
ATOM     12  C   UNL d   1      56.756  -9.775  30.948  0.00  0.00     0.084 A 
ATOM     13  N   UNL d   1      61.133  -9.349  32.290  0.00  0.00    -0.128 N 
ATOM     14  O   UNL d   1      57.366  -9.692  32.471  0.00  0.00    -0.266 OA
ATOM     15  C   UNL d   1      56.458  -9.815  30.185  0.00  0.00     0.019 A 
ATOM     16  C   UNL d   1      56.966  -9.780  29.534  0.00  0.00     0.005 A 
ATOM     17  C   UNL d   1      60.510  -9.433  30.753  0.00  0.00     0.102 C 
ATOM     18  C   UNL d   1      58.277  -9.669  28.999  0.00  0.00     0.003 C 
ENDROOT
BRANCH   6  19
ATOM     19  C   UNL d   1      60.119  -9.420  33.590  0.00  0.00     0.282 C 
ATOM     20  N   UNL d   1      59.717  -8.988  34.167  0.00  0.00    -0.206 NA
ATOM     21  O   UNL d   1      60.819  -9.807  33.776  0.00  0.00    -0.265 OA
BRANCH  20  22
ATOM     22  C   UNL d   1      60.024  -8.949  34.929  0.00  0.00     0.104 C 
BRANCH  22  23
ATOM     23  C   UNL d   1      59.917  -8.262  35.376  0.00  0.00     0.038 A 
ATOM     24  C   UNL d   1      60.469  -7.652  35.322  0.00  0.00     0.101 A 
ATOM     25  N   UNL d   1      60.366  -6.965  35.767  0.00  0.00    -0.242 NA
ATOM     26  C   UNL d   1      59.711  -6.891  36.262  0.00  0.00     0.099 A 
ATOM     27  C   UNL d   1      59.158  -7.503  36.315  0.00  0.00     0.021 A 
ATOM     28  C   UNL d   1      59.267  -8.188  35.869  0.00  0.00     0.005 A 
ENDBRANCH  22  23
ENDBRANCH  20  22
ENDBRANCH   6  19
TORSDOF 3
ENDMDL
