MODEL 1
REMARK VINA RESULT:      15.0      0.000      0.000
REMARK  3 active torsions:
REMARK  status: ('A' for Active; 'I' for Inactive)
REMARK       I    between atoms: C_2  and  N_1 
REMARK    1  A    between atoms: C_5  and  C_2 
REMARK    2  A    between atoms: S_8  and  C_3 
REMARK    3  A    between atoms: O_13  and  C_11 
ROOT
ATOM      1  N   UNL d   1     -52.046  24.514  33.351  0.00  0.00    -0.251 N 
ATOM      2  C   UNL d   1     -52.269  25.303  33.360  0.00  0.00     0.266 C 
ATOM      3  C   UNL d   1     -52.553  23.863  33.358  0.00  0.00     0.178 A 
ATOM      4  N   UNL d   1     -52.091  23.189  33.346  0.00  0.00    -0.219 NA
ATOM      5  O   UNL d   1     -53.067  25.509  33.377  0.00  0.00    -0.267 OA
ATOM      6  C   UNL d   1     -51.267  24.233  33.334  0.00  0.00     0.106 A 
ATOM      7  C   UNL d   1     -51.301  23.409  33.331  0.00  0.00     0.120 A 
ENDROOT
BRANCH   2   8
ATOM      8  C   UNL d   1     -51.694  25.895  33.351  0.00  0.00     0.059 A 
ATOM      9  C   UNL d   1     -50.897  25.686  33.343  0.00  0.00     0.029 A 
ATOM     10  C   UNL d   1     -50.338  26.274  33.335  0.00  0.00     0.094 A 
ATOM     11  C   UNL d   1     -50.564  27.075  33.334  0.00  0.00     0.024 A 
ATOM     12  C   UNL d   1     -51.343  27.278  33.341  0.00  0.00     0.002 A 
ATOM     13  C   UNL d   1     -51.922  26.684  33.350  0.00  0.00     0.005 A 
BRANCH  10  14
ATOM     14  O   UNL d   1     -49.538  26.073  33.327  0.00  0.00    -0.328 OA
ATOM     15  C   UNL d   1     -48.963  26.644  33.466  0.00  0.00     0.181 C 
ENDBRANCH  10  14
ENDBRANCH   2   8
BRANCH   3  16
ATOM     16  S   UNL d   1     -53.370  23.899  33.375  0.00  0.00    -0.076 SA
ATOM     17  C   UNL d   1     -53.820  23.207  33.378  0.00  0.00     0.077 C 
ENDBRANCH   3  16
TORSDOF 3
ENDMDL
MODEL 2
REMARK VINA RESULT:      15.5      1.614      3.609
REMARK  3 active torsions:
REMARK  status: ('A' for Active; 'I' for Inactive)
REMARK       I    between atoms: C_2  and  N_1 
REMARK    1  A    between atoms: C_5  and  C_2 
REMARK    2  A    between atoms: S_8  and  C_3 
REMARK    3  A    between atoms: O_13  and  C_11 
ROOT
ATOM      1  N   UNL d   1     -51.162  26.125  33.347  0.00  0.00    -0.251 N 
ATOM      2  C   UNL d   1     -50.652  25.484  33.365  0.00  0.00     0.266 C 
ATOM      3  C   UNL d   1     -50.946  26.921  33.355  0.00  0.00     0.178 A 
ATOM      4  N   UNL d   1     -51.631  27.365  33.330  0.00  0.00    -0.219 NA
ATOM      5  O   UNL d   1     -49.837  25.601  33.394  0.00  0.00    -0.267 OA
ATOM      6  C   UNL d   1     -51.988  26.083  33.318  0.00  0.00     0.106 A 
ATOM      7  C   UNL d   1     -52.275  26.857  33.308  0.00  0.00     0.120 A 
ENDROOT
BRANCH   2   8
ATOM      8  C   UNL d   1     -50.954  24.715  33.355  0.00  0.00     0.059 A 
ATOM      9  C   UNL d   1     -51.770  24.600  33.383  0.00  0.00     0.029 A 
ATOM     10  C   UNL d   1     -52.059  23.842  33.372  0.00  0.00     0.094 A 
ATOM     11  C   UNL d   1     -51.541  23.190  33.334  0.00  0.00     0.024 A 
ATOM     12  C   UNL d   1     -50.746  23.304  33.307  0.00  0.00     0.002 A 
ATOM     13  C   UNL d   1     -50.440  24.076  33.317  0.00  0.00     0.005 A 
BRANCH  10  14
ATOM     14  O   UNL d   1     -52.873  23.717  33.399  0.00  0.00    -0.328 OA
ATOM     15  C   UNL d   1     -53.214  23.318  34.032  0.00  0.00     0.181 C 
ENDBRANCH  10  14
ENDBRANCH   2   8
BRANCH   3  16
ATOM     16  S   UNL d   1     -50.179  27.203  33.382  0.00  0.00    -0.076 SA
ATOM     17  C   UNL d   1     -50.032  28.010  33.472  0.00  0.00     0.077 C 
ENDBRANCH   3  16
TORSDOF 3
ENDMDL
