MODEL 1
REMARK VINA RESULT:      38.6      0.000      0.000
REMARK  3 active torsions:
REMARK  status: ('A' for Active; 'I' for Inactive)
REMARK    1  A    between atoms: C_7  and  N_1 
REMARK    2  A    between atoms: C_6  and  C_2 
REMARK    3  A    between atoms: O_19  and  C_9 
ROOT
ATOM      1  N   UNL d   1     -51.762  25.756  33.320  0.00  0.00    -0.259 N 
ATOM      2  C   UNL d   1     -51.178  25.167  33.323  0.00  0.00     0.137 A 
ATOM      3  C   UNL d   1     -52.494  25.407  33.315  0.00  0.00     0.282 A 
ATOM      4  N   UNL d   1     -51.575  24.431  33.320  0.00  0.00    -0.287 N 
ATOM      5  C   UNL d   1     -52.397  24.583  33.315  0.00  0.00     0.122 A 
ATOM      6  O   UNL d   1     -53.231  25.792  33.311  0.00  0.00    -0.265 OA
ATOM      7  C   UNL d   1     -51.471  23.613  33.319  0.00  0.00     0.082 A 
ATOM      8  C   UNL d   1     -52.780  23.850  33.312  0.00  0.00     0.024 A 
ATOM      9  C   UNL d   1     -52.218  23.253  33.315  0.00  0.00     0.021 A 
ENDROOT
BRANCH   2  10
ATOM     10  C   UNL d   1     -50.360  25.271  33.328  0.00  0.00     0.056 A 
ATOM     11  C   UNL d   1     -49.862  24.627  33.341  0.00  0.00     0.097 A 
ATOM     12  C   UNL d   1     -49.046  24.723  33.346  0.00  0.00     0.024 A 
ATOM     13  C   UNL d   1     -48.732  25.488  33.338  0.00  0.00     0.002 A 
ATOM     14  C   UNL d   1     -49.230  26.132  33.324  0.00  0.00     0.000 A 
ATOM     15  C   UNL d   1     -50.056  26.031  33.319  0.00  0.00     0.005 A 
BRANCH  11  16
ATOM     16  O   UNL d   1     -50.185  23.861  33.350  0.00  0.00    -0.328 OA
ATOM     17  C   UNL d   1     -49.705  23.204  33.568  0.00  0.00     0.181 C 
ENDBRANCH  11  16
ENDBRANCH   2  10
BRANCH   1  18
ATOM     18  C   UNL d   1     -51.612  26.565  33.321  0.00  0.00     0.068 A 
ATOM     19  C   UNL d   1     -52.238  27.094  33.336  0.00  0.00     0.018 A 
ATOM     20  C   UNL d   1     -52.094  27.907  33.338  0.00  0.00     0.013 A 
ATOM     21  C   UNL d   1     -51.313  28.185  33.325  0.00  0.00     0.058 A 
ATOM     22  C   UNL d   1     -50.683  27.654  33.310  0.00  0.00     0.013 A 
ATOM     23 CL   UNL d   1     -51.171  28.998  33.327  0.00  0.00    -0.082 Cl
ATOM     24  C   UNL d   1     -50.831  26.843  33.308  0.00  0.00     0.018 A 
ENDBRANCH   1  18
TORSDOF 3
ENDMDL
