MODEL 1
REMARK VINA RESULT:      -2.4      0.000      0.000
REMARK  1 active torsions:
REMARK  status: ('A' for Active; 'I' for Inactive)
REMARK    1  A    between atoms: C_2  and  C_1 
ROOT
ATOM      1  C   UNL d   1      23.457  12.841  -0.832  0.00  0.00     0.104 A 
ATOM      2  C   UNL d   1      24.093  13.370  -0.692  0.00  0.00     0.202 A 
ATOM      3  C   UNL d   1      23.491  12.332  -1.514  0.00  0.00     0.021 A 
ATOM      4  C   UNL d   1      24.731  13.383  -1.214  0.00  0.00     0.043 A 
ATOM      5  C   UNL d   1      24.147  12.377  -2.011  0.00  0.00     0.058 A 
ATOM      6  C   UNL d   1      24.768  12.899  -1.868  0.00  0.00     0.015 A 
ATOM      7  O   UNL d   1      24.068  13.878  -0.018  0.00  0.00    -0.286 OA
ATOM      8 CL   UNL d   1      24.172  11.869  -2.684  0.00  0.00    -0.082 Cl
ENDROOT
BRANCH   1   9
ATOM      9  C   UNL d   1      22.811  12.816  -0.318  0.00  0.00     0.214 C 
ATOM     10  O   UNL d   1      22.520  12.094  -0.017  0.00  0.00    -0.644 OA
ATOM     11  O   UNL d   1      22.415  13.518  -0.073  0.00  0.00    -0.644 OA
ENDBRANCH   1   9
TORSDOF 1
ENDMDL
