MODEL 1
REMARK VINA RESULT:      35.8      0.000      0.000
REMARK  5 active torsions:
REMARK  status: ('A' for Active; 'I' for Inactive)
REMARK    1  A    between atoms: C_11  and  C_1 
REMARK    2  A    between atoms: C_12  and  N_3 
REMARK    3  A    between atoms: C_7  and  S_13 
REMARK    4  A    between atoms: C_14  and  C_11 
REMARK    5  A    between atoms: S_13  and  C_14 
ROOT
ATOM      1  C   UNL d   1      14.514  13.729  -1.338  0.00  0.00     0.057 A 
ATOM      2  C   UNL d   1      14.115  13.707  -2.059  0.00  0.00     0.067 A 
ATOM      3  N   UNL d   1      14.115  12.934  -2.322  0.00  0.00    -0.306 N 
ATOM      4  C   UNL d   1      14.508  12.476  -1.774  0.00  0.00     0.064 A 
ATOM      5  C   UNL d   1      14.760  12.959  -1.159  0.00  0.00     0.022 A 
ATOM      6  C   UNL d   1      13.775  14.346  -2.451  0.00  0.00     0.019 C 
ATOM      7  C   UNL d   1      14.817  11.779  -1.458  0.00  0.00     0.019 C 
ENDROOT
BRANCH   1   8
ATOM      8  C   UNL d   1      14.831  14.083  -0.652  0.00  0.00     0.204 C 
ATOM      9  O   UNL d   1      15.313  13.641  -0.137  0.00  0.00    -0.286 OA
BRANCH   8  10
ATOM     10  C   UNL d   1      14.914  14.745  -0.165  0.00  0.00     0.080 C 
BRANCH  10  11
ATOM     11  S   UNL d   1      15.600  15.202  -0.207  0.00  0.00    -0.043 SA
BRANCH  11  12
ATOM     12  C   UNL d   1      15.570  15.974  -0.503  0.00  0.00     0.233 A 
ATOM     13  N   UNL d   1      15.179  16.206  -1.186  0.00  0.00    -0.029 NA
ATOM     14  C   UNL d   1      15.292  17.014  -1.270  0.00  0.00     0.788 A 
ATOM     15  N   UNL d   1      14.998  17.484  -1.880  0.00  0.00     0.064 N 
ATOM     16  N   UNL d   1      15.750  17.271  -0.639  0.00  0.00     0.050 NA
ATOM     17  N   UNL d   1      15.927  16.625  -0.155  0.00  0.00    -0.105 NA
ENDBRANCH  11  12
ENDBRANCH  10  11
ENDBRANCH   8  10
ENDBRANCH   1   8
BRANCH   3  18
ATOM     18  C   UNL d   1      13.770  12.659  -3.031  0.00  0.00     0.064 A 
ATOM     19  C   UNL d   1      13.265  12.052  -3.000  0.00  0.00     0.020 A 
ATOM     20  C   UNL d   1      12.923  11.779  -3.709  0.00  0.00     0.031 A 
ATOM     21  C   UNL d   1      13.108  12.139  -4.429  0.00  0.00     0.140 A 
ATOM     22  C   UNL d   1      13.632  12.766  -4.439  0.00  0.00     0.031 A 
ATOM     23  F   UNL d   1      12.769  11.870  -5.132  0.00  0.00    -0.204 F 
ATOM     24  C   UNL d   1      13.968  13.032  -3.742  0.00  0.00     0.020 A 
ENDBRANCH   3  18
TORSDOF 5
ENDMDL
MODEL 2
REMARK VINA RESULT:      37.9      2.418      4.733
REMARK  5 active torsions:
REMARK  status: ('A' for Active; 'I' for Inactive)
REMARK    1  A    between atoms: C_11  and  C_1 
REMARK    2  A    between atoms: C_12  and  N_3 
REMARK    3  A    between atoms: C_7  and  S_13 
REMARK    4  A    between atoms: C_14  and  C_11 
REMARK    5  A    between atoms: S_13  and  C_14 
ROOT
ATOM      1  C   UNL d   1      14.308  13.591  -1.880  0.00  0.00     0.057 A 
ATOM      2  C   UNL d   1      14.461  14.401  -1.905  0.00  0.00     0.067 A 
ATOM      3  N   UNL d   1      14.778  14.619  -1.186  0.00  0.00    -0.306 N 
ATOM      4  C   UNL d   1      14.825  13.956  -0.714  0.00  0.00     0.064 A 
ATOM      5  C   UNL d   1      14.535  13.313  -1.134  0.00  0.00     0.022 A 
ATOM      6  C   UNL d   1      14.321  14.906  -2.540  0.00  0.00     0.019 C 
ATOM      7  C   UNL d   1      14.999  13.530  -0.029  0.00  0.00     0.019 C 
ENDROOT
BRANCH   1   8
ATOM      8  C   UNL d   1      14.048  12.854  -2.172  0.00  0.00     0.204 C 
ATOM      9  O   UNL d   1      14.574  12.209  -2.212  0.00  0.00    -0.286 OA
BRANCH   8  10
ATOM     10  C   UNL d   1      13.445  12.384  -2.484  0.00  0.00     0.080 C 
BRANCH  10  11
ATOM     11  S   UNL d   1      13.605  11.878  -3.117  0.00  0.00    -0.043 SA
BRANCH  11  12
ATOM     12  C   UNL d   1      13.383  12.089  -3.886  0.00  0.00     0.233 A 
ATOM     13  N   UNL d   1      13.712  11.789  -4.574  0.00  0.00    -0.029 NA
ATOM     14  C   UNL d   1      13.331  12.147  -5.205  0.00  0.00     0.788 A 
ATOM     15  N   UNL d   1      13.482  12.013  -6.004  0.00  0.00     0.064 N 
ATOM     16  N   UNL d   1      12.771  12.664  -4.899  0.00  0.00     0.050 NA
ATOM     17  N   UNL d   1      12.799  12.632  -4.073  0.00  0.00    -0.105 NA
ENDBRANCH  11  12
ENDBRANCH  10  11
ENDBRANCH   8  10
ENDBRANCH   1   8
BRANCH   3  18
ATOM     18  C   UNL d   1      15.016  15.390  -0.971  0.00  0.00     0.064 A 
ATOM     19  C   UNL d   1      15.345  15.504  -0.261  0.00  0.00     0.020 A 
ATOM     20  C   UNL d   1      15.581  16.274  -0.048  0.00  0.00     0.031 A 
ATOM     21  C   UNL d   1      15.472  16.905  -0.570  0.00  0.00     0.140 A 
ATOM     22  C   UNL d   1      15.130  16.766  -1.299  0.00  0.00     0.031 A 
ATOM     23  F   UNL d   1      15.706  17.668  -0.360  0.00  0.00    -0.204 F 
ATOM     24  C   UNL d   1      14.899  16.008  -1.507  0.00  0.00     0.020 A 
ENDBRANCH   3  18
TORSDOF 5
ENDMDL
MODEL 3
REMARK VINA RESULT:      38.4      2.766      3.981
REMARK  5 active torsions:
REMARK  status: ('A' for Active; 'I' for Inactive)
REMARK    1  A    between atoms: C_11  and  C_1 
REMARK    2  A    between atoms: C_12  and  N_3 
REMARK    3  A    between atoms: C_7  and  S_13 
REMARK    4  A    between atoms: C_14  and  C_11 
REMARK    5  A    between atoms: S_13  and  C_14 
ROOT
ATOM      1  C   UNL d   1      13.360  13.219  -3.656  0.00  0.00     0.057 A 
ATOM      2  C   UNL d   1      13.495  14.016  -3.818  0.00  0.00     0.067 A 
ATOM      3  N   UNL d   1      13.345  14.140  -4.610  0.00  0.00    -0.306 N 
ATOM      4  C   UNL d   1      13.120  13.430  -4.943  0.00  0.00     0.064 A 
ATOM      5  C   UNL d   1      13.126  12.852  -4.360  0.00  0.00     0.022 A 
ATOM      6  C   UNL d   1      13.737  14.590  -3.280  0.00  0.00     0.019 C 
ATOM      7  C   UNL d   1      12.878  12.927  -5.550  0.00  0.00     0.019 C 
ENDROOT
BRANCH   1   8
ATOM      8  C   UNL d   1      13.319  12.533  -3.183  0.00  0.00     0.204 C 
ATOM      9  O   UNL d   1      13.289  11.779  -3.538  0.00  0.00    -0.286 OA
BRANCH   8  10
ATOM     10  C   UNL d   1      13.289  12.183  -2.435  0.00  0.00     0.080 C 
BRANCH  10  11
ATOM     11  S   UNL d   1      13.948  11.781  -2.143  0.00  0.00    -0.043 SA
BRANCH  11  12
ATOM     12  C   UNL d   1      14.245  11.956  -1.391  0.00  0.00     0.233 A 
ATOM     13  N   UNL d   1      14.957  12.332  -1.237  0.00  0.00    -0.029 NA
ATOM     14  C   UNL d   1      15.030  12.393  -0.422  0.00  0.00     0.788 A 
ATOM     15  N   UNL d   1      15.662  12.733  -0.016  0.00  0.00     0.064 N 
ATOM     16  N   UNL d   1      14.363  12.055  -0.083  0.00  0.00     0.050 NA
ATOM     17  N   UNL d   1      13.867  11.780  -0.685  0.00  0.00    -0.105 NA
ENDBRANCH  11  12
ENDBRANCH  10  11
ENDBRANCH   8  10
ENDBRANCH   1   8
BRANCH   3  18
ATOM     18  C   UNL d   1      13.412  14.868  -5.011  0.00  0.00     0.064 A 
ATOM     19  C   UNL d   1      12.770  15.174  -5.357  0.00  0.00     0.020 A 
ATOM     20  C   UNL d   1      12.839  15.902  -5.757  0.00  0.00     0.031 A 
ATOM     21  C   UNL d   1      13.565  16.295  -5.791  0.00  0.00     0.140 A 
ATOM     22  C   UNL d   1      14.216  15.961  -5.427  0.00  0.00     0.031 A 
ATOM     23  F   UNL d   1      13.634  17.015  -6.187  0.00  0.00    -0.204 F 
ATOM     24  C   UNL d   1      14.147  15.246  -5.034  0.00  0.00     0.020 A 
ENDBRANCH   3  18
TORSDOF 5
ENDMDL
