MODEL 1
REMARK VINA RESULT:      -8.5      0.000      0.000
REMARK  3 active torsions:
REMARK  status: ('A' for Active; 'I' for Inactive)
REMARK    1  A    between atoms: N_9  and  C_2 
REMARK    2  A    between atoms: C_11  and  N_9 
REMARK    3  A    between atoms: O_14  and  C_13 
ROOT
ATOM      1  C   UNL d   1      54.043  33.068  54.397  0.00  0.00     0.154 A 
ATOM      2  C   UNL d   1      53.646  32.549  53.901  0.00  0.00     0.185 A 
ATOM      3  C   UNL d   1      53.672  33.757  54.657  0.00  0.00     0.186 A 
ATOM      4  N   UNL d   1      54.802  33.048  54.720  0.00  0.00    -0.218 NA
ATOM      5  N   UNL d   1      54.201  34.162  55.141  0.00  0.00    -0.203 NA
ATOM      6  N   UNL d   1      52.874  32.716  53.663  0.00  0.00    -0.203 NA
ATOM      7  N   UNL d   1      52.903  33.927  54.422  0.00  0.00    -0.203 NA
ATOM      8  C   UNL d   1      54.893  33.730  55.180  0.00  0.00     0.201 A 
ATOM      9  C   UNL d   1      52.502  33.405  53.923  0.00  0.00     0.202 A 
ENDROOT
BRANCH   2  10
ATOM     10  N   UNL d   1      54.017  31.859  53.640  0.00  0.00    -0.225 NA
BRANCH  10  11
ATOM     11  C   UNL d   1      53.583  31.170  53.535  0.00  0.00     0.085 A 
ATOM     12  C   UNL d   1      53.531  30.620  54.149  0.00  0.00     0.043 A 
ATOM     13  C   UNL d   1      53.094  29.927  54.045  0.00  0.00     0.096 A 
ATOM     14  C   UNL d   1      52.710  29.784  53.329  0.00  0.00     0.024 A 
ATOM     15  C   UNL d   1      52.766  30.342  52.713  0.00  0.00     0.004 A 
ATOM     16  C   UNL d   1      53.199  31.027  52.819  0.00  0.00     0.019 A 
BRANCH  13  17
ATOM     17  O   UNL d   1      53.042  29.373  54.664  0.00  0.00    -0.328 OA
ATOM     18  C   UNL d   1      53.513  28.696  54.654  0.00  0.00     0.181 C 
ENDBRANCH  13  17
ENDBRANCH  10  11
ENDBRANCH   2  10
TORSDOF 3
ENDMDL
MODEL 2
REMARK VINA RESULT:      -8.3      1.679      3.737
REMARK  3 active torsions:
REMARK  status: ('A' for Active; 'I' for Inactive)
REMARK    1  A    between atoms: N_9  and  C_2 
REMARK    2  A    between atoms: C_11  and  N_9 
REMARK    3  A    between atoms: O_14  and  C_13 
ROOT
ATOM      1  C   UNL d   1      53.259  31.009  53.723  0.00  0.00     0.154 A 
ATOM      2  C   UNL d   1      53.326  31.807  53.901  0.00  0.00     0.185 A 
ATOM      3  C   UNL d   1      52.921  30.771  53.009  0.00  0.00     0.186 A 
ATOM      4  N   UNL d   1      53.477  30.332  54.141  0.00  0.00    -0.218 NA
ATOM      5  N   UNL d   1      52.931  29.948  52.987  0.00  0.00    -0.203 NA
ATOM      6  N   UNL d   1      53.055  32.373  53.365  0.00  0.00    -0.203 NA
ATOM      7  N   UNL d   1      52.650  31.332  52.473  0.00  0.00    -0.203 NA
ATOM      8  C   UNL d   1      53.270  29.678  53.679  0.00  0.00     0.201 A 
ATOM      9  C   UNL d   1      52.717  32.136  52.651  0.00  0.00     0.202 A 
ENDROOT
BRANCH   2  10
ATOM     10  N   UNL d   1      53.664  32.045  54.615  0.00  0.00    -0.225 NA
BRANCH  10  11
ATOM     11  C   UNL d   1      53.975  32.802  54.694  0.00  0.00     0.085 A 
ATOM     12  C   UNL d   1      53.487  33.422  54.938  0.00  0.00     0.043 A 
ATOM     13  C   UNL d   1      53.797  34.183  55.017  0.00  0.00     0.096 A 
ATOM     14  C   UNL d   1      54.593  34.324  54.853  0.00  0.00     0.024 A 
ATOM     15  C   UNL d   1      55.080  33.695  54.607  0.00  0.00     0.004 A 
ATOM     16  C   UNL d   1      54.771  32.943  54.529  0.00  0.00     0.019 A 
BRANCH  13  17
ATOM     17  O   UNL d   1      53.305  34.807  55.263  0.00  0.00    -0.328 OA
ATOM     18  C   UNL d   1      53.113  35.414  54.738  0.00  0.00     0.181 C 
ENDBRANCH  13  17
ENDBRANCH  10  11
ENDBRANCH   2  10
TORSDOF 3
ENDMDL
MODEL 3
REMARK VINA RESULT:      -8.1      1.935      3.846
REMARK  3 active torsions:
REMARK  status: ('A' for Active; 'I' for Inactive)
REMARK    1  A    between atoms: N_9  and  C_2 
REMARK    2  A    between atoms: C_11  and  N_9 
REMARK    3  A    between atoms: O_14  and  C_13 
ROOT
ATOM      1  C   UNL d   1      53.065  31.380  53.151  0.00  0.00     0.154 A 
ATOM      2  C   UNL d   1      53.074  32.200  53.181  0.00  0.00     0.185 A 
ATOM      3  C   UNL d   1      53.440  30.939  53.739  0.00  0.00     0.186 A 
ATOM      4  N   UNL d   1      52.731  30.853  52.611  0.00  0.00    -0.218 NA
ATOM      5  N   UNL d   1      53.337  30.142  53.561  0.00  0.00    -0.203 NA
ATOM      6  N   UNL d   1      53.460  32.584  53.802  0.00  0.00    -0.203 NA
ATOM      7  N   UNL d   1      53.824  31.319  54.358  0.00  0.00    -0.203 NA
ATOM      8  C   UNL d   1      52.904  30.087  52.871  0.00  0.00     0.201 A 
ATOM      9  C   UNL d   1      53.834  32.144  54.390  0.00  0.00     0.202 A 
ENDROOT
BRANCH   2  10
ATOM     10  N   UNL d   1      52.699  32.640  52.593  0.00  0.00    -0.225 NA
BRANCH  10  11
ATOM     11  C   UNL d   1      52.322  33.345  52.782  0.00  0.00     0.085 A 
ATOM     12  C   UNL d   1      51.502  33.360  52.872  0.00  0.00     0.043 A 
ATOM     13  C   UNL d   1      51.120  34.067  53.062  0.00  0.00     0.096 A 
ATOM     14  C   UNL d   1      51.559  34.759  53.161  0.00  0.00     0.024 A 
ATOM     15  C   UNL d   1      52.387  34.739  53.069  0.00  0.00     0.004 A 
ATOM     16  C   UNL d   1      52.761  34.037  52.881  0.00  0.00     0.019 A 
BRANCH  13  17
ATOM     17  O   UNL d   1      50.293  34.081  53.152  0.00  0.00    -0.328 OA
ATOM     18  C   UNL d   1      49.825  34.493  52.612  0.00  0.00     0.181 C 
ENDBRANCH  13  17
ENDBRANCH  10  11
ENDBRANCH   2  10
TORSDOF 3
ENDMDL
MODEL 4
REMARK VINA RESULT:      -8.0      0.953      1.508
REMARK  3 active torsions:
REMARK  status: ('A' for Active; 'I' for Inactive)
REMARK    1  A    between atoms: N_9  and  C_2 
REMARK    2  A    between atoms: C_11  and  N_9 
REMARK    3  A    between atoms: O_14  and  C_13 
ROOT
ATOM      1  C   UNL d   1      53.519  34.047  54.119  0.00  0.00     0.154 A 
ATOM      2  C   UNL d   1      53.793  33.284  53.993  0.00  0.00     0.185 A 
ATOM      3  C   UNL d   1      53.636  34.414  54.849  0.00  0.00     0.186 A 
ATOM      4  N   UNL d   1      53.116  34.575  53.630  0.00  0.00    -0.218 NA
ATOM      5  N   UNL d   1      53.305  35.167  54.809  0.00  0.00    -0.203 NA
ATOM      6  N   UNL d   1      54.186  32.882  54.597  0.00  0.00    -0.203 NA
ATOM      7  N   UNL d   1      54.027  34.016  55.453  0.00  0.00    -0.203 NA
ATOM      8  C   UNL d   1      52.987  35.267  54.064  0.00  0.00     0.201 A 
ATOM      9  C   UNL d   1      54.303  33.248  55.327  0.00  0.00     0.202 A 
ENDROOT
BRANCH   2  10
ATOM     10  N   UNL d   1      53.676  32.917  53.263  0.00  0.00    -0.225 NA
BRANCH  10  11
ATOM     11  C   UNL d   1      53.302  32.187  53.223  0.00  0.00     0.085 A 
ATOM     12  C   UNL d   1      53.724  31.499  53.400  0.00  0.00     0.043 A 
ATOM     13  C   UNL d   1      53.350  30.764  53.360  0.00  0.00     0.096 A 
ATOM     14  C   UNL d   1      52.556  30.716  53.144  0.00  0.00     0.024 A 
ATOM     15  C   UNL d   1      52.134  31.412  52.966  0.00  0.00     0.004 A 
ATOM     16  C   UNL d   1      52.507  32.139  53.007  0.00  0.00     0.019 A 
BRANCH  13  17
ATOM     17  O   UNL d   1      53.776  30.072  53.539  0.00  0.00    -0.328 OA
ATOM     18  C   UNL d   1      53.411  29.456  53.948  0.00  0.00     0.181 C 
ENDBRANCH  13  17
ENDBRANCH  10  11
ENDBRANCH   2  10
TORSDOF 3
ENDMDL
MODEL 5
REMARK VINA RESULT:      -7.8      2.022      3.494
REMARK  3 active torsions:
REMARK  status: ('A' for Active; 'I' for Inactive)
REMARK    1  A    between atoms: N_9  and  C_2 
REMARK    2  A    between atoms: C_11  and  N_9 
REMARK    3  A    between atoms: O_14  and  C_13 
ROOT
ATOM      1  C   UNL d   1      53.814  33.644  54.582  0.00  0.00     0.154 A 
ATOM      2  C   UNL d   1      53.140  33.583  54.116  0.00  0.00     0.185 A 
ATOM      3  C   UNL d   1      54.279  32.978  54.725  0.00  0.00     0.186 A 
ATOM      4  N   UNL d   1      54.156  34.285  54.972  0.00  0.00    -0.218 NA
ATOM      5  N   UNL d   1      54.908  33.209  55.204  0.00  0.00    -0.203 NA
ATOM      6  N   UNL d   1      52.929  32.854  53.791  0.00  0.00    -0.203 NA
ATOM      7  N   UNL d   1      54.072  32.252  54.403  0.00  0.00    -0.203 NA
ATOM      8  C   UNL d   1      54.834  34.008  55.356  0.00  0.00     0.201 A 
ATOM      9  C   UNL d   1      53.395  32.189  53.934  0.00  0.00     0.202 A 
ENDROOT
BRANCH   2  10
ATOM     10  N   UNL d   1      52.674  34.248  53.973  0.00  0.00    -0.225 NA
BRANCH  10  11
ATOM     11  C   UNL d   1      52.161  34.263  53.331  0.00  0.00     0.085 A 
ATOM     12  C   UNL d   1      51.348  34.193  53.455  0.00  0.00     0.043 A 
ATOM     13  C   UNL d   1      50.830  34.208  52.812  0.00  0.00     0.096 A 
ATOM     14  C   UNL d   1      51.125  34.292  52.046  0.00  0.00     0.024 A 
ATOM     15  C   UNL d   1      51.947  34.362  51.927  0.00  0.00     0.004 A 
ATOM     16  C   UNL d   1      52.457  34.347  52.566  0.00  0.00     0.019 A 
BRANCH  13  17
ATOM     17  O   UNL d   1      50.011  34.137  52.937  0.00  0.00    -0.328 OA
ATOM     18  C   UNL d   1      49.496  34.709  52.639  0.00  0.00     0.181 C 
ENDBRANCH  13  17
ENDBRANCH  10  11
ENDBRANCH   2  10
TORSDOF 3
ENDMDL
MODEL 6
REMARK VINA RESULT:      -7.2      1.492      2.570
REMARK  3 active torsions:
REMARK  status: ('A' for Active; 'I' for Inactive)
REMARK    1  A    between atoms: N_9  and  C_2 
REMARK    2  A    between atoms: C_11  and  N_9 
REMARK    3  A    between atoms: O_14  and  C_13 
ROOT
ATOM      1  C   UNL d   1      51.633  33.908  52.826  0.00  0.00     0.154 A 
ATOM      2  C   UNL d   1      52.392  33.620  52.951  0.00  0.00     0.185 A 
ATOM      3  C   UNL d   1      51.369  34.572  53.239  0.00  0.00     0.186 A 
ATOM      4  N   UNL d   1      51.023  33.653  52.334  0.00  0.00    -0.218 NA
ATOM      5  N   UNL d   1      50.596  34.726  53.000  0.00  0.00    -0.203 NA
ATOM      6  N   UNL d   1      52.891  33.996  53.489  0.00  0.00    -0.203 NA
ATOM      7  N   UNL d   1      51.864  34.948  53.775  0.00  0.00    -0.203 NA
ATOM      8  C   UNL d   1      50.382  34.164  52.446  0.00  0.00     0.201 A 
ATOM      9  C   UNL d   1      52.627  34.660  53.902  0.00  0.00     0.202 A 
ENDROOT
BRANCH   2  10
ATOM     10  N   UNL d   1      52.656  32.956  52.539  0.00  0.00    -0.225 NA
BRANCH  10  11
ATOM     11  C   UNL d   1      53.041  32.349  52.936  0.00  0.00     0.085 A 
ATOM     12  C   UNL d   1      52.699  31.599  52.970  0.00  0.00     0.043 A 
ATOM     13  C   UNL d   1      53.084  30.987  53.369  0.00  0.00     0.096 A 
ATOM     14  C   UNL d   1      53.811  31.126  53.734  0.00  0.00     0.024 A 
ATOM     15  C   UNL d   1      54.152  31.885  53.697  0.00  0.00     0.004 A 
ATOM     16  C   UNL d   1      53.768  32.489  53.301  0.00  0.00     0.019 A 
BRANCH  13  17
ATOM     17  O   UNL d   1      52.739  30.231  53.402  0.00  0.00    -0.328 OA
ATOM     18  C   UNL d   1      53.127  29.616  53.793  0.00  0.00     0.181 C 
ENDBRANCH  13  17
ENDBRANCH  10  11
ENDBRANCH   2  10
TORSDOF 3
ENDMDL
