MODEL 1
REMARK VINA RESULT:      -3.8      0.000      0.000
REMARK  5 active torsions:
REMARK  status: ('A' for Active; 'I' for Inactive)
REMARK    1  A    between atoms: C_15  and  C_3 
REMARK    2  A    between atoms: S_9  and  C_4 
REMARK       I    between atoms: N_6  and  C_8 
REMARK    3  A    between atoms: C_16  and  N_7 
REMARK    4  A    between atoms: C_8  and  C_14 
REMARK    5  A    between atoms: C_14  and  S_9 
ROOT
ATOM      1  N   UNL d   1      32.937  20.227 -22.680  0.00  0.00    -0.269 N 
ATOM      2  N   UNL d   1      32.852  21.364 -21.487  0.00  0.00    -0.301 N 
ATOM      3  C   UNL d   1      32.978  19.651 -23.277  0.00  0.00     0.272 C 
ATOM      4  C   UNL d   1      32.675  20.024 -21.925  0.00  0.00     0.102 A 
ATOM      5  C   UNL d   1      33.156  21.003 -22.836  0.00  0.00     0.102 A 
ATOM      6  C   UNL d   1      33.116  21.580 -22.241  0.00  0.00     0.100 A 
ATOM      7  C   UNL d   1      32.632  20.590 -21.327  0.00  0.00     0.100 A 
ATOM      8  O   UNL d   1      33.238  19.850 -24.030  0.00  0.00    -0.266 OA
ENDROOT
BRANCH   3   9
ATOM      9  C   UNL d   1      32.756  18.876 -23.111  0.00  0.00     0.100 C 
BRANCH   9  10
ATOM     10  S   UNL d   1      32.791  18.297 -23.699  0.00  0.00    -0.036 SA
BRANCH  10  11
ATOM     11  C   UNL d   1      32.335  17.602 -23.638  0.00  0.00     0.236 A 
ATOM     12  O   UNL d   1      31.543  17.516 -23.807  0.00  0.00    -0.263 OA
ATOM     13  C   UNL d   1      31.331  16.728 -23.664  0.00  0.00     0.205 A 
ATOM     14  N   UNL d   1      32.001  16.333 -23.406  0.00  0.00    -0.120 NA
ATOM     15  N   UNL d   1      32.630  16.877 -23.388  0.00  0.00    -0.114 NA
BRANCH  13  16
ATOM     16  C   UNL d   1      30.590  16.373 -23.755  0.00  0.00     0.043 A 
ATOM     17  C   UNL d   1      30.115  16.579 -24.392  0.00  0.00     0.004 A 
ATOM     18  C   UNL d   1      29.374  16.224 -24.483  0.00  0.00     0.000 A 
ATOM     19  C   UNL d   1      29.115  15.666 -23.935  0.00  0.00     0.000 A 
ATOM     20  C   UNL d   1      29.595  15.461 -23.295  0.00  0.00     0.000 A 
ATOM     21  C   UNL d   1      30.331  15.815 -23.207  0.00  0.00     0.004 A 
ENDBRANCH  13  16
ENDBRANCH  10  11
ENDBRANCH   9  10
ENDBRANCH   3   9
BRANCH   2  22
ATOM     22  C   UNL d   1      32.811  21.937 -20.893  0.00  0.00     0.064 A 
ATOM     23  C   UNL d   1      33.234  21.832 -20.199  0.00  0.00     0.018 A 
ATOM     24  C   UNL d   1      33.199  22.406 -19.594  0.00  0.00     0.002 A 
ATOM     25  C   UNL d   1      32.738  23.076 -19.701  0.00  0.00     0.000 A 
ATOM     26  C   UNL d   1      32.310  23.186 -20.400  0.00  0.00     0.002 A 
ATOM     27  C   UNL d   1      32.351  22.609 -20.996  0.00  0.00     0.018 A 
ENDBRANCH   2  22
TORSDOF 5
ENDMDL
MODEL 2
REMARK VINA RESULT:      -1.0      1.751      2.949
REMARK  5 active torsions:
REMARK  status: ('A' for Active; 'I' for Inactive)
REMARK    1  A    between atoms: C_15  and  C_3 
REMARK    2  A    between atoms: S_9  and  C_4 
REMARK       I    between atoms: N_6  and  C_8 
REMARK    3  A    between atoms: C_16  and  N_7 
REMARK    4  A    between atoms: C_8  and  C_14 
REMARK    5  A    between atoms: C_14  and  S_9 
ROOT
ATOM      1  N   UNL d   1      33.014  22.112 -20.651  0.00  0.00    -0.269 N 
ATOM      2  N   UNL d   1      32.898  22.571 -19.070  0.00  0.00    -0.301 N 
ATOM      3  C   UNL d   1      33.073  21.875 -21.445  0.00  0.00     0.272 C 
ATOM      4  C   UNL d   1      33.045  21.550 -20.048  0.00  0.00     0.102 A 
ATOM      5  C   UNL d   1      32.925  22.905 -20.460  0.00  0.00     0.102 A 
ATOM      6  C   UNL d   1      32.866  23.143 -19.666  0.00  0.00     0.100 A 
ATOM      7  C   UNL d   1      32.988  21.777 -19.257  0.00  0.00     0.100 A 
ATOM      8  O   UNL d   1      33.042  22.432 -22.047  0.00  0.00    -0.266 OA
ENDROOT
BRANCH   3   9
ATOM      9  C   UNL d   1      33.162  21.078 -21.626  0.00  0.00     0.100 C 
BRANCH   9  10
ATOM     10  S   UNL d   1      32.550  20.663 -21.996  0.00  0.00    -0.036 SA
BRANCH  10  11
ATOM     11  C   UNL d   1      32.718  20.074 -22.561  0.00  0.00     0.236 A 
ATOM     12  O   UNL d   1      32.419  19.316 -22.586  0.00  0.00    -0.263 OA
ATOM     13  C   UNL d   1      32.741  18.931 -23.245  0.00  0.00     0.205 A 
ATOM     14  N   UNL d   1      33.240  19.461 -23.623  0.00  0.00    -0.120 NA
ATOM     15  N   UNL d   1      33.227  20.176 -23.197  0.00  0.00    -0.114 NA
BRANCH  13  16
ATOM     16  C   UNL d   1      32.606  18.158 -23.502  0.00  0.00     0.043 A 
ATOM     17  C   UNL d   1      32.016  18.008 -24.053  0.00  0.00     0.004 A 
ATOM     18  C   UNL d   1      31.881  17.235 -24.310  0.00  0.00     0.000 A 
ATOM     19  C   UNL d   1      32.337  16.617 -24.014  0.00  0.00     0.000 A 
ATOM     20  C   UNL d   1      32.930  16.770 -23.459  0.00  0.00     0.000 A 
ATOM     21  C   UNL d   1      33.063  17.539 -23.205  0.00  0.00     0.004 A 
ENDBRANCH  13  16
ENDBRANCH  10  11
ENDBRANCH   9  10
ENDBRANCH   3   9
BRANCH   2  22
ATOM     22  C   UNL d   1      32.840  22.806 -18.280  0.00  0.00     0.064 A 
ATOM     23  C   UNL d   1      32.379  23.456 -18.084  0.00  0.00     0.018 A 
ATOM     24  C   UNL d   1      32.315  23.701 -17.289  0.00  0.00     0.002 A 
ATOM     25  C   UNL d   1      32.715  23.287 -16.706  0.00  0.00     0.000 A 
ATOM     26  C   UNL d   1      33.181  22.631 -16.899  0.00  0.00     0.002 A 
ATOM     27  C   UNL d   1      33.239  22.394 -17.693  0.00  0.00     0.018 A 
ENDBRANCH   2  22
TORSDOF 5
ENDMDL
