MODEL 1
REMARK VINA RESULT:      15.1      0.000      0.000
REMARK  1 active torsions:
REMARK  status: ('A' for Active; 'I' for Inactive)
REMARK    1  A    between atoms: C_5  and  C_1 
ROOT
ATOM      1  C   UNL d   1      58.415  49.705  50.471  0.00  0.00     0.162 A 
ATOM      2  N   UNL d   1      58.604  49.705  51.249  0.00  0.00    -0.225 NA
ATOM      3  N   UNL d   1      59.068  49.705  50.015  0.00  0.00    -0.225 NA
ATOM      4  C   UNL d   1      59.445  49.705  51.299  0.00  0.00     0.101 A 
ATOM      5  C   UNL d   1      59.734  49.705  50.533  0.00  0.00     0.101 A 
ATOM      6  C   UNL d   1      59.958  49.705  51.948  0.00  0.00     0.021 A 
ATOM      7  C   UNL d   1      60.543  49.705  50.394  0.00  0.00     0.021 A 
ATOM      8  C   UNL d   1      61.067  49.705  51.035  0.00  0.00     0.002 A 
ATOM      9  C   UNL d   1      60.779  49.705  51.801  0.00  0.00     0.002 A 
ENDROOT
BRANCH   1  10
ATOM     10  C   UNL d   1      57.652  49.705  50.184  0.00  0.00     0.036 A 
ATOM     11  C   UNL d   1      57.010  49.705  50.700  0.00  0.00     0.003 A 
ATOM     12  C   UNL d   1      57.150  49.705  51.517  0.00  0.00     0.000 C 
ATOM     13  C   UNL d   1      56.237  49.705  50.409  0.00  0.00     0.000 A 
ATOM     14  C   UNL d   1      56.088  49.705  49.595  0.00  0.00     0.000 A 
ATOM     15  C   UNL d   1      56.735  49.705  49.086  0.00  0.00     0.000 A 
ATOM     16  C   UNL d   1      57.508  49.705  49.377  0.00  0.00     0.003 A 
ENDBRANCH   1  10
TORSDOF 1
ENDMDL
MODEL 2
REMARK VINA RESULT:      15.7      0.482      3.588
REMARK  1 active torsions:
REMARK  status: ('A' for Active; 'I' for Inactive)
REMARK    1  A    between atoms: C_5  and  C_1 
ROOT
ATOM      1  C   UNL d   1      58.755  49.702  50.564  0.00  0.00     0.162 A 
ATOM      2  N   UNL d   1      58.577  49.695  49.783  0.00  0.00    -0.225 NA
ATOM      3  N   UNL d   1      58.096  49.707  51.011  0.00  0.00    -0.225 NA
ATOM      4  C   UNL d   1      57.736  49.696  49.722  0.00  0.00     0.101 A 
ATOM      5  C   UNL d   1      57.437  49.703  50.485  0.00  0.00     0.101 A 
ATOM      6  C   UNL d   1      57.231  49.691  49.067  0.00  0.00     0.021 A 
ATOM      7  C   UNL d   1      56.626  49.706  50.613  0.00  0.00     0.021 A 
ATOM      8  C   UNL d   1      56.111  49.701  49.965  0.00  0.00     0.002 A 
ATOM      9  C   UNL d   1      56.409  49.693  49.202  0.00  0.00     0.002 A 
ENDROOT
BRANCH   1  10
ATOM     10  C   UNL d   1      59.514  49.703  50.861  0.00  0.00     0.036 A 
ATOM     11  C   UNL d   1      60.163  49.706  50.354  0.00  0.00     0.003 A 
ATOM     12  C   UNL d   1      60.034  49.708  49.534  0.00  0.00     0.000 C 
ATOM     13  C   UNL d   1      60.932  49.708  50.655  0.00  0.00     0.000 A 
ATOM     14  C   UNL d   1      61.070  49.706  51.471  0.00  0.00     0.000 A 
ATOM     15  C   UNL d   1      60.417  49.703  51.971  0.00  0.00     0.000 A 
ATOM     16  C   UNL d   1      59.648  49.702  51.670  0.00  0.00     0.003 A 
ENDBRANCH   1  10
TORSDOF 1
ENDMDL
