MODEL 1
REMARK VINA RESULT:      -7.1      0.000      0.000
REMARK  6 active torsions:
REMARK  status: ('A' for Active; 'I' for Inactive)
REMARK    1  A    between atoms: C_8  and  C_6 
REMARK    2  A    between atoms: C_9  and  C_8 
REMARK       I    between atoms: N_11  and  C_9 
REMARK    3  A    between atoms: C_10  and  C_12 
REMARK    4  A    between atoms: O_20  and  C_10 
REMARK    5  A    between atoms: C_19  and  N_11 
REMARK    6  A    between atoms: C_29  and  O_20 
ROOT
ATOM      1  N   UNL d   1      49.993  34.868  53.547  0.00  0.00    -0.207 NA
ATOM      2  N   UNL d   1      50.499  33.998  52.205  0.00  0.00    -0.240 NA
ATOM      3  C   UNL d   1      50.635  34.384  53.420  0.00  0.00     0.297 A 
ATOM      4  C   UNL d   1      49.381  35.080  53.036  0.00  0.00     0.086 A 
ATOM      5  C   UNL d   1      49.821  34.332  51.888  0.00  0.00     0.083 A 
ATOM      6  C   UNL d   1      50.803  34.091  52.963  0.00  0.00     0.144 A 
ATOM      7  C   UNL d   1      49.273  34.842  52.244  0.00  0.00     0.035 A 
ATOM      8  O   UNL d   1      51.142  34.293  54.060  0.00  0.00    -0.264 OA
ATOM      9  C   UNL d   1      48.617  35.120  51.824  0.00  0.00     0.003 A 
ATOM     10  C   UNL d   1      49.713  34.097  51.104  0.00  0.00     0.019 A 
ATOM     11  C   UNL d   1      48.836  35.589  53.394  0.00  0.00     0.019 A 
ATOM     12  C   UNL d   1      49.050  34.374  50.672  0.00  0.00     0.002 A 
ATOM     13  C   UNL d   1      48.183  35.862  52.967  0.00  0.00     0.002 A 
ATOM     14  C   UNL d   1      48.508  34.882  51.031  0.00  0.00     0.000 A 
ATOM     15  C   UNL d   1      48.075  35.627  52.184  0.00  0.00     0.000 A 
ENDROOT
BRANCH   6  16
ATOM     16  C   UNL d   1      51.501  33.669  53.089  0.00  0.00     0.086 C 
BRANCH  16  17
ATOM     17  C   UNL d   1      52.224  33.989  52.827  0.00  0.00     0.281 C 
ATOM     18  N   UNL d   1      52.892  33.505  52.769  0.00  0.00    -0.208 NA
ATOM     19  O   UNL d   1      52.277  34.789  52.623  0.00  0.00    -0.265 OA
BRANCH  18  20
ATOM     20  C   UNL d   1      52.844  32.704  52.972  0.00  0.00     0.085 A 
ATOM     21  C   UNL d   1      53.091  32.459  53.716  0.00  0.00     0.019 A 
ATOM     22  C   UNL d   1      53.046  31.664  53.924  0.00  0.00     0.007 A 
ATOM     23  C   UNL d   1      52.750  31.111  53.379  0.00  0.00     0.064 A 
ATOM     24  C   UNL d   1      52.504  31.362  52.633  0.00  0.00     0.007 A 
ATOM     25  C   UNL d   1      52.551  32.159  52.429  0.00  0.00     0.019 A 
BRANCH  23  26
ATOM     26  C   UNL d   1      52.704  30.328  53.580  0.00  0.00     0.300 C 
ATOM     27  O   UNL d   1      52.091  29.867  53.301  0.00  0.00    -0.259 OA
BRANCH  26  28
ATOM     28  O   UNL d   1      53.268  29.995  54.061  0.00  0.00    -0.271 OA
BRANCH  28  29
ATOM     29  C   UNL d   1      53.287  29.189  54.171  0.00  0.00     0.126 C 
ATOM     30  C   UNL d   1      53.612  28.878  54.848  0.00  0.00     0.029 C 
ENDBRANCH  28  29
ENDBRANCH  26  28
ENDBRANCH  23  26
ENDBRANCH  18  20
ENDBRANCH  16  17
ENDBRANCH   6  16
TORSDOF 6
ENDMDL
MODEL 2
REMARK VINA RESULT:      -6.8      1.599      5.474
REMARK  6 active torsions:
REMARK  status: ('A' for Active; 'I' for Inactive)
REMARK    1  A    between atoms: C_8  and  C_6 
REMARK    2  A    between atoms: C_9  and  C_8 
REMARK       I    between atoms: N_11  and  C_9 
REMARK    3  A    between atoms: C_10  and  C_12 
REMARK    4  A    between atoms: O_20  and  C_10 
REMARK    5  A    between atoms: C_19  and  N_11 
REMARK    6  A    between atoms: C_29  and  O_20 
ROOT
ATOM      1  N   UNL d   1      53.102  34.713  54.016  0.00  0.00    -0.207 NA
ATOM      2  N   UNL d   1      52.270  33.399  53.387  0.00  0.00    -0.240 NA
ATOM      3  C   UNL d   1      52.430  34.659  53.562  0.00  0.00     0.297 A 
ATOM      4  C   UNL d   1      53.590  34.116  54.312  0.00  0.00     0.086 A 
ATOM      5  C   UNL d   1      52.871  32.993  53.770  0.00  0.00     0.083 A 
ATOM      6  C   UNL d   1      52.150  34.212  53.350  0.00  0.00     0.144 A 
ATOM      7  C   UNL d   1      53.506  33.292  54.212  0.00  0.00     0.035 A 
ATOM      8  O   UNL d   1      52.079  35.375  53.364  0.00  0.00    -0.264 OA
ATOM      9  C   UNL d   1      54.059  32.784  54.557  0.00  0.00     0.003 A 
ATOM     10  C   UNL d   1      52.789  32.178  53.671  0.00  0.00     0.019 A 
ATOM     11  C   UNL d   1      54.222  34.418  54.752  0.00  0.00     0.019 A 
ATOM     12  C   UNL d   1      53.346  31.656  54.018  0.00  0.00     0.002 A 
ATOM     13  C   UNL d   1      54.771  33.903  55.094  0.00  0.00     0.002 A 
ATOM     14  C   UNL d   1      53.975  31.959  54.457  0.00  0.00     0.000 A 
ATOM     15  C   UNL d   1      54.689  33.088  54.995  0.00  0.00     0.000 A 
ENDROOT
BRANCH   6  16
ATOM     16  C   UNL d   1      51.484  34.424  52.914  0.00  0.00     0.086 C 
BRANCH  16  17
ATOM     17  C   UNL d   1      51.298  34.000  52.221  0.00  0.00     0.281 C 
ATOM     18  N   UNL d   1      50.533  34.034  51.909  0.00  0.00    -0.208 NA
ATOM     19  O   UNL d   1      51.875  33.543  51.843  0.00  0.00    -0.265 OA
BRANCH  18  20
ATOM     20  C   UNL d   1      49.952  34.490  52.283  0.00  0.00     0.085 A 
ATOM     21  C   UNL d   1      49.613  35.123  51.884  0.00  0.00     0.019 A 
ATOM     22  C   UNL d   1      49.035  35.580  52.250  0.00  0.00     0.007 A 
ATOM     23  C   UNL d   1      48.795  35.399  53.024  0.00  0.00     0.064 A 
ATOM     24  C   UNL d   1      49.137  34.762  53.421  0.00  0.00     0.007 A 
ATOM     25  C   UNL d   1      49.716  34.307  53.051  0.00  0.00     0.019 A 
BRANCH  23  26
ATOM     26  C   UNL d   1      48.226  35.846  53.388  0.00  0.00     0.300 C 
ATOM     27  O   UNL d   1      48.438  36.427  53.921  0.00  0.00    -0.259 OA
BRANCH  26  28
ATOM     28  O   UNL d   1      47.440  35.718  53.226  0.00  0.00    -0.271 OA
BRANCH  28  29
ATOM     29  C   UNL d   1      46.870  36.178  53.580  0.00  0.00     0.126 C 
ATOM     30  C   UNL d   1      46.085  36.053  53.416  0.00  0.00     0.029 C 
ENDBRANCH  28  29
ENDBRANCH  26  28
ENDBRANCH  23  26
ENDBRANCH  18  20
ENDBRANCH  16  17
ENDBRANCH   6  16
TORSDOF 6
ENDMDL
MODEL 3
REMARK VINA RESULT:      -6.6      0.878      1.695
REMARK  6 active torsions:
REMARK  status: ('A' for Active; 'I' for Inactive)
REMARK    1  A    between atoms: C_8  and  C_6 
REMARK    2  A    between atoms: C_9  and  C_8 
REMARK       I    between atoms: N_11  and  C_9 
REMARK    3  A    between atoms: C_10  and  C_12 
REMARK    4  A    between atoms: O_20  and  C_10 
REMARK    5  A    between atoms: C_19  and  N_11 
REMARK    6  A    between atoms: C_29  and  O_20 
ROOT
ATOM      1  N   UNL d   1      49.438  34.529  51.327  0.00  0.00    -0.207 NA
ATOM      2  N   UNL d   1      49.773  34.816  52.946  0.00  0.00    -0.240 NA
ATOM      3  C   UNL d   1      50.077  34.341  51.794  0.00  0.00     0.297 A 
ATOM      4  C   UNL d   1      48.743  34.930  51.518  0.00  0.00     0.086 A 
ATOM      5  C   UNL d   1      49.037  35.173  52.907  0.00  0.00     0.083 A 
ATOM      6  C   UNL d   1      50.187  34.439  52.343  0.00  0.00     0.144 A 
ATOM      7  C   UNL d   1      48.524  35.247  52.259  0.00  0.00     0.035 A 
ATOM      8  O   UNL d   1      50.683  33.932  51.417  0.00  0.00    -0.264 OA
ATOM      9  C   UNL d   1      47.797  35.632  52.335  0.00  0.00     0.003 A 
ATOM     10  C   UNL d   1      48.819  35.487  53.638  0.00  0.00     0.019 A 
ATOM     11  C   UNL d   1      48.235  35.002  50.870  0.00  0.00     0.019 A 
ATOM     12  C   UNL d   1      48.083  35.879  53.724  0.00  0.00     0.002 A 
ATOM     13  C   UNL d   1      47.508  35.389  50.955  0.00  0.00     0.002 A 
ATOM     14  C   UNL d   1      47.578  35.950  53.075  0.00  0.00     0.000 A 
ATOM     15  C   UNL d   1      47.292  35.703  51.686  0.00  0.00     0.000 A 
ENDROOT
BRANCH   6  16
ATOM     16  C   UNL d   1      50.918  34.142  52.585  0.00  0.00     0.086 C 
BRANCH  16  17
ATOM     17  C   UNL d   1      51.425  34.625  53.036  0.00  0.00     0.281 C 
ATOM     18  N   UNL d   1      52.098  34.299  53.389  0.00  0.00    -0.208 NA
ATOM     19  O   UNL d   1      51.260  35.429  53.133  0.00  0.00    -0.265 OA
BRANCH  18  20
ATOM     20  C   UNL d   1      52.268  33.494  53.295  0.00  0.00     0.085 A 
ATOM     21  C   UNL d   1      52.906  33.266  52.831  0.00  0.00     0.019 A 
ATOM     22  C   UNL d   1      53.081  32.468  52.734  0.00  0.00     0.007 A 
ATOM     23  C   UNL d   1      52.610  31.894  53.106  0.00  0.00     0.064 A 
ATOM     24  C   UNL d   1      51.970  32.127  53.571  0.00  0.00     0.007 A 
ATOM     25  C   UNL d   1      51.799  32.928  53.666  0.00  0.00     0.019 A 
BRANCH  23  26
ATOM     26  C   UNL d   1      52.778  31.108  53.013  0.00  0.00     0.300 C 
ATOM     27  O   UNL d   1      52.675  30.748  52.287  0.00  0.00    -0.259 OA
BRANCH  26  28
ATOM     28  O   UNL d   1      53.052  30.671  53.641  0.00  0.00    -0.271 OA
BRANCH  28  29
ATOM     29  C   UNL d   1      53.227  29.882  53.545  0.00  0.00     0.126 C 
ATOM     30  C   UNL d   1      53.324  29.403  54.194  0.00  0.00     0.029 C 
ENDBRANCH  28  29
ENDBRANCH  26  28
ENDBRANCH  23  26
ENDBRANCH  18  20
ENDBRANCH  16  17
ENDBRANCH   6  16
TORSDOF 6
ENDMDL
MODEL 4
REMARK VINA RESULT:      -6.5      1.531      5.379
REMARK  6 active torsions:
REMARK  status: ('A' for Active; 'I' for Inactive)
REMARK    1  A    between atoms: C_8  and  C_6 
REMARK    2  A    between atoms: C_9  and  C_8 
REMARK       I    between atoms: N_11  and  C_9 
REMARK    3  A    between atoms: C_10  and  C_12 
REMARK    4  A    between atoms: O_20  and  C_10 
REMARK    5  A    between atoms: C_19  and  N_11 
REMARK    6  A    between atoms: C_29  and  O_20 
ROOT
ATOM      1  N   UNL d   1      53.469  31.245  54.949  0.00  0.00    -0.207 NA
ATOM      2  N   UNL d   1      52.994  31.551  53.369  0.00  0.00    -0.240 NA
ATOM      3  C   UNL d   1      53.326  31.937  54.545  0.00  0.00     0.297 A 
ATOM      4  C   UNL d   1      53.422  30.463  54.691  0.00  0.00     0.086 A 
ATOM      5  C   UNL d   1      53.014  30.732  53.336  0.00  0.00     0.083 A 
ATOM      6  C   UNL d   1      53.165  32.037  54.010  0.00  0.00     0.144 A 
ATOM      7  C   UNL d   1      53.208  30.188  53.932  0.00  0.00     0.035 A 
ATOM      8  O   UNL d   1      53.429  32.627  54.980  0.00  0.00    -0.264 OA
ATOM      9  C   UNL d   1      53.195  29.375  53.785  0.00  0.00     0.003 A 
ATOM     10  C   UNL d   1      52.803  30.459  52.586  0.00  0.00     0.019 A 
ATOM     11  C   UNL d   1      53.616  29.924  55.287  0.00  0.00     0.019 A 
ATOM     12  C   UNL d   1      52.787  29.636  52.429  0.00  0.00     0.002 A 
ATOM     13  C   UNL d   1      53.600  29.111  55.131  0.00  0.00     0.002 A 
ATOM     14  C   UNL d   1      52.981  29.100  53.026  0.00  0.00     0.000 A 
ATOM     15  C   UNL d   1      53.389  28.840  54.381  0.00  0.00     0.000 A 
ENDROOT
BRANCH   6  16
ATOM     16  C   UNL d   1      53.086  32.840  53.840  0.00  0.00     0.086 C 
BRANCH  16  17
ATOM     17  C   UNL d   1      53.638  33.207  53.336  0.00  0.00     0.281 C 
ATOM     18  N   UNL d   1      53.392  33.805  52.821  0.00  0.00    -0.208 NA
ATOM     19  O   UNL d   1      54.432  32.975  53.346  0.00  0.00    -0.265 OA
BRANCH  18  20
ATOM     20  C   UNL d   1      52.599  34.041  52.806  0.00  0.00     0.085 A 
ATOM     21  C   UNL d   1      52.104  33.761  52.213  0.00  0.00     0.019 A 
ATOM     22  C   UNL d   1      51.314  33.992  52.193  0.00  0.00     0.007 A 
ATOM     23  C   UNL d   1      51.019  34.508  52.773  0.00  0.00     0.064 A 
ATOM     24  C   UNL d   1      51.520  34.787  53.366  0.00  0.00     0.007 A 
ATOM     25  C   UNL d   1      52.311  34.553  53.383  0.00  0.00     0.019 A 
BRANCH  23  26
ATOM     26  C   UNL d   1      50.243  34.737  52.757  0.00  0.00     0.300 C 
ATOM     27  O   UNL d   1      49.919  35.137  53.390  0.00  0.00    -0.259 OA
BRANCH  26  28
ATOM     28  O   UNL d   1      49.781  34.571  52.109  0.00  0.00    -0.271 OA
BRANCH  28  29
ATOM     29  C   UNL d   1      49.015  34.841  52.074  0.00  0.00     0.126 C 
ATOM     30  C   UNL d   1      48.588  34.770  51.386  0.00  0.00     0.029 C 
ENDBRANCH  28  29
ENDBRANCH  26  28
ENDBRANCH  23  26
ENDBRANCH  18  20
ENDBRANCH  16  17
ENDBRANCH   6  16
TORSDOF 6
ENDMDL
MODEL 5
REMARK VINA RESULT:      -6.1      2.670      3.743
REMARK  6 active torsions:
REMARK  status: ('A' for Active; 'I' for Inactive)
REMARK    1  A    between atoms: C_8  and  C_6 
REMARK    2  A    between atoms: C_9  and  C_8 
REMARK       I    between atoms: N_11  and  C_9 
REMARK    3  A    between atoms: C_10  and  C_12 
REMARK    4  A    between atoms: O_20  and  C_10 
REMARK    5  A    between atoms: C_19  and  N_11 
REMARK    6  A    between atoms: C_29  and  O_20 
ROOT
ATOM      1  N   UNL d   1      52.203  33.999  53.852  0.00  0.00    -0.207 NA
ATOM      2  N   UNL d   1      53.441  32.881  54.031  0.00  0.00    -0.240 NA
ATOM      3  C   UNL d   1      52.270  33.219  53.632  0.00  0.00     0.297 A 
ATOM      4  C   UNL d   1      52.743  34.488  54.241  0.00  0.00     0.086 A 
ATOM      5  C   UNL d   1      53.801  33.523  54.391  0.00  0.00     0.083 A 
ATOM      6  C   UNL d   1      52.691  32.843  53.694  0.00  0.00     0.144 A 
ATOM      7  C   UNL d   1      53.508  34.290  54.509  0.00  0.00     0.035 A 
ATOM      8  O   UNL d   1      51.616  32.902  53.248  0.00  0.00    -0.264 OA
ATOM      9  C   UNL d   1      53.964  34.864  54.889  0.00  0.00     0.003 A 
ATOM     10  C   UNL d   1      54.558  33.329  54.656  0.00  0.00     0.019 A 
ATOM     11  C   UNL d   1      52.448  35.251  54.356  0.00  0.00     0.019 A 
ATOM     12  C   UNL d   1      55.027  33.906  55.043  0.00  0.00     0.002 A 
ATOM     13  C   UNL d   1      52.911  35.821  54.738  0.00  0.00     0.002 A 
ATOM     14  C   UNL d   1      54.730  34.667  55.157  0.00  0.00     0.000 A 
ATOM     15  C   UNL d   1      53.668  35.626  55.003  0.00  0.00     0.000 A 
ENDROOT
BRANCH   6  16
ATOM     16  C   UNL d   1      52.512  32.101  53.381  0.00  0.00     0.086 C 
BRANCH  16  17
ATOM     17  C   UNL d   1      52.674  31.948  52.578  0.00  0.00     0.281 C 
ATOM     18  N   UNL d   1      52.911  31.192  52.342  0.00  0.00    -0.208 NA
ATOM     19  O   UNL d   1      52.598  32.549  52.015  0.00  0.00    -0.265 OA
BRANCH  18  20
ATOM     20  C   UNL d   1      52.988  30.587  52.902  0.00  0.00     0.085 A 
ATOM     21  C   UNL d   1      53.735  30.371  53.166  0.00  0.00     0.019 A 
ATOM     22  C   UNL d   1      53.819  29.770  53.723  0.00  0.00     0.007 A 
ATOM     23  C   UNL d   1      53.145  29.384  54.017  0.00  0.00     0.064 A 
ATOM     24  C   UNL d   1      52.396  29.604  53.750  0.00  0.00     0.007 A 
ATOM     25  C   UNL d   1      52.317  30.206  53.192  0.00  0.00     0.019 A 
BRANCH  23  26
ATOM     26  C   UNL d   1      53.223  28.793  54.565  0.00  0.00     0.300 C 
ATOM     27  O   UNL d   1      53.560  28.079  54.355  0.00  0.00    -0.259 OA
BRANCH  26  28
ATOM     28  O   UNL d   1      52.965  28.905  55.327  0.00  0.00    -0.271 OA
BRANCH  28  29
ATOM     29  C   UNL d   1      53.329  28.517  55.942  0.00  0.00     0.126 C 
ATOM     30  C   UNL d   1      53.389  28.873  56.671  0.00  0.00     0.029 C 
ENDBRANCH  28  29
ENDBRANCH  26  28
ENDBRANCH  23  26
ENDBRANCH  18  20
ENDBRANCH  16  17
ENDBRANCH   6  16
TORSDOF 6
ENDMDL
MODEL 6
REMARK VINA RESULT:      -5.4      2.153      2.793
REMARK  6 active torsions:
REMARK  status: ('A' for Active; 'I' for Inactive)
REMARK    1  A    between atoms: C_8  and  C_6 
REMARK    2  A    between atoms: C_9  and  C_8 
REMARK       I    between atoms: N_11  and  C_9 
REMARK    3  A    between atoms: C_10  and  C_12 
REMARK    4  A    between atoms: O_20  and  C_10 
REMARK    5  A    between atoms: C_19  and  N_11 
REMARK    6  A    between atoms: C_29  and  O_20 
ROOT
ATOM      1  N   UNL d   1      48.492  35.845  53.613  0.00  0.00    -0.207 NA
ATOM      2  N   UNL d   1      48.724  35.094  52.131  0.00  0.00    -0.240 NA
ATOM      3  C   UNL d   1      49.117  35.426  53.305  0.00  0.00     0.297 A 
ATOM      4  C   UNL d   1      47.762  36.031  53.276  0.00  0.00     0.086 A 
ATOM      5  C   UNL d   1      47.968  35.384  52.006  0.00  0.00     0.083 A 
ATOM      6  C   UNL d   1      49.193  35.173  52.802  0.00  0.00     0.144 A 
ATOM      7  C   UNL d   1      47.485  35.826  52.516  0.00  0.00     0.035 A 
ATOM      8  O   UNL d   1      49.768  35.345  53.801  0.00  0.00    -0.264 OA
ATOM      9  C   UNL d   1      46.730  36.068  52.282  0.00  0.00     0.003 A 
ATOM     10  C   UNL d   1      47.692  35.183  51.254  0.00  0.00     0.019 A 
ATOM     11  C   UNL d   1      47.284  36.471  53.787  0.00  0.00     0.019 A 
ATOM     12  C   UNL d   1      46.928  35.424  51.010  0.00  0.00     0.002 A 
ATOM     13  C   UNL d   1      46.529  36.709  53.545  0.00  0.00     0.002 A 
ATOM     14  C   UNL d   1      46.452  35.864  51.521  0.00  0.00     0.000 A 
ATOM     15  C   UNL d   1      46.255  36.507  52.794  0.00  0.00     0.000 A 
ENDROOT
BRANCH   6  16
ATOM     16  C   UNL d   1      49.928  34.807  52.731  0.00  0.00     0.086 C 
BRANCH  16  17
ATOM     17  C   UNL d   1      50.099  34.365  52.046  0.00  0.00     0.281 C 
ATOM     18  N   UNL d   1      50.840  34.007  51.960  0.00  0.00    -0.208 NA
ATOM     19  O   UNL d   1      49.532  34.282  51.450  0.00  0.00    -0.265 OA
BRANCH  18  20
ATOM     20  C   UNL d   1      51.412  34.088  52.553  0.00  0.00     0.085 A 
ATOM     21  C   UNL d   1      51.960  34.698  52.508  0.00  0.00     0.019 A 
ATOM     22  C   UNL d   1      52.530  34.783  53.095  0.00  0.00     0.007 A 
ATOM     23  C   UNL d   1      52.551  34.251  53.732  0.00  0.00     0.064 A 
ATOM     24  C   UNL d   1      51.999  33.639  53.773  0.00  0.00     0.007 A 
ATOM     25  C   UNL d   1      51.428  33.557  53.183  0.00  0.00     0.019 A 
BRANCH  23  26
ATOM     26  C   UNL d   1      53.110  34.331  54.311  0.00  0.00     0.300 C 
ATOM     27  O   UNL d   1      53.121  34.997  54.784  0.00  0.00    -0.259 OA
BRANCH  26  28
ATOM     28  O   UNL d   1      53.666  33.750  54.426  0.00  0.00    -0.271 OA
BRANCH  28  29
ATOM     29  C   UNL d   1      54.157  33.777  55.074  0.00  0.00     0.126 C 
ATOM     30  C   UNL d   1      54.828  33.318  55.097  0.00  0.00     0.029 C 
ENDBRANCH  28  29
ENDBRANCH  26  28
ENDBRANCH  23  26
ENDBRANCH  18  20
ENDBRANCH  16  17
ENDBRANCH   6  16
TORSDOF 6
ENDMDL
MODEL 7
REMARK VINA RESULT:      -4.1      2.537      4.286
REMARK  6 active torsions:
REMARK  status: ('A' for Active; 'I' for Inactive)
REMARK    1  A    between atoms: C_8  and  C_6 
REMARK    2  A    between atoms: C_9  and  C_8 
REMARK       I    between atoms: N_11  and  C_9 
REMARK    3  A    between atoms: C_10  and  C_12 
REMARK    4  A    between atoms: O_20  and  C_10 
REMARK    5  A    between atoms: C_19  and  N_11 
REMARK    6  A    between atoms: C_29  and  O_20 
ROOT
ATOM      1  N   UNL d   1      46.978  36.461  54.638  0.00  0.00    -0.207 NA
ATOM      2  N   UNL d   1      46.722  35.573  53.238  0.00  0.00    -0.240 NA
ATOM      3  C   UNL d   1      47.482  36.206  54.053  0.00  0.00     0.297 A 
ATOM      4  C   UNL d   1      46.163  36.355  54.718  0.00  0.00     0.086 A 
ATOM      5  C   UNL d   1      45.951  35.593  53.515  0.00  0.00     0.083 A 
ATOM      6  C   UNL d   1      47.392  35.905  53.580  0.00  0.00     0.144 A 
ATOM      7  C   UNL d   1      45.649  35.947  54.201  0.00  0.00     0.035 A 
ATOM      8  O   UNL d   1      48.271  36.415  54.152  0.00  0.00    -0.264 OA
ATOM      9  C   UNL d   1      44.845  35.903  54.383  0.00  0.00     0.003 A 
ATOM     10  C   UNL d   1      45.442  35.190  53.005  0.00  0.00     0.019 A 
ATOM     11  C   UNL d   1      45.866  36.709  55.403  0.00  0.00     0.019 A 
ATOM     12  C   UNL d   1      44.624  35.141  53.183  0.00  0.00     0.002 A 
ATOM     13  C   UNL d   1      45.059  36.661  55.578  0.00  0.00     0.002 A 
ATOM     14  C   UNL d   1      44.330  35.496  53.867  0.00  0.00     0.000 A 
ATOM     15  C   UNL d   1      44.551  36.258  55.068  0.00  0.00     0.000 A 
ENDROOT
BRANCH   6  16
ATOM     16  C   UNL d   1      48.080  35.774  53.144  0.00  0.00     0.086 C 
BRANCH  16  17
ATOM     17  C   UNL d   1      48.081  35.935  52.327  0.00  0.00     0.281 C 
ATOM     18  N   UNL d   1      48.642  35.575  51.837  0.00  0.00    -0.208 NA
ATOM     19  O   UNL d   1      47.525  36.453  52.002  0.00  0.00    -0.265 OA
BRANCH  18  20
ATOM     20  C   UNL d   1      49.202  35.056  52.157  0.00  0.00     0.085 A 
ATOM     21  C   UNL d   1      49.172  34.258  51.964  0.00  0.00     0.019 A 
ATOM     22  C   UNL d   1      49.725  33.737  52.278  0.00  0.00     0.007 A 
ATOM     23  C   UNL d   1      50.313  34.019  52.792  0.00  0.00     0.064 A 
ATOM     24  C   UNL d   1      50.340  34.821  52.983  0.00  0.00     0.007 A 
ATOM     25  C   UNL d   1      49.784  35.340  52.665  0.00  0.00     0.019 A 
BRANCH  23  26
ATOM     26  C   UNL d   1      50.860  33.510  53.104  0.00  0.00     0.300 C 
ATOM     27  O   UNL d   1      50.632  32.769  53.360  0.00  0.00    -0.259 OA
BRANCH  26  28
ATOM     28  O   UNL d   1      51.639  33.732  53.164  0.00  0.00    -0.271 OA
BRANCH  28  29
ATOM     29  C   UNL d   1      52.207  33.181  53.351  0.00  0.00     0.126 C 
ATOM     30  C   UNL d   1      52.985  33.406  53.421  0.00  0.00     0.029 C 
ENDBRANCH  28  29
ENDBRANCH  26  28
ENDBRANCH  23  26
ENDBRANCH  18  20
ENDBRANCH  16  17
ENDBRANCH   6  16
TORSDOF 6
ENDMDL
