MODEL 1
REMARK VINA RESULT:      -6.7      0.000      0.000
REMARK  6 active torsions:
REMARK  status: ('A' for Active; 'I' for Inactive)
REMARK    1  A    between atoms: C_2  and  S_1 
REMARK    2  A    between atoms: N_8  and  S_1 
REMARK    3  A    between atoms: O_15  and  C_3 
REMARK    4  A    between atoms: C_14  and  N_8 
REMARK    5  A    between atoms: N_10  and  C_17 
REMARK    6  A    between atoms: C_17  and  C_14 
ROOT
ATOM      1  S   UNL d   1     -47.091  13.474  22.918  0.00  0.00     0.287 S 
ATOM      2  O   UNL d   1     -47.531  13.109  22.314  0.00  0.00    -0.198 OA
ATOM      3  O   UNL d   1     -46.654  13.832  23.517  0.00  0.00    -0.198 OA
ENDROOT
BRANCH   1   4
ATOM      4  C   UNL d   1     -46.726  12.755  23.081  0.00  0.00     0.128 A 
ATOM      5  C   UNL d   1     -45.957  12.605  22.807  0.00  0.00     0.118 A 
ATOM      6  C   UNL d   1     -45.591  11.886  22.970  0.00  0.00     0.091 A 
ATOM      7 CL   UNL d   1     -44.829  11.741  22.697  0.00  0.00    -0.079 Cl
ATOM      8  C   UNL d   1     -45.989  11.310  23.408  0.00  0.00     0.070 A 
ATOM      9  C   UNL d   1     -46.752  11.455  23.682  0.00  0.00     0.013 A 
ATOM     10 CL   UNL d   1     -45.624  10.591  23.572  0.00  0.00    -0.081 Cl
ATOM     11  C   UNL d   1     -47.124  12.180  23.519  0.00  0.00     0.016 A 
BRANCH   5  12
ATOM     12  O   UNL d   1     -45.559  13.180  22.369  0.00  0.00    -0.327 OA
ATOM     13  C   UNL d   1     -44.765  13.076  22.175  0.00  0.00     0.181 C 
ENDBRANCH   5  12
ENDBRANCH   1   4
BRANCH   1  14
ATOM     14  N   UNL d   1     -47.459  14.196  22.752  0.00  0.00    -0.155 NA
BRANCH  14  15
ATOM     15  C   UNL d   1     -48.281  14.252  22.763  0.00  0.00     0.131 C 
BRANCH  15  16
ATOM     16  C   UNL d   1     -48.648  14.942  22.505  0.00  0.00     0.102 C 
BRANCH  16  17
ATOM     17  N   UNL d   1     -49.440  15.078  22.688  0.00  0.00    -0.298 N 
ATOM     18  C   UNL d   1     -50.041  14.728  22.229  0.00  0.00     0.107 A 
ATOM     19  C   UNL d   1     -50.829  14.862  22.409  0.00  0.00     0.142 A 
ATOM     20  O   UNL d   1     -51.031  15.344  23.047  0.00  0.00    -0.300 OA
ATOM     21  C   UNL d   1     -50.433  15.692  23.504  0.00  0.00     0.142 A 
ATOM     22  C   UNL d   1     -49.635  15.560  23.326  0.00  0.00     0.107 A 
ENDBRANCH  16  17
ENDBRANCH  15  16
ENDBRANCH  14  15
ENDBRANCH   1  14
TORSDOF 6
ENDMDL
MODEL 2
REMARK VINA RESULT:      -5.9      2.313      4.541
REMARK  6 active torsions:
REMARK  status: ('A' for Active; 'I' for Inactive)
REMARK    1  A    between atoms: C_2  and  S_1 
REMARK    2  A    between atoms: N_8  and  S_1 
REMARK    3  A    between atoms: O_15  and  C_3 
REMARK    4  A    between atoms: C_14  and  N_8 
REMARK    5  A    between atoms: N_10  and  C_17 
REMARK    6  A    between atoms: C_17  and  C_14 
ROOT
ATOM      1  S   UNL d   1     -48.193  13.180  22.672  0.00  0.00     0.287 S 
ATOM      2  O   UNL d   1     -48.246  12.774  21.949  0.00  0.00    -0.198 OA
ATOM      3  O   UNL d   1     -48.143  13.581  23.389  0.00  0.00    -0.198 OA
ENDROOT
BRANCH   1   4
ATOM      4  C   UNL d   1     -48.908  12.848  22.906  0.00  0.00     0.128 A 
ATOM      5  C   UNL d   1     -49.624  13.230  22.728  0.00  0.00     0.118 A 
ATOM      6  C   UNL d   1     -50.340  12.899  22.963  0.00  0.00     0.091 A 
ATOM      7 CL   UNL d   1     -51.047  13.280  22.784  0.00  0.00    -0.079 Cl
ATOM      8  C   UNL d   1     -50.349  12.185  23.376  0.00  0.00     0.070 A 
ATOM      9  C   UNL d   1     -49.641  11.803  23.556  0.00  0.00     0.013 A 
ATOM     10 CL   UNL d   1     -51.064  11.853  23.612  0.00  0.00    -0.081 Cl
ATOM     11  C   UNL d   1     -48.917  12.135  23.320  0.00  0.00     0.016 A 
BRANCH   5  12
ATOM     12  O   UNL d   1     -49.615  13.944  22.314  0.00  0.00    -0.327 OA
ATOM     13  C   UNL d   1     -50.294  14.408  22.278  0.00  0.00     0.181 C 
ENDBRANCH   5  12
ENDBRANCH   1   4
BRANCH   1  14
ATOM     14  N   UNL d   1     -47.473  13.513  22.434  0.00  0.00    -0.155 NA
BRANCH  14  15
ATOM     15  C   UNL d   1     -46.777  13.077  22.500  0.00  0.00     0.131 C 
BRANCH  15  16
ATOM     16  C   UNL d   1     -46.050  13.464  22.494  0.00  0.00     0.102 C 
BRANCH  16  17
ATOM     17  N   UNL d   1     -45.360  13.037  22.355  0.00  0.00    -0.298 N 
ATOM     18  C   UNL d   1     -44.831  13.280  21.759  0.00  0.00     0.107 A 
ATOM     19  C   UNL d   1     -44.144  12.856  21.619  0.00  0.00     0.142 A 
ATOM     20  O   UNL d   1     -43.972  12.186  22.069  0.00  0.00    -0.300 OA
ATOM     21  C   UNL d   1     -44.498  11.945  22.663  0.00  0.00     0.142 A 
ATOM     22  C   UNL d   1     -45.194  12.370  22.807  0.00  0.00     0.107 A 
ENDBRANCH  16  17
ENDBRANCH  15  16
ENDBRANCH  14  15
ENDBRANCH   1  14
TORSDOF 6
ENDMDL
MODEL 3
REMARK VINA RESULT:      -5.8      2.341      4.757
REMARK  6 active torsions:
REMARK  status: ('A' for Active; 'I' for Inactive)
REMARK    1  A    between atoms: C_2  and  S_1 
REMARK    2  A    between atoms: N_8  and  S_1 
REMARK    3  A    between atoms: O_15  and  C_3 
REMARK    4  A    between atoms: C_14  and  N_8 
REMARK    5  A    between atoms: N_10  and  C_17 
REMARK    6  A    between atoms: C_17  and  C_14 
ROOT
ATOM      1  S   UNL d   1     -48.043  13.853  22.579  0.00  0.00     0.287 S 
ATOM      2  O   UNL d   1     -47.850  14.467  22.055  0.00  0.00    -0.198 OA
ATOM      3  O   UNL d   1     -48.238  13.244  23.098  0.00  0.00    -0.198 OA
ENDROOT
BRANCH   1   4
ATOM      4  C   UNL d   1     -48.794  13.809  22.246  0.00  0.00     0.128 A 
ATOM      5  C   UNL d   1     -49.397  14.316  22.507  0.00  0.00     0.118 A 
ATOM      6  C   UNL d   1     -50.149  14.273  22.174  0.00  0.00     0.091 A 
ATOM      7 CL   UNL d   1     -50.743  14.777  22.435  0.00  0.00    -0.079 Cl
ATOM      8  C   UNL d   1     -50.305  13.724  21.578  0.00  0.00     0.070 A 
ATOM      9  C   UNL d   1     -49.709  13.219  21.315  0.00  0.00     0.013 A 
ATOM     10 CL   UNL d   1     -51.056  13.680  21.243  0.00  0.00    -0.081 Cl
ATOM     11  C   UNL d   1     -48.950  13.260  21.650  0.00  0.00     0.016 A 
BRANCH   5  12
ATOM     12  O   UNL d   1     -49.241  14.865  23.103  0.00  0.00    -0.327 OA
ATOM     13  C   UNL d   1     -49.818  15.410  23.325  0.00  0.00     0.181 C 
ENDBRANCH   5  12
ENDBRANCH   1   4
BRANCH   1  14
ATOM     14  N   UNL d   1     -47.288  13.898  22.914  0.00  0.00    -0.155 NA
BRANCH  14  15
ATOM     15  C   UNL d   1     -46.677  13.432  22.616  0.00  0.00     0.131 C 
BRANCH  15  16
ATOM     16  C   UNL d   1     -45.904  13.561  22.867  0.00  0.00     0.102 C 
BRANCH  16  17
ATOM     17  N   UNL d   1     -45.297  13.078  22.589  0.00  0.00    -0.298 N 
ATOM     18  C   UNL d   1     -45.184  12.320  22.915  0.00  0.00     0.107 A 
ATOM     19  C   UNL d   1     -44.581  11.838  22.641  0.00  0.00     0.142 A 
ATOM     20  O   UNL d   1     -44.082  12.102  22.038  0.00  0.00    -0.300 OA
ATOM     21  C   UNL d   1     -44.194  12.856  21.714  0.00  0.00     0.142 A 
ATOM     22  C   UNL d   1     -44.802  13.347  21.988  0.00  0.00     0.107 A 
ENDBRANCH  16  17
ENDBRANCH  15  16
ENDBRANCH  14  15
ENDBRANCH   1  14
TORSDOF 6
ENDMDL
MODEL 4
REMARK VINA RESULT:      -5.4      2.565      4.998
REMARK  6 active torsions:
REMARK  status: ('A' for Active; 'I' for Inactive)
REMARK    1  A    between atoms: C_2  and  S_1 
REMARK    2  A    between atoms: N_8  and  S_1 
REMARK    3  A    between atoms: O_15  and  C_3 
REMARK    4  A    between atoms: C_14  and  N_8 
REMARK    5  A    between atoms: N_10  and  C_17 
REMARK    6  A    between atoms: C_17  and  C_14 
ROOT
ATOM      1  S   UNL d   1     -48.405  12.270  23.089  0.00  0.00     0.287 S 
ATOM      2  O   UNL d   1     -48.642  11.721  22.511  0.00  0.00    -0.198 OA
ATOM      3  O   UNL d   1     -48.172  12.815  23.660  0.00  0.00    -0.198 OA
ENDROOT
BRANCH   1   4
ATOM      4  C   UNL d   1     -48.891  12.837  22.745  0.00  0.00     0.128 A 
ATOM      5  C   UNL d   1     -49.670  12.939  23.015  0.00  0.00     0.118 A 
ATOM      6  C   UNL d   1     -50.157  13.507  22.671  0.00  0.00     0.091 A 
ATOM      7 CL   UNL d   1     -50.927  13.605  22.942  0.00  0.00    -0.079 Cl
ATOM      8  C   UNL d   1     -49.872  13.977  22.056  0.00  0.00     0.070 A 
ATOM      9  C   UNL d   1     -49.100  13.879  21.784  0.00  0.00     0.013 A 
ATOM     10 CL   UNL d   1     -50.358  14.545  21.711  0.00  0.00    -0.081 Cl
ATOM     11  C   UNL d   1     -48.606  13.307  22.130  0.00  0.00     0.016 A 
BRANCH   5  12
ATOM     12  O   UNL d   1     -49.954  12.469  23.631  0.00  0.00    -0.327 OA
ATOM     13  C   UNL d   1     -50.761  12.315  23.693  0.00  0.00     0.181 C 
ENDBRANCH   5  12
ENDBRANCH   1   4
BRANCH   1  14
ATOM     14  N   UNL d   1     -47.916  11.698  23.434  0.00  0.00    -0.155 NA
BRANCH  14  15
ATOM     15  C   UNL d   1     -47.114  11.676  23.248  0.00  0.00     0.131 C 
BRANCH  15  16
ATOM     16  C   UNL d   1     -46.615  11.158  23.649  0.00  0.00     0.102 C 
BRANCH  16  17
ATOM     17  N   UNL d   1     -45.806  11.163  23.491  0.00  0.00    -0.298 N 
ATOM     18  C   UNL d   1     -45.337  10.507  23.697  0.00  0.00     0.107 A 
ATOM     19  C   UNL d   1     -44.532  10.509  23.540  0.00  0.00     0.142 A 
ATOM     20  O   UNL d   1     -44.184  11.164  23.176  0.00  0.00    -0.300 OA
ATOM     21  C   UNL d   1     -44.651  11.817  22.971  0.00  0.00     0.142 A 
ATOM     22  C   UNL d   1     -45.464  11.818  23.128  0.00  0.00     0.107 A 
ENDBRANCH  16  17
ENDBRANCH  15  16
ENDBRANCH  14  15
ENDBRANCH   1  14
TORSDOF 6
ENDMDL
MODEL 5
REMARK VINA RESULT:      -5.2      8.554      9.582
REMARK  6 active torsions:
REMARK  status: ('A' for Active; 'I' for Inactive)
REMARK    1  A    between atoms: C_2  and  S_1 
REMARK    2  A    between atoms: N_8  and  S_1 
REMARK    3  A    between atoms: O_15  and  C_3 
REMARK    4  A    between atoms: C_14  and  N_8 
REMARK    5  A    between atoms: N_10  and  C_17 
REMARK    6  A    between atoms: C_17  and  C_14 
ROOT
ATOM      1  S   UNL d   1     -39.932  14.439  18.918  0.00  0.00     0.287 S 
ATOM      2  O   UNL d   1     -40.442  13.797  18.783  0.00  0.00    -0.198 OA
ATOM      3  O   UNL d   1     -39.425  15.075  19.048  0.00  0.00    -0.198 OA
ENDROOT
BRANCH   1   4
ATOM      4  C   UNL d   1     -39.621  14.346  18.162  0.00  0.00     0.128 A 
ATOM      5  C   UNL d   1     -39.898  14.817  17.536  0.00  0.00     0.118 A 
ATOM      6  C   UNL d   1     -39.587  14.724  16.779  0.00  0.00     0.091 A 
ATOM      7 CL   UNL d   1     -39.864  15.192  16.161  0.00  0.00    -0.079 Cl
ATOM      8  C   UNL d   1     -39.000  14.162  16.640  0.00  0.00     0.070 A 
ATOM      9  C   UNL d   1     -38.722  13.693  17.258  0.00  0.00     0.013 A 
ATOM     10 CL   UNL d   1     -38.688  14.068  15.883  0.00  0.00    -0.081 Cl
ATOM     11  C   UNL d   1     -39.034  13.784  18.023  0.00  0.00     0.016 A 
BRANCH   5  12
ATOM     12  O   UNL d   1     -40.486  15.379  17.675  0.00  0.00    -0.327 OA
ATOM     13  C   UNL d   1     -40.958  15.645  17.054  0.00  0.00     0.181 C 
ENDBRANCH   5  12
ENDBRANCH   1   4
BRANCH   1  14
ATOM     14  N   UNL d   1     -40.245  14.532  19.678  0.00  0.00    -0.155 NA
BRANCH  14  15
ATOM     15  C   UNL d   1     -39.764  14.420  20.338  0.00  0.00     0.131 C 
BRANCH  15  16
ATOM     16  C   UNL d   1     -40.094  14.438  21.092  0.00  0.00     0.102 C 
BRANCH  16  17
ATOM     17  N   UNL d   1     -39.605  14.392  21.753  0.00  0.00    -0.298 N 
ATOM     18  C   UNL d   1     -39.347  15.088  22.131  0.00  0.00     0.107 A 
ATOM     19  C   UNL d   1     -38.860  15.045  22.789  0.00  0.00     0.142 A 
ATOM     20  O   UNL d   1     -38.625  14.310  23.081  0.00  0.00    -0.300 OA
ATOM     21  C   UNL d   1     -38.882  13.617  22.705  0.00  0.00     0.142 A 
ATOM     22  C   UNL d   1     -39.373  13.656  22.040  0.00  0.00     0.107 A 
ENDBRANCH  16  17
ENDBRANCH  15  16
ENDBRANCH  14  15
ENDBRANCH   1  14
TORSDOF 6
ENDMDL
MODEL 6
REMARK VINA RESULT:      -4.7      8.736      9.183
REMARK  6 active torsions:
REMARK  status: ('A' for Active; 'I' for Inactive)
REMARK    1  A    between atoms: C_2  and  S_1 
REMARK    2  A    between atoms: N_8  and  S_1 
REMARK    3  A    between atoms: O_15  and  C_3 
REMARK    4  A    between atoms: C_14  and  N_8 
REMARK    5  A    between atoms: N_10  and  C_17 
REMARK    6  A    between atoms: C_17  and  C_14 
ROOT
ATOM      1  S   UNL d   1     -39.256  15.133  20.898  0.00  0.00     0.287 S 
ATOM      2  O   UNL d   1     -38.485  15.417  20.776  0.00  0.00    -0.198 OA
ATOM      3  O   UNL d   1     -40.019  14.849  21.021  0.00  0.00    -0.198 OA
ENDROOT
BRANCH   1   4
ATOM      4  C   UNL d   1     -38.972  14.618  21.472  0.00  0.00     0.128 A 
ATOM      5  C   UNL d   1     -38.902  14.868  22.261  0.00  0.00     0.118 A 
ATOM      6  C   UNL d   1     -38.617  14.352  22.836  0.00  0.00     0.091 A 
ATOM      7 CL   UNL d   1     -38.550  14.604  23.616  0.00  0.00    -0.079 Cl
ATOM      8  C   UNL d   1     -38.399  13.584  22.630  0.00  0.00     0.070 A 
ATOM      9  C   UNL d   1     -38.467  13.331  21.849  0.00  0.00     0.013 A 
ATOM     10 CL   UNL d   1     -38.114  13.067  23.204  0.00  0.00    -0.081 Cl
ATOM     11  C   UNL d   1     -38.754  13.849  21.266  0.00  0.00     0.016 A 
BRANCH   5  12
ATOM     12  O   UNL d   1     -39.120  15.637  22.467  0.00  0.00    -0.327 OA
ATOM     13  C   UNL d   1     -39.004  15.907  23.237  0.00  0.00     0.181 C 
ENDBRANCH   5  12
ENDBRANCH   1   4
BRANCH   1  14
ATOM     14  N   UNL d   1     -39.541  15.652  20.320  0.00  0.00    -0.155 NA
BRANCH  14  15
ATOM     15  C   UNL d   1     -39.628  15.395  19.542  0.00  0.00     0.131 C 
BRANCH  15  16
ATOM     16  C   UNL d   1     -39.883  15.921  18.963  0.00  0.00     0.102 C 
BRANCH  16  17
ATOM     17  N   UNL d   1     -39.981  15.661  18.187  0.00  0.00    -0.298 N 
ATOM     18  C   UNL d   1     -40.736  15.438  17.914  0.00  0.00     0.107 A 
ATOM     19  C   UNL d   1     -40.837  15.179  17.143  0.00  0.00     0.142 A 
ATOM     20  O   UNL d   1     -40.189  15.137  16.634  0.00  0.00    -0.300 OA
ATOM     21  C   UNL d   1     -39.437  15.358  16.905  0.00  0.00     0.142 A 
ATOM     22  C   UNL d   1     -39.332  15.621  17.684  0.00  0.00     0.107 A 
ENDBRANCH  16  17
ENDBRANCH  15  16
ENDBRANCH  14  15
ENDBRANCH   1  14
TORSDOF 6
ENDMDL
MODEL 7
REMARK VINA RESULT:      -4.1      7.570      9.945
REMARK  6 active torsions:
REMARK  status: ('A' for Active; 'I' for Inactive)
REMARK    1  A    between atoms: C_2  and  S_1 
REMARK    2  A    between atoms: N_8  and  S_1 
REMARK    3  A    between atoms: O_15  and  C_3 
REMARK    4  A    between atoms: C_14  and  N_8 
REMARK    5  A    between atoms: N_10  and  C_17 
REMARK    6  A    between atoms: C_17  and  C_14 
ROOT
ATOM      1  S   UNL d   1     -39.868  15.208  19.176  0.00  0.00     0.287 S 
ATOM      2  O   UNL d   1     -40.293  15.922  19.172  0.00  0.00    -0.198 OA
ATOM      3  O   UNL d   1     -39.446  14.501  19.183  0.00  0.00    -0.198 OA
ENDROOT
BRANCH   1   4
ATOM      4  C   UNL d   1     -39.660  15.340  19.961  0.00  0.00     0.128 A 
ATOM      5  C   UNL d   1     -40.123  15.026  20.575  0.00  0.00     0.118 A 
ATOM      6  C   UNL d   1     -39.915  15.159  21.360  0.00  0.00     0.091 A 
ATOM      7 CL   UNL d   1     -40.376  14.846  21.965  0.00  0.00    -0.079 Cl
ATOM      8  C   UNL d   1     -39.245  15.605  21.540  0.00  0.00     0.070 A 
ATOM      9  C   UNL d   1     -38.782  15.918  20.935  0.00  0.00     0.013 A 
ATOM     10 CL   UNL d   1     -39.036  15.738  22.325  0.00  0.00    -0.081 Cl
ATOM     11  C   UNL d   1     -38.990  15.786  20.141  0.00  0.00     0.016 A 
BRANCH   5  12
ATOM     12  O   UNL d   1     -40.793  14.580  20.395  0.00  0.00    -0.327 OA
ATOM     13  C   UNL d   1     -41.201  14.188  20.994  0.00  0.00     0.181 C 
ENDBRANCH   5  12
ENDBRANCH   1   4
BRANCH   1  14
ATOM     14  N   UNL d   1     -40.078  15.076  18.387  0.00  0.00    -0.155 NA
BRANCH  14  15
ATOM     15  C   UNL d   1     -39.493  15.008  17.811  0.00  0.00     0.131 C 
BRANCH  15  16
ATOM     16  C   UNL d   1     -39.701  15.010  17.014  0.00  0.00     0.102 C 
BRANCH  16  17
ATOM     17  N   UNL d   1     -39.115  14.947  16.438  0.00  0.00    -0.298 N 
ATOM     18  C   UNL d   1     -38.746  14.213  16.297  0.00  0.00     0.107 A 
ATOM     19  C   UNL d   1     -38.163  14.148  15.725  0.00  0.00     0.142 A 
ATOM     20  O   UNL d   1     -37.940  14.810  15.285  0.00  0.00    -0.300 OA
ATOM     21  C   UNL d   1     -38.307  15.540  15.425  0.00  0.00     0.142 A 
ATOM     22  C   UNL d   1     -38.896  15.610  16.003  0.00  0.00     0.107 A 
ENDBRANCH  16  17
ENDBRANCH  15  16
ENDBRANCH  14  15
ENDBRANCH   1  14
TORSDOF 6
ENDMDL
