MODEL 1
REMARK VINA RESULT:      73.8      0.000      0.000
REMARK  5 active torsions:
REMARK  status: ('A' for Active; 'I' for Inactive)
REMARK    1  A    between atoms: C_10  and  N_3 
REMARK    2  A    between atoms: C_12  and  N_6 
REMARK    3  A    between atoms: C_11  and  C_10 
REMARK    4  A    between atoms: O_18  and  C_11 
REMARK    5  A    between atoms: C_23  and  O_18 
ROOT
ATOM      1  C   UNL d   1      60.829  47.708  50.423  0.00  0.00     0.172 A 
ATOM      2  C   UNL d   1      61.058  48.435  50.739  0.00  0.00     0.113 A 
ATOM      3  N   UNL d   1      59.688  48.802  50.890  0.00  0.00    -0.252 N 
ATOM      4  C   UNL d   1      60.492  48.981  50.971  0.00  0.00     0.271 A 
ATOM      5  N   UNL d   1      60.033  47.527  50.341  0.00  0.00    -0.206 NA
ATOM      6  N   UNL d   1      61.520  47.286  50.245  0.00  0.00    -0.212 N 
ATOM      7  N   UNL d   1      62.159  47.755  50.450  0.00  0.00    -0.162 NA
ATOM      8  C   UNL d   1      59.458  48.075  50.575  0.00  0.00     0.187 A 
ATOM      9  C   UNL d   1      61.888  48.449  50.749  0.00  0.00     0.129 A 
ATOM     10  O   UNL d   1      60.721  49.708  51.287  0.00  0.00    -0.266 OA
ENDROOT
BRANCH   3  11
ATOM     11  C   UNL d   1      59.105  49.352  51.125  0.00  0.00     0.132 C 
ATOM     12  C   UNL d   1      59.130  49.673  51.885  0.00  0.00     0.025 C 
BRANCH  11  13
ATOM     13  C   UNL d   1      58.505  49.574  50.595  0.00  0.00     0.317 C 
ATOM     14  O   UNL d   1      58.675  49.659  49.800  0.00  0.00    -0.257 OA
BRANCH  13  15
ATOM     15  O   UNL d   1      57.743  49.705  50.884  0.00  0.00    -0.270 OA
BRANCH  15  16
ATOM     16  C   UNL d   1      57.103  49.314  50.525  0.00  0.00     0.126 C 
ATOM     17  C   UNL d   1      56.343  49.531  50.735  0.00  0.00     0.029 C 
ENDBRANCH  15  16
ENDBRANCH  13  15
ENDBRANCH  11  13
ENDBRANCH   3  11
BRANCH   6  18
ATOM     18  C   UNL d   1      61.595  46.542  49.923  0.00  0.00     0.085 A 
ATOM     19  C   UNL d   1      61.192  45.904  50.261  0.00  0.00     0.020 A 
ATOM     20  C   UNL d   1      61.269  45.153  49.934  0.00  0.00     0.013 A 
ATOM     21  C   UNL d   1      61.736  45.022  49.282  0.00  0.00     0.058 A 
ATOM     22  C   UNL d   1      62.147  45.671  48.937  0.00  0.00     0.013 A 
ATOM     23 CL   UNL d   1      61.802  44.249  48.963  0.00  0.00    -0.082 Cl
ATOM     24  C   UNL d   1      62.077  46.422  49.254  0.00  0.00     0.020 A 
ENDBRANCH   6  18
TORSDOF 5
ENDMDL
MODEL 2
REMARK VINA RESULT:      73.8      2.182      4.449
REMARK  5 active torsions:
REMARK  status: ('A' for Active; 'I' for Inactive)
REMARK    1  A    between atoms: C_10  and  N_3 
REMARK    2  A    between atoms: C_12  and  N_6 
REMARK    3  A    between atoms: C_11  and  C_10 
REMARK    4  A    between atoms: O_18  and  C_11 
REMARK    5  A    between atoms: C_23  and  O_18 
ROOT
ATOM      1  C   UNL d   1      59.843  48.411  50.615  0.00  0.00     0.172 A 
ATOM      2  C   UNL d   1      60.633  48.567  50.797  0.00  0.00     0.113 A 
ATOM      3  N   UNL d   1      60.951  47.191  50.589  0.00  0.00    -0.252 N 
ATOM      4  C   UNL d   1      61.185  47.961  50.785  0.00  0.00     0.271 A 
ATOM      5  N   UNL d   1      59.606  47.650  50.420  0.00  0.00    -0.206 NA
ATOM      6  N   UNL d   1      59.429  49.128  50.675  0.00  0.00    -0.212 N 
ATOM      7  N   UNL d   1      59.964  49.708  50.891  0.00  0.00    -0.162 NA
ATOM      8  C   UNL d   1      60.162  47.036  50.407  0.00  0.00     0.187 A 
ATOM      9  C   UNL d   1      60.692  49.377  50.967  0.00  0.00     0.129 A 
ATOM     10  O   UNL d   1      61.975  48.116  50.967  0.00  0.00    -0.266 OA
ENDROOT
BRANCH   3  11
ATOM     11  C   UNL d   1      61.507  46.569  50.575  0.00  0.00     0.132 C 
ATOM     12  C   UNL d   1      61.913  46.369  51.265  0.00  0.00     0.025 C 
BRANCH  11  13
ATOM     13  C   UNL d   1      61.651  46.155  49.869  0.00  0.00     0.317 C 
ATOM     14  O   UNL d   1      62.241  46.407  49.363  0.00  0.00    -0.257 OA
BRANCH  13  15
ATOM     15  O   UNL d   1      61.190  45.494  49.692  0.00  0.00    -0.270 OA
BRANCH  15  16
ATOM     16  C   UNL d   1      61.531  44.868  49.265  0.00  0.00     0.126 C 
ATOM     17  C   UNL d   1      61.042  44.377  48.829  0.00  0.00     0.029 C 
ENDBRANCH  15  16
ENDBRANCH  13  15
ENDBRANCH  11  13
ENDBRANCH   3  11
BRANCH   6  18
ATOM     18  C   UNL d   1      58.637  49.271  50.551  0.00  0.00     0.085 A 
ATOM     19  C   UNL d   1      58.111  49.264  51.188  0.00  0.00     0.020 A 
ATOM     20  C   UNL d   1      57.311  49.409  51.059  0.00  0.00     0.013 A 
ATOM     21  C   UNL d   1      57.025  49.561  50.314  0.00  0.00     0.058 A 
ATOM     22  C   UNL d   1      57.560  49.570  49.664  0.00  0.00     0.013 A 
ATOM     23 CL   UNL d   1      56.206  49.707  50.203  0.00  0.00    -0.082 Cl
ATOM     24  C   UNL d   1      58.356  49.427  49.782  0.00  0.00     0.020 A 
ENDBRANCH   6  18
TORSDOF 5
ENDMDL
