MODEL 1
REMARK VINA RESULT:      86.9      0.000      0.000
REMARK  4 active torsions:
REMARK  status: ('A' for Active; 'I' for Inactive)
REMARK    1  A    between atoms: C_8  and  C_6 
REMARK    2  A    between atoms: C_9  and  C_8 
REMARK       I    between atoms: N_11  and  C_9 
REMARK       I    between atoms: C_10  and  N_12 
REMARK    3  A    between atoms: C_17  and  N_11 
REMARK    4  A    between atoms: N_12  and  C_18 
ROOT
ATOM      1  N   UNL d   1      61.856  47.312  49.540  0.00  0.00    -0.207 NA
ATOM      2  N   UNL d   1      60.663  46.980  50.672  0.00  0.00    -0.240 NA
ATOM      3  C   UNL d   1      61.319  47.788  49.924  0.00  0.00     0.297 A 
ATOM      4  C   UNL d   1      61.976  46.498  49.597  0.00  0.00     0.086 A 
ATOM      5  C   UNL d   1      60.951  46.219  50.568  0.00  0.00     0.083 A 
ATOM      6  C   UNL d   1      60.916  47.672  50.307  0.00  0.00     0.144 A 
ATOM      7  C   UNL d   1      61.562  45.954  50.075  0.00  0.00     0.035 A 
ATOM      8  O   UNL d   1      61.354  48.587  49.732  0.00  0.00    -0.264 OA
ATOM      9  C   UNL d   1      61.769  45.154  50.051  0.00  0.00     0.003 A 
ATOM     10  C   UNL d   1      60.542  45.681  51.042  0.00  0.00     0.019 A 
ATOM     11  C   UNL d   1      62.586  46.236  49.105  0.00  0.00     0.019 A 
ATOM     12  C   UNL d   1      60.747  44.868  51.022  0.00  0.00     0.002 A 
ATOM     13  C   UNL d   1      62.787  45.435  49.086  0.00  0.00     0.002 A 
ATOM     14  C   UNL d   1      62.379  44.896  49.559  0.00  0.00     0.000 A 
ATOM     15  C   UNL d   1      61.356  44.609  50.530  0.00  0.00     0.000 A 
ENDROOT
BRANCH   6  16
ATOM     16  C   UNL d   1      60.496  48.339  50.547  0.00  0.00     0.086 C 
BRANCH  16  17
ATOM     17  C   UNL d   1      60.906  48.977  50.893  0.00  0.00     0.281 C 
ATOM     18  N   UNL d   1      60.486  49.627  51.186  0.00  0.00    -0.208 NA
ATOM     19  O   UNL d   1      61.730  48.963  50.945  0.00  0.00    -0.265 OA
BRANCH  18  20
ATOM     20  C   UNL d   1      59.661  49.645  51.136  0.00  0.00     0.085 A 
ATOM     21  C   UNL d   1      59.300  49.687  50.399  0.00  0.00     0.021 A 
ATOM     22  C   UNL d   1      58.479  49.706  50.342  0.00  0.00     0.021 A 
ATOM     23  C   UNL d   1      58.017  49.682  51.032  0.00  0.00     0.085 A 
ATOM     24  C   UNL d   1      58.384  49.640  51.770  0.00  0.00     0.021 A 
ATOM     25  C   UNL d   1      59.205  49.622  51.822  0.00  0.00     0.021 A 
BRANCH  23  26
ATOM     26  N   UNL d   1      57.210  49.700  50.980  0.00  0.00    -0.208 NA
ATOM     27  C   UNL d   1      56.848  49.642  50.252  0.00  0.00     0.279 C 
ATOM     28  O   UNL d   1      57.292  49.566  49.579  0.00  0.00    -0.265 OA
ATOM     29  C   UNL d   1      56.033  49.660  50.198  0.00  0.00     0.068 C 
ENDBRANCH  23  26
ENDBRANCH  18  20
ENDBRANCH  16  17
ENDBRANCH   6  16
TORSDOF 4
ENDMDL
