MODEL 1
REMARK VINA RESULT:      26.9      0.000      0.000
REMARK  3 active torsions:
REMARK  status: ('A' for Active; 'I' for Inactive)
REMARK    1  A    between atoms: C_7  and  C_1 
REMARK    2  A    between atoms: C_10  and  C_7 
REMARK    3  A    between atoms: N_8  and  C_9 
ROOT
ATOM      1  C   UNL d   1      44.261 -13.030  43.685  0.00  0.00     0.129 A 
ATOM      2  C   UNL d   1      44.975 -13.273  44.016  0.00  0.00     0.024 A 
ATOM      3  C   UNL d   1      44.257 -12.629  42.970  0.00  0.00     0.050 A 
ATOM      4  C   UNL d   1      44.966 -12.466  42.577  0.00  0.00     0.121 A 
ATOM      5  C   UNL d   1      45.683 -12.706  42.903  0.00  0.00     0.119 A 
ATOM      6  C   UNL d   1      45.688 -13.114  43.629  0.00  0.00     0.028 A 
ATOM      7  O   UNL d   1      45.131 -12.080  41.865  0.00  0.00    -0.299 OA
ATOM      8  O   UNL d   1      46.287 -12.474  42.402  0.00  0.00    -0.300 OA
ATOM      9  C   UNL d   1      45.948 -12.086  41.757  0.00  0.00     0.304 A 
ENDROOT
BRANCH   2  10
ATOM     10  C   UNL d   1      44.974 -13.674  44.731  0.00  0.00     0.011 C 
BRANCH  10  11
ATOM     11  C   UNL d   1      45.353 -14.414  44.787  0.00  0.00     0.116 A 
ATOM     12  C   UNL d   1      44.908 -15.110  44.733  0.00  0.00     0.288 A 
ATOM     13  N   UNL d   1      45.277 -15.839  44.788  0.00  0.00    -0.152 NA
ATOM     14  O   UNL d   1      44.086 -15.065  44.622  0.00  0.00    -0.265 OA
ATOM     15  C   UNL d   1      46.089 -15.877  44.897  0.00  0.00     0.374 A 
ATOM     16  N   UNL d   1      46.533 -15.180  44.951  0.00  0.00    -0.152 NA
ATOM     17  O   UNL d   1      46.469 -16.612  44.953  0.00  0.00    -0.242 OA
ATOM     18  C   UNL d   1      46.163 -14.451  44.896  0.00  0.00     0.288 A 
ATOM     19  O   UNL d   1      46.606 -13.758  44.950  0.00  0.00    -0.265 OA
ENDBRANCH  10  11
ENDBRANCH   2  10
BRANCH   1  20
ATOM     20  N   UNL d   1      43.556 -13.190  44.071  0.00  0.00    -0.114 N 
ATOM     21  O   UNL d   1      42.953 -13.598  43.681  0.00  0.00    -0.532 OA
ATOM     22  O   UNL d   1      43.447 -12.945  44.846  0.00  0.00    -0.532 OA
ENDBRANCH   1  20
TORSDOF 3
ENDMDL
