MODEL 1
REMARK VINA RESULT:      96.6      0.000      0.000
REMARK  2 active torsions:
REMARK  status: ('A' for Active; 'I' for Inactive)
REMARK    1  A    between atoms: C_3  and  N_1 
REMARK    2  A    between atoms: C_12  and  C_9 
ROOT
ATOM      1  C   UNL d   1     -55.123-101.395 -43.200  0.00  0.00     0.187 A 
ATOM      2  N   UNL d   1     -55.316-102.187 -43.036  0.00  0.00    -0.129 NA
ATOM      3  N   UNL d   1     -55.400-102.434 -42.254  0.00  0.00    -0.147 NA
ATOM      4  C   UNL d   1     -55.016-100.861 -42.585  0.00  0.00     0.039 A 
ATOM      5  C   UNL d   1     -55.290-101.890 -41.635  0.00  0.00     0.103 A 
ATOM      6  C   UNL d   1     -55.099-101.108 -41.803  0.00  0.00     0.022 A 
ATOM      7  C   UNL d   1     -54.824-100.074 -42.751  0.00  0.00     0.003 A 
ATOM      8  C   UNL d   1     -54.990-100.569 -41.185  0.00  0.00     0.002 A 
ATOM      9  C   UNL d   1     -54.800 -99.788 -41.354  0.00  0.00     0.000 A 
ATOM     10  C   UNL d   1     -54.716 -99.541 -42.136  0.00  0.00     0.000 A 
ENDROOT
BRANCH   1  11
ATOM     11  N   UNL d   1     -55.040-101.148 -43.983  0.00  0.00    -0.191 N 
ATOM     12  N   UNL d   1     -54.843-100.420 -44.342  0.00  0.00    -0.058 NA
ATOM     13  N   UNL d   1     -54.843-100.498 -45.152  0.00  0.00    -0.129 NA
ATOM     14  C   UNL d   1     -55.042-101.283 -45.330  0.00  0.00     0.122 A 
ATOM     15  C   UNL d   1     -55.164-101.689 -44.602  0.00  0.00     0.105 A 
ATOM     16  C   UNL d   1     -55.127-101.683 -46.046  0.00  0.00     0.022 A 
ATOM     17  C   UNL d   1     -55.370-102.486 -44.615  0.00  0.00     0.021 A 
ATOM     18  C   UNL d   1     -55.453-102.879 -45.365  0.00  0.00     0.002 A 
ATOM     19  C   UNL d   1     -55.326-102.453 -46.050  0.00  0.00     0.002 A 
ENDBRANCH   1  11
BRANCH   5  20
ATOM     20  C   UNL d   1     -55.373-102.137 -40.852  0.00  0.00     0.020 A 
ATOM     21  C   UNL d   1     -54.746-102.031 -40.317  0.00  0.00     0.004 A 
ATOM     22  C   UNL d   1     -54.829-102.278 -39.535  0.00  0.00     0.030 A 
ATOM     23  C   UNL d   1     -55.540-102.632 -39.287  0.00  0.00     0.140 A 
ATOM     24  C   UNL d   1     -56.157-102.735 -39.820  0.00  0.00     0.030 A 
ATOM     25  F   UNL d   1     -55.623-102.879 -38.504  0.00  0.00    -0.204 F 
ATOM     26  C   UNL d   1     -56.073-102.488 -40.603  0.00  0.00     0.004 A 
ENDBRANCH   5  20
TORSDOF 2
ENDMDL
MODEL 2
REMARK VINA RESULT:      99.1      1.087      1.446
REMARK  2 active torsions:
REMARK  status: ('A' for Active; 'I' for Inactive)
REMARK    1  A    between atoms: C_3  and  N_1 
REMARK    2  A    between atoms: C_12  and  C_9 
ROOT
ATOM      1  C   UNL d   1     -55.042-101.388 -42.761  0.00  0.00     0.187 A 
ATOM      2  N   UNL d   1     -55.083-102.176 -42.499  0.00  0.00    -0.129 NA
ATOM      3  N   UNL d   1     -55.029-102.342 -41.693  0.00  0.00    -0.147 NA
ATOM      4  C   UNL d   1     -54.947-100.777 -42.219  0.00  0.00     0.039 A 
ATOM      5  C   UNL d   1     -54.934-101.721 -41.148  0.00  0.00     0.103 A 
ATOM      6  C   UNL d   1     -54.893-100.944 -41.413  0.00  0.00     0.022 A 
ATOM      7  C   UNL d   1     -54.906 -99.995 -42.482  0.00  0.00     0.003 A 
ATOM      8  C   UNL d   1     -54.798-100.328 -40.870  0.00  0.00     0.002 A 
ATOM      9  C   UNL d   1     -54.758 -99.552 -41.135  0.00  0.00     0.000 A 
ATOM     10  C   UNL d   1     -54.812 -99.385 -41.941  0.00  0.00     0.000 A 
ENDROOT
BRANCH   1  11
ATOM     11  N   UNL d   1     -55.095-101.222 -43.567  0.00  0.00    -0.191 N 
ATOM     12  N   UNL d   1     -54.732-101.539 -44.249  0.00  0.00    -0.058 NA
ATOM     13  N   UNL d   1     -54.999-101.153 -44.914  0.00  0.00    -0.129 NA
ATOM     14  C   UNL d   1     -55.543-100.576 -44.671  0.00  0.00     0.122 A 
ATOM     15  C   UNL d   1     -55.603-100.619 -43.831  0.00  0.00     0.105 A 
ATOM     16  C   UNL d   1     -55.987-100.024 -45.090  0.00  0.00     0.022 A 
ATOM     17  C   UNL d   1     -56.110-100.103 -43.438  0.00  0.00     0.021 A 
ATOM     18  C   UNL d   1     -56.560 -99.540 -43.890  0.00  0.00     0.002 A 
ATOM     19  C   UNL d   1     -56.475 -99.529 -44.702  0.00  0.00     0.002 A 
ENDBRANCH   1  11
BRANCH   5  20
ATOM     20  C   UNL d   1     -54.880-101.887 -40.342  0.00  0.00     0.020 A 
ATOM     21  C   UNL d   1     -54.840-101.263 -39.794  0.00  0.00     0.004 A 
ATOM     22  C   UNL d   1     -54.786-101.430 -38.988  0.00  0.00     0.030 A 
ATOM     23  C   UNL d   1     -54.772-102.220 -38.729  0.00  0.00     0.140 A 
ATOM     24  C   UNL d   1     -54.812-102.833 -39.276  0.00  0.00     0.030 A 
ATOM     25  F   UNL d   1     -54.718-102.386 -37.923  0.00  0.00    -0.204 F 
ATOM     26  C   UNL d   1     -54.866-102.667 -40.082  0.00  0.00     0.004 A 
ENDBRANCH   5  20
TORSDOF 2
ENDMDL
