MODEL 1
REMARK VINA RESULT:      -5.6      0.000      0.000
REMARK  1 active torsions:
REMARK  status: ('A' for Active; 'I' for Inactive)
REMARK    1  A    between atoms: C_10  and  C_7 
ROOT
ATOM      1  N   UNL d   1      58.213  -0.419  30.118  0.00  0.00    -0.259 N 
ATOM      2  C   UNL d   1      58.197   0.420  30.119  0.00  0.00     0.202 A 
ATOM      3  C   UNL d   1      58.714  -0.640  29.526  0.00  0.00     0.227 A 
ATOM      4  C   UNL d   1      57.738  -0.662  30.689  0.00  0.00     0.091 A 
ATOM      5  S   UNL d   1      57.706   0.668  30.698  0.00  0.00    -0.047 SA
ATOM      6  N   UNL d   1      58.692   0.681  29.525  0.00  0.00    -0.121 NA
ATOM      7  C   UNL d   1      57.421  -0.012  31.053  0.00  0.00     0.050 A 
ATOM      8  N   UNL d   1      59.015   0.003  29.154  0.00  0.00    -0.116 NA
ATOM      9  S   UNL d   1      58.889  -1.466  29.335  0.00  0.00    -0.036 SA
ENDROOT
BRANCH   7  10
ATOM     10  C   UNL d   1      56.905  -0.086  31.668  0.00  0.00     0.007 A 
ATOM     11  C   UNL d   1      56.649   0.603  32.049  0.00  0.00     0.001 A 
ATOM     12  C   UNL d   1      56.122   0.566  32.682  0.00  0.00     0.000 A 
ATOM     13  C   UNL d   1      55.859  -0.202  32.920  0.00  0.00     0.000 A 
ATOM     14  C   UNL d   1      56.109  -0.888  32.547  0.00  0.00     0.000 A 
ATOM     15  C   UNL d   1      55.294  -0.337  33.589  0.00  0.00     0.000 C 
ATOM     16  C   UNL d   1      56.637  -0.835  31.915  0.00  0.00     0.001 A 
ENDBRANCH   7  10
TORSDOF 1
ENDMDL
MODEL 2
REMARK VINA RESULT:      -5.6      1.208      2.045
REMARK  1 active torsions:
REMARK  status: ('A' for Active; 'I' for Inactive)
REMARK    1  A    between atoms: C_10  and  C_7 
ROOT
ATOM      1  N   UNL d   1      57.320  -0.115  31.417  0.00  0.00    -0.259 N 
ATOM      2  C   UNL d   1      57.067  -0.913  31.473  0.00  0.00     0.202 A 
ATOM      3  C   UNL d   1      57.751  -0.056  30.737  0.00  0.00     0.227 A 
ATOM      4  C   UNL d   1      57.042   0.262  32.042  0.00  0.00     0.091 A 
ATOM      5  S   UNL d   1      56.637  -1.002  32.139  0.00  0.00    -0.047 SA
ATOM      6  N   UNL d   1      57.355  -1.314  30.822  0.00  0.00    -0.121 NA
ATOM      7  C   UNL d   1      56.623  -0.265  32.493  0.00  0.00     0.050 A 
ATOM      8  N   UNL d   1      57.787  -0.762  30.361  0.00  0.00    -0.116 NA
ATOM      9  S   UNL d   1      58.117   0.682  30.469  0.00  0.00    -0.036 SA
ENDROOT
BRANCH   7  10
ATOM     10  C   UNL d   1      56.266  -0.037  33.180  0.00  0.00     0.007 A 
ATOM     11  C   UNL d   1      55.456  -0.180  33.265  0.00  0.00     0.001 A 
ATOM     12  C   UNL d   1      55.057   0.039  33.953  0.00  0.00     0.000 A 
ATOM     13  C   UNL d   1      55.512   0.413  34.559  0.00  0.00     0.000 A 
ATOM     14  C   UNL d   1      56.316   0.558  34.481  0.00  0.00     0.000 A 
ATOM     15  C   UNL d   1      55.169   0.682  35.330  0.00  0.00     0.000 C 
ATOM     16  C   UNL d   1      56.701   0.333  33.787  0.00  0.00     0.001 A 
ENDBRANCH   7  10
TORSDOF 1
ENDMDL
MODEL 3
REMARK VINA RESULT:      -4.7      2.208      3.829
REMARK  1 active torsions:
REMARK  status: ('A' for Active; 'I' for Inactive)
REMARK    1  A    between atoms: C_10  and  C_7 
ROOT
ATOM      1  N   UNL d   1      55.981  -0.138  32.831  0.00  0.00    -0.259 N 
ATOM      2  C   UNL d   1      56.078  -0.957  32.672  0.00  0.00     0.202 A 
ATOM      3  C   UNL d   1      55.410  -0.079  33.398  0.00  0.00     0.227 A 
ATOM      4  C   UNL d   1      56.479   0.249  32.369  0.00  0.00     0.091 A 
ATOM      5  S   UNL d   1      56.640  -1.047  32.112  0.00  0.00    -0.047 SA
ATOM      6  N   UNL d   1      55.560  -1.368  33.152  0.00  0.00    -0.121 NA
ATOM      7  C   UNL d   1      56.888  -0.290  31.925  0.00  0.00     0.050 A 
ATOM      8  N   UNL d   1      55.141  -0.804  33.608  0.00  0.00    -0.116 NA
ATOM      9  S   UNL d   1      55.139   0.678  33.722  0.00  0.00    -0.036 SA
ENDROOT
BRANCH   7  10
ATOM     10  C   UNL d   1      57.447  -0.055  31.393  0.00  0.00     0.007 A 
ATOM     11  C   UNL d   1      58.066   0.422  31.662  0.00  0.00     0.001 A 
ATOM     12  C   UNL d   1      58.656   0.682  31.146  0.00  0.00     0.000 A 
ATOM     13  C   UNL d   1      58.596   0.438  30.339  0.00  0.00     0.000 A 
ATOM     14  C   UNL d   1      57.984  -0.035  30.066  0.00  0.00     0.000 A 
ATOM     15  C   UNL d   1      59.183   0.669  29.716  0.00  0.00     0.000 C 
ATOM     16  C   UNL d   1      57.402  -0.287  30.593  0.00  0.00     0.001 A 
ENDBRANCH   7  10
TORSDOF 1
ENDMDL
MODEL 4
REMARK VINA RESULT:      -4.4      1.865      3.583
REMARK  1 active torsions:
REMARK  status: ('A' for Active; 'I' for Inactive)
REMARK    1  A    between atoms: C_10  and  C_7 
ROOT
ATOM      1  N   UNL d   1      56.542  -0.426  32.280  0.00  0.00    -0.259 N 
ATOM      2  C   UNL d   1      56.694   0.390  32.405  0.00  0.00     0.202 A 
ATOM      3  C   UNL d   1      56.071  -0.669  32.888  0.00  0.00     0.227 A 
ATOM      4  C   UNL d   1      56.914  -0.635  31.625  0.00  0.00     0.091 A 
ATOM      5  S   UNL d   1      57.160   0.659  31.816  0.00  0.00    -0.047 SA
ATOM      6  N   UNL d   1      56.308   0.615  33.088  0.00  0.00    -0.121 NA
ATOM      7  C   UNL d   1      57.296   0.015  31.330  0.00  0.00     0.050 A 
ATOM      8  N   UNL d   1      55.916  -0.062  33.388  0.00  0.00    -0.116 NA
ATOM      9  S   UNL d   1      55.783  -1.482  32.971  0.00  0.00    -0.036 SA
ENDROOT
BRANCH   7  10
ATOM     10  C   UNL d   1      57.731  -0.028  30.652  0.00  0.00     0.007 A 
ATOM     11  C   UNL d   1      57.845   0.667  30.216  0.00  0.00     0.001 A 
ATOM     12  C   UNL d   1      58.285   0.661  29.518  0.00  0.00     0.000 A 
ATOM     13  C   UNL d   1      58.608  -0.080  29.273  0.00  0.00     0.000 A 
ATOM     14  C   UNL d   1      58.499  -0.772  29.700  0.00  0.00     0.000 A 
ATOM     15  C   UNL d   1      59.093  -0.180  28.538  0.00  0.00     0.000 C 
ATOM     16  C   UNL d   1      58.058  -0.751  30.396  0.00  0.00     0.001 A 
ENDBRANCH   7  10
TORSDOF 1
ENDMDL
MODEL 5
REMARK VINA RESULT:      -4.1      0.871      1.156
REMARK  1 active torsions:
REMARK  status: ('A' for Active; 'I' for Inactive)
REMARK    1  A    between atoms: C_10  and  C_7 
ROOT
ATOM      1  N   UNL d   1      58.690  -1.365  29.591  0.00  0.00    -0.259 N 
ATOM      2  C   UNL d   1      58.663  -0.572  29.317  0.00  0.00     0.202 A 
ATOM      3  C   UNL d   1      59.142  -1.776  29.064  0.00  0.00     0.227 A 
ATOM      4  C   UNL d   1      58.267  -1.399  30.247  0.00  0.00     0.091 A 
ATOM      5  S   UNL d   1      58.220  -0.139  29.820  0.00  0.00    -0.047 SA
ATOM      6  N   UNL d   1      59.103  -0.529  28.630  0.00  0.00    -0.121 NA
ATOM      7  C   UNL d   1      57.974  -0.660  30.402  0.00  0.00     0.050 A 
ATOM      8  N   UNL d   1      59.403  -1.297  28.478  0.00  0.00    -0.116 NA
ATOM      9  S   UNL d   1      59.311  -2.622  29.143  0.00  0.00    -0.036 SA
ENDROOT
BRANCH   7  10
ATOM     10  C   UNL d   1      57.513  -0.520  31.048  0.00  0.00     0.007 A 
ATOM     11  C   UNL d   1      57.418   0.264  31.298  0.00  0.00     0.001 A 
ATOM     12  C   UNL d   1      56.954   0.446  31.955  0.00  0.00     0.000 A 
ATOM     13  C   UNL d   1      56.585  -0.200  32.356  0.00  0.00     0.000 A 
ATOM     14  C   UNL d   1      56.674  -0.978  32.113  0.00  0.00     0.000 A 
ATOM     15  C   UNL d   1      56.069  -0.099  33.070  0.00  0.00     0.000 C 
ATOM     16  C   UNL d   1      57.141  -1.145  31.454  0.00  0.00     0.001 A 
ENDBRANCH   7  10
TORSDOF 1
ENDMDL
