MODEL 1
REMARK VINA RESULT:      27.9      0.000      0.000
REMARK  5 active torsions:
REMARK  status: ('A' for Active; 'I' for Inactive)
REMARK    1  A    between atoms: N_2  and  S_1 
REMARK    2  A    between atoms: C_8  and  S_1 
REMARK    3  A    between atoms: S_7  and  C_3 
REMARK    4  A    between atoms: C_11  and  S_7 
REMARK    5  A    between atoms: C_12  and  C_11 
ROOT
ATOM      1  N   UNL d   1      24.002  12.879  -0.657  0.00  0.00    -0.208 N 
ATOM      2  C   UNL d   1      24.164  12.450  -1.353  0.00  0.00     0.189 A 
ATOM      3  N   UNL d   1      24.612  11.782  -1.146  0.00  0.00    -0.219 NA
ATOM      4  C   UNL d   1      24.352  12.473  -0.018  0.00  0.00     0.114 A 
ATOM      5  C   UNL d   1      24.725  11.800  -0.324  0.00  0.00     0.121 A 
ENDROOT
BRANCH   1   6
ATOM      6  S   UNL d   1      23.568  13.587  -0.612  0.00  0.00     0.273 S 
ATOM      7  O   UNL d   1      24.261  13.981  -0.802  0.00  0.00    -0.200 OA
ATOM      8  O   UNL d   1      23.362  14.389  -0.627  0.00  0.00    -0.200 OA
BRANCH   6   9
ATOM      9  C   UNL d   1      22.859  13.205  -0.420  0.00  0.00     0.104 A 
ATOM     10  C   UNL d   1      22.190  13.654  -0.259  0.00  0.00     0.013 A 
ATOM     11  C   UNL d   1      21.485  13.273  -0.067  0.00  0.00     0.001 A 
ATOM     12  C   UNL d   1      21.454  12.449  -0.039  0.00  0.00     0.000 A 
ATOM     13  C   UNL d   1      22.125  12.005  -0.201  0.00  0.00     0.001 A 
ATOM     14  C   UNL d   1      22.834  12.391  -0.394  0.00  0.00     0.013 A 
ENDBRANCH   6   9
ENDBRANCH   1   6
BRANCH   2  15
ATOM     15  S   UNL d   1      23.919  12.656  -2.122  0.00  0.00    -0.049 SA
BRANCH  15  16
ATOM     16  C   UNL d   1      24.183  12.215  -2.771  0.00  0.00     0.038 C 
BRANCH  16  17
ATOM     17  C   UNL d   1      24.103  12.522  -3.533  0.00  0.00     0.007 A 
ATOM     18  C   UNL d   1      24.763  12.788  -3.950  0.00  0.00     0.001 A 
ATOM     19  C   UNL d   1      24.667  13.096  -4.719  0.00  0.00     0.000 A 
ATOM     20  C   UNL d   1      23.914  13.133  -5.062  0.00  0.00     0.000 A 
ATOM     21  C   UNL d   1      23.254  12.868  -4.650  0.00  0.00     0.000 A 
ATOM     22  C   UNL d   1      23.342  12.564  -3.890  0.00  0.00     0.001 A 
ENDBRANCH  16  17
ENDBRANCH  15  16
ENDBRANCH   2  15
TORSDOF 5
ENDMDL
MODEL 2
REMARK VINA RESULT:      29.7      8.427      9.562
REMARK  5 active torsions:
REMARK  status: ('A' for Active; 'I' for Inactive)
REMARK    1  A    between atoms: N_2  and  S_1 
REMARK    2  A    between atoms: C_8  and  S_1 
REMARK    3  A    between atoms: S_7  and  C_3 
REMARK    4  A    between atoms: C_11  and  S_7 
REMARK    5  A    between atoms: C_12  and  C_11 
ROOT
ATOM      1  N   UNL d   1      14.418  12.465  -1.154  0.00  0.00    -0.208 N 
ATOM      2  C   UNL d   1      14.212  13.089  -0.641  0.00  0.00     0.189 A 
ATOM      3  N   UNL d   1      13.681  12.794  -0.076  0.00  0.00    -0.219 NA
ATOM      4  C   UNL d   1      14.011  11.781  -0.902  0.00  0.00     0.114 A 
ATOM      5  C   UNL d   1      13.560  11.989  -0.240  0.00  0.00     0.121 A 
ENDROOT
BRANCH   1   6
ATOM      6  S   UNL d   1      14.938  12.518  -1.801  0.00  0.00     0.273 S 
ATOM      7  O   UNL d   1      15.552  12.544  -1.258  0.00  0.00    -0.200 OA
ATOM      8  O   UNL d   1      15.627  12.577  -2.258  0.00  0.00    -0.200 OA
BRANCH   6   9
ATOM      9  C   UNL d   1      14.330  12.492  -2.363  0.00  0.00     0.104 A 
ATOM     10  C   UNL d   1      14.190  13.149  -2.835  0.00  0.00     0.013 A 
ATOM     11  C   UNL d   1      13.586  13.123  -3.394  0.00  0.00     0.001 A 
ATOM     12  C   UNL d   1      13.127  12.441  -3.476  0.00  0.00     0.000 A 
ATOM     13  C   UNL d   1      13.272  11.787  -3.001  0.00  0.00     0.001 A 
ATOM     14  C   UNL d   1      13.881  11.816  -2.439  0.00  0.00     0.013 A 
ENDBRANCH   6   9
ENDBRANCH   1   6
BRANCH   2  15
ATOM     15  S   UNL d   1      14.492  13.872  -0.690  0.00  0.00    -0.049 SA
BRANCH  15  16
ATOM     16  C   UNL d   1      14.823  14.233  -0.022  0.00  0.00     0.038 C 
BRANCH  16  17
ATOM     17  C   UNL d   1      15.216  14.954  -0.100  0.00  0.00     0.007 A 
ATOM     18  C   UNL d   1      16.038  14.992  -0.050  0.00  0.00     0.001 A 
ATOM     19  C   UNL d   1      16.422  15.729  -0.131  0.00  0.00     0.000 A 
ATOM     20  C   UNL d   1      15.979  16.416  -0.261  0.00  0.00     0.000 A 
ATOM     21  C   UNL d   1      15.160  16.383  -0.311  0.00  0.00     0.000 A 
ATOM     22  C   UNL d   1      14.776  15.660  -0.232  0.00  0.00     0.001 A 
ENDBRANCH  16  17
ENDBRANCH  15  16
ENDBRANCH   2  15
TORSDOF 5
ENDMDL
