MODEL 1
REMARK VINA RESULT:      23.7      0.000      0.000
REMARK  3 active torsions:
REMARK  status: ('A' for Active; 'I' for Inactive)
REMARK    1  A    between atoms: C_7  and  C_3 
REMARK       I    between atoms: N_10  and  C_7 
REMARK    2  A    between atoms: C_16  and  N_10 
REMARK    3  A    between atoms: C_15  and  C_16 
ROOT
ATOM      1  C   UNL d   1      45.953 -18.048  43.186  0.00  0.00     0.063 A 
ATOM      2  C   UNL d   1      45.714 -17.268  43.334  0.00  0.00     0.033 A 
ATOM      3  C   UNL d   1      45.688 -17.163  44.156  0.00  0.00     0.158 A 
ATOM      4  C   UNL d   1      46.072 -18.424  43.911  0.00  0.00     0.099 A 
ATOM      5  O   UNL d   1      45.908 -17.876  44.510  0.00  0.00    -0.302 OA
ATOM      6  C   UNL d   1      46.072 -18.454  42.472  0.00  0.00     0.194 A 
ATOM      7  C   UNL d   1      46.312 -19.206  43.926  0.00  0.00     0.002 A 
ATOM      8  C   UNL d   1      46.436 -19.624  43.234  0.00  0.00     0.042 A 
ATOM      9  C   UNL d   1      46.316 -19.247  42.506  0.00  0.00     0.019 A 
ATOM     10  O   UNL d   1      45.952 -18.075  41.740  0.00  0.00    -0.287 OA
ATOM     11  C   UNL d   1      45.506 -16.595  42.901  0.00  0.00     0.002 C 
ATOM     12  C   UNL d   1      46.647 -20.321  42.839  0.00  0.00     0.009 C 
ATOM     13  C   UNL d   1      46.606 -20.167  43.830  0.00  0.00     0.009 C 
ENDROOT
BRANCH   3  14
ATOM     14  C   UNL d   1      45.478 -16.471  44.553  0.00  0.00     0.302 C 
ATOM     15  N   UNL d   1      45.992 -15.818  44.554  0.00  0.00    -0.205 NA
ATOM     16  O   UNL d   1      44.752 -16.425  44.955  0.00  0.00    -0.263 OA
BRANCH  15  17
ATOM     17  C   UNL d   1      45.785 -15.125  44.950  0.00  0.00     0.104 C 
BRANCH  17  18
ATOM     18  C   UNL d   1      45.746 -14.412  44.540  0.00  0.00     0.038 A 
ATOM     19  C   UNL d   1      46.440 -14.057  44.268  0.00  0.00     0.101 A 
ATOM     20  N   UNL d   1      46.394 -13.348  43.860  0.00  0.00    -0.242 NA
ATOM     21  C   UNL d   1      45.674 -12.988  43.718  0.00  0.00     0.099 A 
ATOM     22  C   UNL d   1      44.979 -13.348  43.993  0.00  0.00     0.021 A 
ATOM     23  C   UNL d   1      45.019 -14.061  44.404  0.00  0.00     0.005 A 
ENDBRANCH  17  18
ENDBRANCH  15  17
ENDBRANCH   3  14
TORSDOF 3
ENDMDL
