MODEL 1
REMARK VINA RESULT:      -8.6      0.000      0.000
REMARK  8 active torsions:
REMARK  status: ('A' for Active; 'I' for Inactive)
REMARK    1  A    between atoms: C_7  and  C_1 
REMARK    2  A    between atoms: C_8  and  C_2 
REMARK    3  A    between atoms: S_11  and  C_3 
REMARK    4  A    between atoms: C_10  and  C_4 
REMARK    5  A    between atoms: O_17  and  C_7 
REMARK    6  A    between atoms: C_24  and  S_11 
REMARK    7  A    between atoms: C_15  and  C_23 
REMARK    8  A    between atoms: C_23  and  O_17 
ROOT
ATOM      1  C   UNL d   1      52.950  32.333  53.388  0.00  0.00     0.081 A 
ATOM      2  C   UNL d   1      52.536  33.684  53.548  0.00  0.00     0.045 A 
ATOM      3  C   UNL d   1      51.879  33.538  53.074  0.00  0.00     0.112 A 
ATOM      4  C   UNL d   1      53.077  33.082  53.709  0.00  0.00     0.010 A 
ATOM      5  C   UNL d   1      52.293  32.187  52.914  0.00  0.00     0.087 A 
ATOM      6  N   UNL d   1      51.756  32.790  52.756  0.00  0.00    -0.239 NA
ATOM      7  C   UNL d   1      52.159  31.422  52.584  0.00  0.00     0.021 C 
ENDROOT
BRANCH   4   8
ATOM      8  C   UNL d   1      53.723  33.225  54.174  0.00  0.00     0.000 A 
ATOM      9  C   UNL d   1      54.453  33.400  53.834  0.00  0.00     0.001 A 
ATOM     10  C   UNL d   1      55.099  33.543  54.300  0.00  0.00     0.011 A 
ATOM     11  C   UNL d   1      55.036  33.515  55.122  0.00  0.00     0.058 A 
ATOM     12  C   UNL d   1      54.306  33.339  55.462  0.00  0.00     0.011 A 
ATOM     13 CL   UNL d   1      55.693  33.660  55.595  0.00  0.00    -0.082 Cl
ATOM     14  C   UNL d   1      53.660  33.197  54.996  0.00  0.00     0.001 A 
ENDBRANCH   4   8
BRANCH   2  15
ATOM     15  C   UNL d   1      52.659  34.446  53.870  0.00  0.00     0.124 C 
ATOM     16  N   UNL d   1      52.691  35.109  53.358  0.00  0.00    -0.146 N 
ENDBRANCH   2  15
BRANCH   1  17
ATOM     17  C   UNL d   1      53.495  31.717  53.547  0.00  0.00     0.302 C 
ATOM     18  O   UNL d   1      54.215  31.693  53.150  0.00  0.00    -0.259 OA
BRANCH  17  19
ATOM     19  O   UNL d   1      53.298  31.135  54.110  0.00  0.00    -0.271 OA
BRANCH  19  20
ATOM     20  C   UNL d   1      53.558  30.354  54.021  0.00  0.00     0.126 C 
BRANCH  20  21
ATOM     21  C   UNL d   1      53.311  29.773  54.548  0.00  0.00     0.027 C 
ATOM     22  C   UNL d   1      53.586  29.010  54.474  0.00  0.00     0.002 C 
ENDBRANCH  20  21
ENDBRANCH  19  20
ENDBRANCH  17  19
ENDBRANCH   1  17
BRANCH   3  23
ATOM     23  S   UNL d   1      51.323  34.151  52.907  0.00  0.00    -0.067 SA
BRANCH  23  24
ATOM     24  C   UNL d   1      50.581  33.969  52.604  0.00  0.00     0.037 C 
ATOM     25  C   UNL d   1      50.002  34.555  52.532  0.00  0.00     0.007 C 
ENDBRANCH  23  24
ENDBRANCH   3  23
TORSDOF 8
ENDMDL
MODEL 2
REMARK VINA RESULT:      -6.9      2.061      4.078
REMARK  8 active torsions:
REMARK  status: ('A' for Active; 'I' for Inactive)
REMARK    1  A    between atoms: C_7  and  C_1 
REMARK    2  A    between atoms: C_8  and  C_2 
REMARK    3  A    between atoms: S_11  and  C_3 
REMARK    4  A    between atoms: C_10  and  C_4 
REMARK    5  A    between atoms: O_17  and  C_7 
REMARK    6  A    between atoms: C_24  and  S_11 
REMARK    7  A    between atoms: C_15  and  C_23 
REMARK    8  A    between atoms: C_23  and  O_17 
ROOT
ATOM      1  C   UNL d   1      53.205  33.130  53.496  0.00  0.00     0.081 A 
ATOM      2  C   UNL d   1      52.481  31.946  53.185  0.00  0.00     0.045 A 
ATOM      3  C   UNL d   1      53.124  31.491  53.419  0.00  0.00     0.112 A 
ATOM      4  C   UNL d   1      52.516  32.770  53.222  0.00  0.00     0.010 A 
ATOM      5  C   UNL d   1      53.849  32.674  53.730  0.00  0.00     0.087 A 
ATOM      6  N   UNL d   1      53.810  31.853  53.692  0.00  0.00    -0.239 NA
ATOM      7  C   UNL d   1      54.557  33.038  54.012  0.00  0.00     0.021 C 
ENDROOT
BRANCH   4   8
ATOM      8  C   UNL d   1      51.883  33.218  52.991  0.00  0.00     0.000 A 
ATOM      9  C   UNL d   1      51.250  33.343  53.506  0.00  0.00     0.001 A 
ATOM     10  C   UNL d   1      50.617  33.791  53.276  0.00  0.00     0.011 A 
ATOM     11  C   UNL d   1      50.596  34.129  52.524  0.00  0.00     0.058 A 
ATOM     12  C   UNL d   1      51.228  34.004  52.009  0.00  0.00     0.011 A 
ATOM     13 CL   UNL d   1      49.952  34.585  52.289  0.00  0.00    -0.082 Cl
ATOM     14  C   UNL d   1      51.861  33.556  52.239  0.00  0.00     0.001 A 
ENDBRANCH   4   8
BRANCH   2  15
ATOM     15  C   UNL d   1      51.784  31.575  52.907  0.00  0.00     0.124 C 
ATOM     16  N   UNL d   1      51.455  30.939  53.343  0.00  0.00    -0.146 N 
ENDBRANCH   2  15
BRANCH   1  17
ATOM     17  C   UNL d   1      53.248  33.965  53.536  0.00  0.00     0.302 C 
ATOM     18  O   UNL d   1      53.429  34.400  52.861  0.00  0.00    -0.259 OA
BRANCH  17  19
ATOM     19  O   UNL d   1      53.104  34.345  54.264  0.00  0.00    -0.271 OA
BRANCH  19  20
ATOM     20  C   UNL d   1      53.378  35.114  54.401  0.00  0.00     0.126 C 
BRANCH  20  21
ATOM     21  C   UNL d   1      53.136  35.526  55.070  0.00  0.00     0.027 C 
ATOM     22  C   UNL d   1      52.968  36.321  55.023  0.00  0.00     0.002 C 
ENDBRANCH  20  21
ENDBRANCH  19  20
ENDBRANCH  17  19
ENDBRANCH   1  17
BRANCH   3  23
ATOM     23  S   UNL d   1      53.093  30.648  53.383  0.00  0.00    -0.067 SA
BRANCH  23  24
ATOM     24  C   UNL d   1      53.723  30.195  53.655  0.00  0.00     0.037 C 
ATOM     25  C   UNL d   1      53.620  29.392  53.825  0.00  0.00     0.007 C 
ENDBRANCH  23  24
ENDBRANCH   3  23
TORSDOF 8
ENDMDL
MODEL 3
REMARK VINA RESULT:      -6.8      1.893      3.191
REMARK  8 active torsions:
REMARK  status: ('A' for Active; 'I' for Inactive)
REMARK    1  A    between atoms: C_7  and  C_1 
REMARK    2  A    between atoms: C_8  and  C_2 
REMARK    3  A    between atoms: S_11  and  C_3 
REMARK    4  A    between atoms: C_10  and  C_4 
REMARK    5  A    between atoms: O_17  and  C_7 
REMARK    6  A    between atoms: C_24  and  S_11 
REMARK    7  A    between atoms: C_15  and  C_23 
REMARK    8  A    between atoms: C_23  and  O_17 
ROOT
ATOM      1  C   UNL d   1      53.244  32.520  53.482  0.00  0.00     0.081 A 
ATOM      2  C   UNL d   1      53.364  33.784  54.123  0.00  0.00     0.045 A 
ATOM      3  C   UNL d   1      54.086  33.553  54.443  0.00  0.00     0.112 A 
ATOM      4  C   UNL d   1      52.937  33.269  53.640  0.00  0.00     0.010 A 
ATOM      5  C   UNL d   1      53.966  32.289  53.802  0.00  0.00     0.087 A 
ATOM      6  N   UNL d   1      54.389  32.805  54.284  0.00  0.00    -0.239 NA
ATOM      7  C   UNL d   1      54.284  31.524  53.644  0.00  0.00     0.021 C 
ENDROOT
BRANCH   4   8
ATOM      8  C   UNL d   1      52.228  33.496  53.325  0.00  0.00     0.000 A 
ATOM      9  C   UNL d   1      51.523  33.333  53.721  0.00  0.00     0.001 A 
ATOM     10  C   UNL d   1      50.813  33.559  53.406  0.00  0.00     0.011 A 
ATOM     11  C   UNL d   1      50.784  33.958  52.684  0.00  0.00     0.058 A 
ATOM     12  C   UNL d   1      51.489  34.121  52.288  0.00  0.00     0.011 A 
ATOM     13 CL   UNL d   1      50.062  34.189  52.364  0.00  0.00    -0.082 Cl
ATOM     14  C   UNL d   1      52.199  33.894  52.603  0.00  0.00     0.001 A 
ENDBRANCH   4   8
BRANCH   2  15
ATOM     15  C   UNL d   1      53.058  34.545  54.287  0.00  0.00     0.124 C 
ATOM     16  N   UNL d   1      53.028  34.814  55.080  0.00  0.00    -0.146 N 
ENDBRANCH   2  15
BRANCH   1  17
ATOM     17  C   UNL d   1      52.817  31.993  52.992  0.00  0.00     0.302 C 
ATOM     18  O   UNL d   1      52.797  32.112  52.178  0.00  0.00    -0.259 OA
BRANCH  17  19
ATOM     19  O   UNL d   1      52.414  31.351  53.340  0.00  0.00    -0.271 OA
BRANCH  19  20
ATOM     20  C   UNL d   1      52.396  30.611  52.968  0.00  0.00     0.126 C 
BRANCH  20  21
ATOM     21  C   UNL d   1      51.968  29.993  53.301  0.00  0.00     0.027 C 
ATOM     22  C   UNL d   1      52.263  29.234  53.281  0.00  0.00     0.002 C 
ENDBRANCH  20  21
ENDBRANCH  19  20
ENDBRANCH  17  19
ENDBRANCH   1  17
BRANCH   3  23
ATOM     23  S   UNL d   1      54.526  34.076  54.938  0.00  0.00    -0.067 SA
BRANCH  23  24
ATOM     24  C   UNL d   1      55.234  33.832  55.278  0.00  0.00     0.037 C 
ATOM     25  C   UNL d   1      55.842  34.375  55.417  0.00  0.00     0.007 C 
ENDBRANCH  23  24
ENDBRANCH   3  23
TORSDOF 8
ENDMDL
MODEL 4
REMARK VINA RESULT:      -6.5      1.848      3.510
REMARK  8 active torsions:
REMARK  status: ('A' for Active; 'I' for Inactive)
REMARK    1  A    between atoms: C_7  and  C_1 
REMARK    2  A    between atoms: C_8  and  C_2 
REMARK    3  A    between atoms: S_11  and  C_3 
REMARK    4  A    between atoms: C_10  and  C_4 
REMARK    5  A    between atoms: O_17  and  C_7 
REMARK    6  A    between atoms: C_24  and  S_11 
REMARK    7  A    between atoms: C_15  and  C_23 
REMARK    8  A    between atoms: C_23  and  O_17 
ROOT
ATOM      1  C   UNL d   1      51.854  32.954  53.377  0.00  0.00     0.081 A 
ATOM      2  C   UNL d   1      53.206  32.573  53.597  0.00  0.00     0.045 A 
ATOM      3  C   UNL d   1      53.024  31.801  53.376  0.00  0.00     0.112 A 
ATOM      4  C   UNL d   1      52.622  33.156  53.598  0.00  0.00     0.010 A 
ATOM      5  C   UNL d   1      51.672  32.182  53.157  0.00  0.00     0.087 A 
ATOM      6  N   UNL d   1      52.257  31.605  53.156  0.00  0.00    -0.239 NA
ATOM      7  C   UNL d   1      50.887  31.971  52.929  0.00  0.00     0.021 C 
ENDROOT
BRANCH   4   8
ATOM      8  C   UNL d   1      52.801  33.915  53.815  0.00  0.00     0.000 A 
ATOM      9  C   UNL d   1      53.006  34.475  53.245  0.00  0.00     0.001 A 
ATOM     10  C   UNL d   1      53.184  35.233  53.462  0.00  0.00     0.011 A 
ATOM     11  C   UNL d   1      53.164  35.458  54.255  0.00  0.00     0.058 A 
ATOM     12  C   UNL d   1      52.959  34.898  54.825  0.00  0.00     0.011 A 
ATOM     13 CL   UNL d   1      53.345  36.229  54.475  0.00  0.00    -0.082 Cl
ATOM     14  C   UNL d   1      52.780  34.139  54.608  0.00  0.00     0.001 A 
ENDBRANCH   4   8
BRANCH   2  15
ATOM     15  C   UNL d   1      53.988  32.771  53.820  0.00  0.00     0.124 C 
ATOM     16  N   UNL d   1      54.622  32.593  53.302  0.00  0.00    -0.146 N 
ENDBRANCH   2  15
BRANCH   1  17
ATOM     17  C   UNL d   1      51.257  33.541  53.376  0.00  0.00     0.302 C 
ATOM     18  O   UNL d   1      50.916  33.780  54.086  0.00  0.00    -0.259 OA
BRANCH  17  19
ATOM     19  O   UNL d   1      51.015  33.875  52.652  0.00  0.00    -0.271 OA
BRANCH  19  20
ATOM     20  C   UNL d   1      50.259  34.203  52.568  0.00  0.00     0.126 C 
BRANCH  20  21
ATOM     21  C   UNL d   1      50.013  34.491  51.838  0.00  0.00     0.027 C 
ATOM     22  C   UNL d   1      49.253  34.765  51.742  0.00  0.00     0.002 C 
ENDBRANCH  20  21
ENDBRANCH  19  20
ENDBRANCH  17  19
ENDBRANCH   1  17
BRANCH   3  23
ATOM     23  S   UNL d   1      53.618  31.202  53.373  0.00  0.00    -0.067 SA
BRANCH  23  24
ATOM     24  C   UNL d   1      53.413  30.411  53.284  0.00  0.00     0.037 C 
ATOM     25  C   UNL d   1      53.888  29.814  53.603  0.00  0.00     0.007 C 
ENDBRANCH  23  24
ENDBRANCH   3  23
TORSDOF 8
ENDMDL
MODEL 5
REMARK VINA RESULT:      -6.4      1.402      2.829
REMARK  8 active torsions:
REMARK  status: ('A' for Active; 'I' for Inactive)
REMARK    1  A    between atoms: C_7  and  C_1 
REMARK    2  A    between atoms: C_8  and  C_2 
REMARK    3  A    between atoms: S_11  and  C_3 
REMARK    4  A    between atoms: C_10  and  C_4 
REMARK    5  A    between atoms: O_17  and  C_7 
REMARK    6  A    between atoms: C_24  and  S_11 
REMARK    7  A    between atoms: C_15  and  C_23 
REMARK    8  A    between atoms: C_23  and  O_17 
ROOT
ATOM      1  C   UNL d   1      52.952  33.518  53.401  0.00  0.00     0.081 A 
ATOM      2  C   UNL d   1      51.663  32.999  53.100  0.00  0.00     0.045 A 
ATOM      3  C   UNL d   1      51.366  33.765  53.048  0.00  0.00     0.112 A 
ATOM      4  C   UNL d   1      52.458  32.869  53.277  0.00  0.00     0.010 A 
ATOM      5  C   UNL d   1      52.656  34.284  53.349  0.00  0.00     0.087 A 
ATOM      6  N   UNL d   1      51.863  34.409  53.172  0.00  0.00    -0.239 NA
ATOM      7  C   UNL d   1      53.158  34.950  53.475  0.00  0.00     0.021 C 
ENDROOT
BRANCH   4   8
ATOM      8  C   UNL d   1      52.749  32.116  53.329  0.00  0.00     0.000 A 
ATOM      9  C   UNL d   1      52.791  31.733  54.058  0.00  0.00     0.001 A 
ATOM     10  C   UNL d   1      53.082  30.980  54.110  0.00  0.00     0.011 A 
ATOM     11  C   UNL d   1      53.340  30.585  53.434  0.00  0.00     0.058 A 
ATOM     12  C   UNL d   1      53.298  30.967  52.705  0.00  0.00     0.011 A 
ATOM     13 CL   UNL d   1      53.636  29.819  53.486  0.00  0.00    -0.082 Cl
ATOM     14  C   UNL d   1      53.007  31.721  52.653  0.00  0.00     0.001 A 
ENDBRANCH   4   8
BRANCH   2  15
ATOM     15  C   UNL d   1      51.155  32.345  52.974  0.00  0.00     0.124 C 
ATOM     16  N   UNL d   1      50.437  32.293  53.401  0.00  0.00    -0.146 N 
ENDBRANCH   2  15
BRANCH   1  17
ATOM     17  C   UNL d   1      53.760  33.393  53.581  0.00  0.00     0.302 C 
ATOM     18  O   UNL d   1      54.292  33.213  52.980  0.00  0.00    -0.259 OA
BRANCH  17  19
ATOM     19  O   UNL d   1      54.014  33.453  54.373  0.00  0.00    -0.271 OA
BRANCH  19  20
ATOM     20  C   UNL d   1      54.802  33.634  54.552  0.00  0.00     0.126 C 
BRANCH  20  21
ATOM     21  C   UNL d   1      55.057  33.636  55.334  0.00  0.00     0.027 C 
ATOM     22  C   UNL d   1      55.743  34.024  55.539  0.00  0.00     0.002 C 
ENDBRANCH  20  21
ENDBRANCH  19  20
ENDBRANCH  17  19
ENDBRANCH   1  17
BRANCH   3  23
ATOM     23  S   UNL d   1      50.554  33.903  52.867  0.00  0.00    -0.067 SA
BRANCH  23  24
ATOM     24  C   UNL d   1      50.290  34.659  52.682  0.00  0.00     0.037 C 
ATOM     25  C   UNL d   1      49.494  34.794  52.502  0.00  0.00     0.007 C 
ENDBRANCH  23  24
ENDBRANCH   3  23
TORSDOF 8
ENDMDL
MODEL 6
REMARK VINA RESULT:      -6.0      1.635      3.207
REMARK  8 active torsions:
REMARK  status: ('A' for Active; 'I' for Inactive)
REMARK    1  A    between atoms: C_7  and  C_1 
REMARK    2  A    between atoms: C_8  and  C_2 
REMARK    3  A    between atoms: S_11  and  C_3 
REMARK    4  A    between atoms: C_10  and  C_4 
REMARK    5  A    between atoms: O_17  and  C_7 
REMARK    6  A    between atoms: C_24  and  S_11 
REMARK    7  A    between atoms: C_15  and  C_23 
REMARK    8  A    between atoms: C_23  and  O_17 
ROOT
ATOM      1  C   UNL d   1      52.911  32.863  53.260  0.00  0.00     0.081 A 
ATOM      2  C   UNL d   1      53.461  31.599  53.609  0.00  0.00     0.045 A 
ATOM      3  C   UNL d   1      52.848  31.222  53.209  0.00  0.00     0.112 A 
ATOM      4  C   UNL d   1      53.497  32.423  53.638  0.00  0.00     0.010 A 
ATOM      5  C   UNL d   1      52.298  32.486  52.860  0.00  0.00     0.087 A 
ATOM      6  N   UNL d   1      52.266  31.665  52.833  0.00  0.00    -0.239 NA
ATOM      7  C   UNL d   1      51.697  32.933  52.472  0.00  0.00     0.021 C 
ENDROOT
BRANCH   4   8
ATOM      8  C   UNL d   1      54.099  32.793  54.032  0.00  0.00     0.000 A 
ATOM      9  C   UNL d   1      54.068  32.886  54.850  0.00  0.00     0.001 A 
ATOM     10  C   UNL d   1      54.670  33.256  55.244  0.00  0.00     0.011 A 
ATOM     11  C   UNL d   1      55.323  33.547  54.832  0.00  0.00     0.058 A 
ATOM     12  C   UNL d   1      55.353  33.454  54.013  0.00  0.00     0.011 A 
ATOM     13 CL   UNL d   1      55.935  33.923  55.232  0.00  0.00    -0.082 Cl
ATOM     14  C   UNL d   1      54.751  33.083  53.619  0.00  0.00     0.001 A 
ENDBRANCH   4   8
BRANCH   2  15
ATOM     15  C   UNL d   1      54.052  31.146  53.990  0.00  0.00     0.124 C 
ATOM     16  N   UNL d   1      54.398  30.498  53.587  0.00  0.00    -0.146 N 
ENDBRANCH   2  15
BRANCH   1  17
ATOM     17  C   UNL d   1      52.941  33.699  53.286  0.00  0.00     0.302 C 
ATOM     18  O   UNL d   1      53.406  34.110  52.745  0.00  0.00    -0.259 OA
BRANCH  17  19
ATOM     19  O   UNL d   1      52.498  34.105  53.863  0.00  0.00    -0.271 OA
BRANCH  19  20
ATOM     20  C   UNL d   1      52.347  34.916  53.789  0.00  0.00     0.126 C 
BRANCH  20  21
ATOM     21  C   UNL d   1      52.010  35.332  54.413  0.00  0.00     0.027 C 
ATOM     22  C   UNL d   1      52.389  35.983  54.723  0.00  0.00     0.002 C 
ENDBRANCH  20  21
ENDBRANCH  19  20
ENDBRANCH  17  19
ENDBRANCH   1  17
BRANCH   3  23
ATOM     23  S   UNL d   1      52.807  30.380  53.177  0.00  0.00    -0.067 SA
BRANCH  23  24
ATOM     24  C   UNL d   1      52.081  29.999  53.118  0.00  0.00     0.037 C 
ATOM     25  C   UNL d   1      52.038  29.173  53.120  0.00  0.00     0.007 C 
ENDBRANCH  23  24
ENDBRANCH   3  23
TORSDOF 8
ENDMDL
