MODEL 1
REMARK VINA RESULT:      -9.5      0.000      0.000
REMARK  7 active torsions:
REMARK  status: ('A' for Active; 'I' for Inactive)
REMARK    1  A    between atoms: N_8  and  C_3 
REMARK    2  A    between atoms: C_10  and  C_5 
REMARK    3  A    between atoms: C_15  and  N_8 
REMARK    4  A    between atoms: N_12  and  C_10 
REMARK    5  A    between atoms: C_21  and  N_12 
REMARK    6  A    between atoms: O_22  and  C_16 
REMARK    7  A    between atoms: C_23  and  C_21 
ROOT
ATOM      1  N   UNL d   1      53.213  32.892  53.740  0.00  0.00    -0.209 NA
ATOM      2  N   UNL d   1      53.082  34.267  54.120  0.00  0.00    -0.258 N 
ATOM      3  C   UNL d   1      52.706  33.006  53.108  0.00  0.00     0.170 A 
ATOM      4  C   UNL d   1      53.408  33.521  54.255  0.00  0.00     0.152 A 
ATOM      5  C   UNL d   1      52.380  33.752  52.973  0.00  0.00     0.111 A 
ATOM      6  C   UNL d   1      52.562  34.384  53.472  0.00  0.00     0.270 A 
ATOM      7  C   UNL d   1      53.915  33.407  54.887  0.00  0.00     0.035 A 
ATOM      8  C   UNL d   1      53.264  34.900  54.619  0.00  0.00     0.084 A 
ATOM      9  O   UNL d   1      52.225  35.133  53.324  0.00  0.00    -0.266 OA
ATOM     10  C   UNL d   1      53.771  34.786  55.250  0.00  0.00     0.019 A 
ATOM     11  C   UNL d   1      54.097  34.039  55.385  0.00  0.00     0.005 A 
ATOM     12  C   UNL d   1      54.252  32.659  55.035  0.00  0.00     0.003 C 
ENDROOT
BRANCH   3  13
ATOM     13  N   UNL d   1      52.526  32.353  52.604  0.00  0.00    -0.227 NA
BRANCH  13  14
ATOM     14  C   UNL d   1      52.588  31.584  52.876  0.00  0.00     0.083 A 
ATOM     15  C   UNL d   1      53.259  31.157  52.681  0.00  0.00     0.021 A 
ATOM     16  C   UNL d   1      53.335  30.370  52.952  0.00  0.00     0.026 A 
ATOM     17  C   UNL d   1      52.747  30.036  53.403  0.00  0.00     0.094 A 
ATOM     18  C   UNL d   1      52.074  30.460  53.600  0.00  0.00     0.026 A 
ATOM     19  C   UNL d   1      51.995  31.228  53.339  0.00  0.00     0.021 A 
BRANCH  17  20
ATOM     20  O   UNL d   1      52.843  29.234  53.669  0.00  0.00    -0.328 OA
ATOM     21  C   UNL d   1      53.213  29.080  54.410  0.00  0.00     0.181 C 
ENDBRANCH  17  20
ENDBRANCH  13  14
ENDBRANCH   3  13
BRANCH   5  22
ATOM     22  C   UNL d   1      51.865  33.867  52.332  0.00  0.00     0.107 C 
BRANCH  22  23
ATOM     23  N   UNL d   1      51.094  34.127  52.467  0.00  0.00    -0.242 NA
BRANCH  23  24
ATOM     24  C   UNL d   1      50.553  34.132  51.853  0.00  0.00     0.099 C 
BRANCH  24  25
ATOM     25  C   UNL d   1      49.813  34.482  51.962  0.00  0.00     0.019 A 
ATOM     26  C   UNL d   1      49.296  34.542  51.330  0.00  0.00     0.002 A 
ATOM     27  C   UNL d   1      48.557  34.891  51.439  0.00  0.00     0.000 A 
ATOM     28  C   UNL d   1      48.334  35.180  52.178  0.00  0.00     0.000 A 
ATOM     29  C   UNL d   1      48.852  35.120  52.810  0.00  0.00     0.000 A 
ATOM     30  C   UNL d   1      49.591  34.771  52.701  0.00  0.00     0.002 A 
ENDBRANCH  24  25
ENDBRANCH  23  24
ENDBRANCH  22  23
ENDBRANCH   5  22
TORSDOF 7
ENDMDL
MODEL 2
REMARK VINA RESULT:      -9.2      1.240      4.597
REMARK  7 active torsions:
REMARK  status: ('A' for Active; 'I' for Inactive)
REMARK    1  A    between atoms: N_8  and  C_3 
REMARK    2  A    between atoms: C_10  and  C_5 
REMARK    3  A    between atoms: C_15  and  N_8 
REMARK    4  A    between atoms: N_12  and  C_10 
REMARK    5  A    between atoms: C_21  and  N_12 
REMARK    6  A    between atoms: O_22  and  C_16 
REMARK    7  A    between atoms: C_23  and  C_21 
ROOT
ATOM      1  N   UNL d   1      52.700  33.745  54.080  0.00  0.00    -0.209 NA
ATOM      2  N   UNL d   1      54.089  33.548  54.369  0.00  0.00    -0.258 N 
ATOM      3  C   UNL d   1      52.654  33.003  53.739  0.00  0.00     0.170 A 
ATOM      4  C   UNL d   1      53.419  34.028  54.400  0.00  0.00     0.152 A 
ATOM      5  C   UNL d   1      53.324  32.523  53.708  0.00  0.00     0.111 A 
ATOM      6  C   UNL d   1      54.041  32.787  54.019  0.00  0.00     0.270 A 
ATOM      7  C   UNL d   1      53.466  34.770  54.741  0.00  0.00     0.035 A 
ATOM      8  C   UNL d   1      54.807  33.812  54.680  0.00  0.00     0.084 A 
ATOM      9  O   UNL d   1      54.712  32.291  53.982  0.00  0.00    -0.266 OA
ATOM     10  C   UNL d   1      54.854  34.554  55.021  0.00  0.00     0.019 A 
ATOM     11  C   UNL d   1      54.183  35.034  55.052  0.00  0.00     0.005 A 
ATOM     12  C   UNL d   1      52.796  35.266  54.778  0.00  0.00     0.003 C 
ENDROOT
BRANCH   3  13
ATOM     13  N   UNL d   1      51.915  32.743  53.424  0.00  0.00    -0.227 NA
BRANCH  13  14
ATOM     14  C   UNL d   1      51.417  33.264  53.037  0.00  0.00     0.083 A 
ATOM     15  C   UNL d   1      50.709  33.462  53.396  0.00  0.00     0.021 A 
ATOM     16  C   UNL d   1      50.191  33.993  53.012  0.00  0.00     0.026 A 
ATOM     17  C   UNL d   1      50.391  34.307  52.289  0.00  0.00     0.094 A 
ATOM     18  C   UNL d   1      51.099  34.110  51.926  0.00  0.00     0.026 A 
ATOM     19  C   UNL d   1      51.608  33.593  52.296  0.00  0.00     0.021 A 
BRANCH  17  20
ATOM     20  O   UNL d   1      49.850  34.845  51.914  0.00  0.00    -0.328 OA
ATOM     21  C   UNL d   1      49.221  34.545  51.441  0.00  0.00     0.181 C 
ENDBRANCH  17  20
ENDBRANCH  13  14
ENDBRANCH   3  13
BRANCH   5  22
ATOM     22  C   UNL d   1      53.277  31.769  53.362  0.00  0.00     0.107 C 
BRANCH  22  23
ATOM     23  N   UNL d   1      53.374  31.097  53.830  0.00  0.00    -0.242 NA
BRANCH  23  24
ATOM     24  C   UNL d   1      53.185  30.360  53.527  0.00  0.00     0.099 C 
BRANCH  24  25
ATOM     25  C   UNL d   1      53.280  29.688  53.996  0.00  0.00     0.019 A 
ATOM     26  C   UNL d   1      53.725  29.059  53.718  0.00  0.00     0.002 A 
ATOM     27  C   UNL d   1      53.820  28.387  54.187  0.00  0.00     0.000 A 
ATOM     28  C   UNL d   1      53.472  28.344  54.933  0.00  0.00     0.000 A 
ATOM     29  C   UNL d   1      53.028  28.974  55.211  0.00  0.00     0.000 A 
ATOM     30  C   UNL d   1      52.932  29.645  54.742  0.00  0.00     0.002 A 
ENDBRANCH  24  25
ENDBRANCH  23  24
ENDBRANCH  22  23
ENDBRANCH   5  22
TORSDOF 7
ENDMDL
MODEL 3
REMARK VINA RESULT:      -7.9      1.489      4.657
REMARK  7 active torsions:
REMARK  status: ('A' for Active; 'I' for Inactive)
REMARK    1  A    between atoms: N_8  and  C_3 
REMARK    2  A    between atoms: C_10  and  C_5 
REMARK    3  A    between atoms: C_15  and  N_8 
REMARK    4  A    between atoms: N_12  and  C_10 
REMARK    5  A    between atoms: C_21  and  N_12 
REMARK    6  A    between atoms: O_22  and  C_16 
REMARK    7  A    between atoms: C_23  and  C_21 
ROOT
ATOM      1  N   UNL d   1      52.802  33.449  53.240  0.00  0.00    -0.209 NA
ATOM      2  N   UNL d   1      51.458  33.046  52.955  0.00  0.00    -0.258 N 
ATOM      3  C   UNL d   1      53.064  32.679  53.154  0.00  0.00     0.170 A 
ATOM      4  C   UNL d   1      51.995  33.643  53.142  0.00  0.00     0.152 A 
ATOM      5  C   UNL d   1      52.527  32.081  52.967  0.00  0.00     0.111 A 
ATOM      6  C   UNL d   1      51.727  32.256  52.867  0.00  0.00     0.270 A 
ATOM      7  C   UNL d   1      51.733  34.413  53.227  0.00  0.00     0.035 A 
ATOM      8  C   UNL d   1      50.657  33.220  52.854  0.00  0.00     0.084 A 
ATOM      9  O   UNL d   1      51.194  31.642  52.678  0.00  0.00    -0.266 OA
ATOM     10  C   UNL d   1      50.395  33.990  52.940  0.00  0.00     0.019 A 
ATOM     11  C   UNL d   1      50.933  34.588  53.127  0.00  0.00     0.005 A 
ATOM     12  C   UNL d   1      52.265  35.027  53.416  0.00  0.00     0.003 C 
ENDROOT
BRANCH   3  13
ATOM     13  N   UNL d   1      53.885  32.511  53.260  0.00  0.00    -0.227 NA
BRANCH  13  14
ATOM     14  C   UNL d   1      54.316  32.877  53.851  0.00  0.00     0.083 A 
ATOM     15  C   UNL d   1      54.953  33.342  53.634  0.00  0.00     0.021 A 
ATOM     16  C   UNL d   1      55.402  33.722  54.228  0.00  0.00     0.026 A 
ATOM     17  C   UNL d   1      55.205  33.628  55.011  0.00  0.00     0.094 A 
ATOM     18  C   UNL d   1      54.567  33.163  55.232  0.00  0.00     0.026 A 
ATOM     19  C   UNL d   1      54.126  32.790  54.657  0.00  0.00     0.021 A 
BRANCH  17  20
ATOM     20  O   UNL d   1      55.673  34.022  55.600  0.00  0.00    -0.328 OA
ATOM     21  C   UNL d   1      55.391  34.077  56.392  0.00  0.00     0.181 C 
ENDBRANCH  17  20
ENDBRANCH  13  14
ENDBRANCH   3  13
BRANCH   5  22
ATOM     22  C   UNL d   1      52.793  31.299  52.880  0.00  0.00     0.107 C 
BRANCH  22  23
ATOM     23  N   UNL d   1      52.631  30.744  53.468  0.00  0.00    -0.242 NA
BRANCH  23  24
ATOM     24  C   UNL d   1      52.792  29.952  53.334  0.00  0.00     0.099 C 
BRANCH  24  25
ATOM     25  C   UNL d   1      53.044  29.475  53.958  0.00  0.00     0.019 A 
ATOM     26  C   UNL d   1      53.713  29.010  53.869  0.00  0.00     0.002 A 
ATOM     27  C   UNL d   1      53.966  28.533  54.492  0.00  0.00     0.000 A 
ATOM     28  C   UNL d   1      53.551  28.521  55.205  0.00  0.00     0.000 A 
ATOM     29  C   UNL d   1      52.882  28.985  55.294  0.00  0.00     0.000 A 
ATOM     30  C   UNL d   1      52.630  29.462  54.671  0.00  0.00     0.002 A 
ENDBRANCH  24  25
ENDBRANCH  23  24
ENDBRANCH  22  23
ENDBRANCH   5  22
TORSDOF 7
ENDMDL
MODEL 4
REMARK VINA RESULT:      -7.5      1.243      3.181
REMARK  7 active torsions:
REMARK  status: ('A' for Active; 'I' for Inactive)
REMARK    1  A    between atoms: N_8  and  C_3 
REMARK    2  A    between atoms: C_10  and  C_5 
REMARK    3  A    between atoms: C_15  and  N_8 
REMARK    4  A    between atoms: N_12  and  C_10 
REMARK    5  A    between atoms: C_21  and  N_12 
REMARK    6  A    between atoms: O_22  and  C_16 
REMARK    7  A    between atoms: C_23  and  C_21 
ROOT
ATOM      1  N   UNL d   1      53.266  31.914  53.211  0.00  0.00    -0.209 NA
ATOM      2  N   UNL d   1      52.076  31.119  53.253  0.00  0.00    -0.258 N 
ATOM      3  C   UNL d   1      52.822  32.601  53.236  0.00  0.00     0.170 A 
ATOM      4  C   UNL d   1      52.899  31.164  53.220  0.00  0.00     0.152 A 
ATOM      5  C   UNL d   1      51.999  32.556  53.269  0.00  0.00     0.111 A 
ATOM      6  C   UNL d   1      51.621  31.823  53.278  0.00  0.00     0.270 A 
ATOM      7  C   UNL d   1      53.343  30.477  53.196  0.00  0.00     0.035 A 
ATOM      8  C   UNL d   1      51.697  30.385  53.262  0.00  0.00     0.084 A 
ATOM      9  O   UNL d   1      50.787  31.792  53.312  0.00  0.00    -0.266 OA
ATOM     10  C   UNL d   1      52.141  29.698  53.238  0.00  0.00     0.019 A 
ATOM     11  C   UNL d   1      52.965  29.744  53.205  0.00  0.00     0.005 A 
ATOM     12  C   UNL d   1      54.175  30.507  53.162  0.00  0.00     0.003 C 
ENDROOT
BRANCH   3  13
ATOM     13  N   UNL d   1      53.219  33.346  53.226  0.00  0.00    -0.227 NA
BRANCH  13  14
ATOM     14  C   UNL d   1      53.775  33.533  53.796  0.00  0.00     0.083 A 
ATOM     15  C   UNL d   1      54.567  33.477  53.597  0.00  0.00     0.021 A 
ATOM     16  C   UNL d   1      55.146  33.665  54.170  0.00  0.00     0.026 A 
ATOM     17  C   UNL d   1      54.921  33.900  54.915  0.00  0.00     0.094 A 
ATOM     18  C   UNL d   1      54.129  33.957  55.118  0.00  0.00     0.026 A 
ATOM     19  C   UNL d   1      53.560  33.775  54.563  0.00  0.00     0.021 A 
BRANCH  17  20
ATOM     20  O   UNL d   1      55.525  34.087  55.483  0.00  0.00    -0.328 OA
ATOM     21  C   UNL d   1      55.486  33.759  56.259  0.00  0.00     0.181 C 
ENDBRANCH  17  20
ENDBRANCH  13  14
ENDBRANCH   3  13
BRANCH   5  22
ATOM     22  C   UNL d   1      51.548  33.254  53.293  0.00  0.00     0.107 C 
BRANCH  22  23
ATOM     23  N   UNL d   1      51.065  33.451  52.655  0.00  0.00    -0.242 NA
BRANCH  23  24
ATOM     24  C   UNL d   1      50.828  34.228  52.550  0.00  0.00     0.099 C 
BRANCH  24  25
ATOM     25  C   UNL d   1      50.128  34.391  52.144  0.00  0.00     0.019 A 
ATOM     26  C   UNL d   1      49.492  34.716  52.546  0.00  0.00     0.002 A 
ATOM     27  C   UNL d   1      48.793  34.879  52.141  0.00  0.00     0.000 A 
ATOM     28  C   UNL d   1      48.727  34.717  51.335  0.00  0.00     0.000 A 
ATOM     29  C   UNL d   1      49.363  34.391  50.934  0.00  0.00     0.000 A 
ATOM     30  C   UNL d   1      50.062  34.228  51.338  0.00  0.00     0.002 A 
ENDBRANCH  24  25
ENDBRANCH  23  24
ENDBRANCH  22  23
ENDBRANCH   5  22
TORSDOF 7
ENDMDL
