MODEL 1
REMARK VINA RESULT:      -3.0      0.000      0.000
REMARK  4 active torsions:
REMARK  status: ('A' for Active; 'I' for Inactive)
REMARK    1  A    between atoms: C_6  and  C_1 
REMARK    2  A    between atoms: C_7  and  C_2 
REMARK    3  A    between atoms: O_10  and  C_6 
REMARK    4  A    between atoms: C_13  and  O_10 
ROOT
ATOM      1  C   UNL d   1     -41.470-122.371 -51.422  0.00  0.00     0.113 A 
ATOM      2  C   UNL d   1     -41.710-122.132 -50.647  0.00  0.00     0.095 A 
ATOM      3  N   UNL d   1     -41.606-121.297 -50.594  0.00  0.00    -0.219 NA
ATOM      4  S   UNL d   1     -41.224-121.703 -51.837  0.00  0.00    -0.040 SA
ATOM      5  C   UNL d   1     -41.315-121.061 -51.317  0.00  0.00     0.215 A 
ATOM      6  N   UNL d   1     -41.123-120.286 -51.536  0.00  0.00    -0.120 N 
ENDROOT
BRANCH   2   7
ATOM      7  C   UNL d   1     -41.982-122.693 -50.113  0.00  0.00     0.018 A 
ATOM      8  C   UNL d   1     -42.788-122.707 -49.914  0.00  0.00     0.002 A 
ATOM      9  C   UNL d   1     -43.058-123.281 -49.370  0.00  0.00     0.000 A 
ATOM     10  C   UNL d   1     -42.547-123.817 -49.041  0.00  0.00     0.000 A 
ATOM     11  C   UNL d   1     -41.727-123.799 -49.248  0.00  0.00     0.000 A 
ATOM     12  C   UNL d   1     -41.464-123.230 -49.785  0.00  0.00     0.002 A 
ENDBRANCH   2   7
BRANCH   1  13
ATOM     13  C   UNL d   1     -41.472-123.112 -51.723  0.00  0.00     0.308 C 
ATOM     14  O   UNL d   1     -41.139-123.727 -51.303  0.00  0.00    -0.258 OA
BRANCH  13  15
ATOM     15  O   UNL d   1     -41.797-123.253 -52.432  0.00  0.00    -0.271 OA
BRANCH  15  16
ATOM     16  C   UNL d   1     -41.440-123.749 -52.988  0.00  0.00     0.126 C 
ATOM     17  C   UNL d   1     -41.406-123.577 -53.782  0.00  0.00     0.029 C 
ENDBRANCH  15  16
ENDBRANCH  13  15
ENDBRANCH   1  13
TORSDOF 4
ENDMDL
MODEL 2
REMARK VINA RESULT:      -2.3      1.938      3.208
REMARK  4 active torsions:
REMARK  status: ('A' for Active; 'I' for Inactive)
REMARK    1  A    between atoms: C_6  and  C_1 
REMARK    2  A    between atoms: C_7  and  C_2 
REMARK    3  A    between atoms: O_10  and  C_6 
REMARK    4  A    between atoms: C_13  and  O_10 
ROOT
ATOM      1  C   UNL d   1     -42.416-123.288 -49.349  0.00  0.00     0.113 A 
ATOM      2  C   UNL d   1     -41.614-123.302 -49.620  0.00  0.00     0.095 A 
ATOM      3  N   UNL d   1     -41.123-123.464 -48.955  0.00  0.00    -0.219 NA
ATOM      4  S   UNL d   1     -42.420-123.437 -48.538  0.00  0.00    -0.040 SA
ATOM      5  C   UNL d   1     -41.624-123.541 -48.318  0.00  0.00     0.215 A 
ATOM      6  N   UNL d   1     -41.401-123.702 -47.537  0.00  0.00    -0.120 N 
ENDROOT
BRANCH   2   7
ATOM      7  C   UNL d   1     -41.451-123.169 -50.414  0.00  0.00     0.018 A 
ATOM      8  C   UNL d   1     -41.396-123.817 -50.931  0.00  0.00     0.002 A 
ATOM      9  C   UNL d   1     -41.230-123.674 -51.737  0.00  0.00     0.000 A 
ATOM     10  C   UNL d   1     -41.123-122.921 -52.015  0.00  0.00     0.000 A 
ATOM     11  C   UNL d   1     -41.180-122.265 -51.484  0.00  0.00     0.000 A 
ATOM     12  C   UNL d   1     -41.344-122.409 -50.687  0.00  0.00     0.002 A 
ENDBRANCH   2   7
BRANCH   1  13
ATOM     13  C   UNL d   1     -43.073-123.155 -49.784  0.00  0.00     0.308 C 
ATOM     14  O   UNL d   1     -43.454-123.776 -50.153  0.00  0.00    -0.258 OA
BRANCH  13  15
ATOM     15  O   UNL d   1     -43.359-122.420 -49.861  0.00  0.00    -0.271 OA
BRANCH  15  16
ATOM     16  C   UNL d   1     -44.169-122.267 -49.912  0.00  0.00     0.126 C 
ATOM     17  C   UNL d   1     -44.492-121.750 -50.450  0.00  0.00     0.029 C 
ENDBRANCH  15  16
ENDBRANCH  13  15
ENDBRANCH   1  13
TORSDOF 4
ENDMDL
MODEL 3
REMARK VINA RESULT:      -1.3      0.854      3.041
REMARK  4 active torsions:
REMARK  status: ('A' for Active; 'I' for Inactive)
REMARK    1  A    between atoms: C_6  and  C_1 
REMARK    2  A    between atoms: C_7  and  C_2 
REMARK    3  A    between atoms: O_10  and  C_6 
REMARK    4  A    between atoms: C_13  and  O_10 
ROOT
ATOM      1  C   UNL d   1     -41.593-122.251 -51.831  0.00  0.00     0.113 A 
ATOM      2  C   UNL d   1     -41.418-121.996 -52.618  0.00  0.00     0.095 A 
ATOM      3  N   UNL d   1     -41.215-121.179 -52.583  0.00  0.00    -0.219 NA
ATOM      4  S   UNL d   1     -41.501-121.609 -51.322  0.00  0.00    -0.040 SA
ATOM      5  C   UNL d   1     -41.271-120.967 -51.798  0.00  0.00     0.215 A 
ATOM      6  N   UNL d   1     -41.123-120.216 -51.483  0.00  0.00    -0.120 N 
ENDROOT
BRANCH   2   7
ATOM      7  C   UNL d   1     -41.468-122.530 -53.240  0.00  0.00     0.018 A 
ATOM      8  C   UNL d   1     -41.871-122.312 -53.932  0.00  0.00     0.002 A 
ATOM      9  C   UNL d   1     -41.918-122.861 -54.560  0.00  0.00     0.000 A 
ATOM     10  C   UNL d   1     -41.577-123.594 -54.500  0.00  0.00     0.000 A 
ATOM     11  C   UNL d   1     -41.167-123.811 -53.793  0.00  0.00     0.000 A 
ATOM     12  C   UNL d   1     -41.123-123.266 -53.174  0.00  0.00     0.002 A 
ENDBRANCH   2   7
BRANCH   1  13
ATOM     13  C   UNL d   1     -41.813-122.983 -51.595  0.00  0.00     0.308 C 
ATOM     14  O   UNL d   1     -42.344-123.415 -52.040  0.00  0.00    -0.258 OA
BRANCH  13  15
ATOM     15  O   UNL d   1     -41.517-123.293 -50.929  0.00  0.00    -0.271 OA
BRANCH  15  16
ATOM     16  C   UNL d   1     -41.988-123.699 -50.387  0.00  0.00     0.126 C 
ATOM     17  C   UNL d   1     -41.782-123.805 -49.607  0.00  0.00     0.029 C 
ENDBRANCH  15  16
ENDBRANCH  13  15
ENDBRANCH   1  13
TORSDOF 4
ENDMDL
MODEL 4
REMARK VINA RESULT:      -1.1      1.527      2.204
REMARK  4 active torsions:
REMARK  status: ('A' for Active; 'I' for Inactive)
REMARK    1  A    between atoms: C_6  and  C_1 
REMARK    2  A    between atoms: C_7  and  C_2 
REMARK    3  A    between atoms: O_10  and  C_6 
REMARK    4  A    between atoms: C_13  and  O_10 
ROOT
ATOM      1  C   UNL d   1     -41.500-122.505 -51.710  0.00  0.00     0.113 A 
ATOM      2  C   UNL d   1     -41.634-123.303 -51.463  0.00  0.00     0.095 A 
ATOM      3  N   UNL d   1     -41.607-123.792 -52.150  0.00  0.00    -0.219 NA
ATOM      4  S   UNL d   1     -41.393-122.500 -52.527  0.00  0.00    -0.040 SA
ATOM      5  C   UNL d   1     -41.462-123.291 -52.775  0.00  0.00     0.215 A 
ATOM      6  N   UNL d   1     -41.386-123.511 -53.570  0.00  0.00    -0.120 N 
ENDROOT
BRANCH   2   7
ATOM      7  C   UNL d   1     -41.758-123.468 -50.668  0.00  0.00     0.018 A 
ATOM      8  C   UNL d   1     -42.535-123.519 -50.381  0.00  0.00     0.002 A 
ATOM      9  C   UNL d   1     -42.654-123.686 -49.571  0.00  0.00     0.000 A 
ATOM     10  C   UNL d   1     -42.027-123.798 -49.071  0.00  0.00     0.000 A 
ATOM     11  C   UNL d   1     -41.237-123.745 -49.369  0.00  0.00     0.000 A 
ATOM     12  C   UNL d   1     -41.123-123.579 -50.170  0.00  0.00     0.002 A 
ENDBRANCH   2   7
BRANCH   1  13
ATOM     13  C   UNL d   1     -41.477-121.852 -51.250  0.00  0.00     0.308 C 
ATOM     14  O   UNL d   1     -41.815-121.861 -50.507  0.00  0.00    -0.258 OA
BRANCH  13  15
ATOM     15  O   UNL d   1     -41.124-121.192 -51.511  0.00  0.00    -0.271 OA
BRANCH  15  16
ATOM     16  C   UNL d   1     -41.273-120.453 -51.176  0.00  0.00     0.126 C 
ATOM     17  C   UNL d   1     -41.123-119.751 -51.558  0.00  0.00     0.029 C 
ENDBRANCH  15  16
ENDBRANCH  13  15
ENDBRANCH   1  13
TORSDOF 4
ENDMDL
MODEL 5
REMARK VINA RESULT:      -0.3      1.981      2.628
REMARK  4 active torsions:
REMARK  status: ('A' for Active; 'I' for Inactive)
REMARK    1  A    between atoms: C_6  and  C_1 
REMARK    2  A    between atoms: C_7  and  C_2 
REMARK    3  A    between atoms: O_10  and  C_6 
REMARK    4  A    between atoms: C_13  and  O_10 
ROOT
ATOM      1  C   UNL d   1     -42.650-123.238 -49.849  0.00  0.00     0.113 A 
ATOM      2  C   UNL d   1     -42.864-123.278 -49.032  0.00  0.00     0.095 A 
ATOM      3  N   UNL d   1     -43.697-123.403 -48.991  0.00  0.00    -0.219 NA
ATOM      4  S   UNL d   1     -43.332-123.336 -50.302  0.00  0.00    -0.040 SA
ATOM      5  C   UNL d   1     -43.957-123.435 -49.762  0.00  0.00     0.215 A 
ATOM      6  N   UNL d   1     -44.739-123.549 -50.010  0.00  0.00    -0.120 N 
ENDROOT
BRANCH   2   7
ATOM      7  C   UNL d   1     -42.285-123.197 -48.455  0.00  0.00     0.018 A 
ATOM      8  C   UNL d   1     -42.219-122.478 -48.045  0.00  0.00     0.002 A 
ATOM      9  C   UNL d   1     -41.628-122.402 -47.460  0.00  0.00     0.000 A 
ATOM     10  C   UNL d   1     -41.126-123.016 -47.292  0.00  0.00     0.000 A 
ATOM     11  C   UNL d   1     -41.197-123.746 -47.712  0.00  0.00     0.000 A 
ATOM     12  C   UNL d   1     -41.783-123.817 -48.290  0.00  0.00     0.002 A 
ENDBRANCH   2   7
BRANCH   1  13
ATOM     13  C   UNL d   1     -41.920-123.126 -50.155  0.00  0.00     0.308 C 
ATOM     14  O   UNL d   1     -41.355-123.711 -50.094  0.00  0.00    -0.258 OA
BRANCH  13  15
ATOM     15  O   UNL d   1     -41.741-122.445 -50.519  0.00  0.00    -0.271 OA
BRANCH  15  16
ATOM     16  C   UNL d   1     -41.144-122.395 -51.087  0.00  0.00     0.126 C 
ATOM     17  C   UNL d   1     -41.179-121.897 -51.730  0.00  0.00     0.029 C 
ENDBRANCH  15  16
ENDBRANCH  13  15
ENDBRANCH   1  13
TORSDOF 4
ENDMDL
