MODEL 1
REMARK VINA RESULT:      58.4      0.000      0.000
REMARK  6 active torsions:
REMARK  status: ('A' for Active; 'I' for Inactive)
REMARK    1  A    between atoms: C_6  and  C_1 
REMARK    2  A    between atoms: C_9  and  N_3 
REMARK       I    between atoms: N_7  and  C_6 
REMARK    3  A    between atoms: C_8  and  N_7 
REMARK    4  A    between atoms: C_10  and  C_9 
REMARK    5  A    between atoms: O_25  and  C_15 
REMARK    6  A    between atoms: O_26  and  C_20 
ROOT
ATOM      1  C   UNL d   1      13.938  15.431  -4.225  0.00  0.00     0.199 A 
ATOM      2  C   UNL d   1      14.320  15.776  -4.864  0.00  0.00     0.211 A 
ATOM      3  N   UNL d   1      14.476  16.561  -4.673  0.00  0.00    -0.190 N 
ATOM      4  N   UNL d   1      13.855  16.000  -3.633  0.00  0.00    -0.122 NA
ATOM      5  N   UNL d   1      14.191  16.710  -3.911  0.00  0.00    -0.058 NA
ATOM      6  N   UNL d   1      14.514  15.405  -5.572  0.00  0.00    -0.125 N 
ENDROOT
BRANCH   1   7
ATOM      7  C   UNL d   1      13.680  14.652  -4.177  0.00  0.00     0.302 C 
ATOM      8  N   UNL d   1      14.039  14.131  -3.647  0.00  0.00    -0.204 NA
ATOM      9  O   UNL d   1      13.060  14.391  -4.661  0.00  0.00    -0.263 OA
BRANCH   8  10
ATOM     10  C   UNL d   1      13.776  13.346  -3.602  0.00  0.00     0.109 A 
ATOM     11  C   UNL d   1      13.403  12.995  -4.249  0.00  0.00     0.045 A 
ATOM     12  C   UNL d   1      13.144  12.220  -4.203  0.00  0.00     0.096 A 
ATOM     13  C   UNL d   1      13.251  11.783  -3.512  0.00  0.00     0.026 A 
ATOM     14  C   UNL d   1      13.627  12.135  -2.859  0.00  0.00     0.028 A 
ATOM     15  C   UNL d   1      13.887  12.918  -2.910  0.00  0.00     0.112 A 
BRANCH  12  16
ATOM     16  O   UNL d   1      12.771  11.868  -4.851  0.00  0.00    -0.328 OA
ATOM     17  C   UNL d   1      13.147  11.832  -5.574  0.00  0.00     0.181 C 
ENDBRANCH  12  16
BRANCH  15  18
ATOM     18  O   UNL d   1      14.257  13.271  -2.271  0.00  0.00    -0.327 OA
ATOM     19  C   UNL d   1      14.371  12.852  -1.569  0.00  0.00     0.181 C 
ENDBRANCH  15  18
ENDBRANCH   8  10
ENDBRANCH   1   7
BRANCH   3  20
ATOM     20  C   UNL d   1      14.851  17.112  -5.152  0.00  0.00     0.106 C 
BRANCH  20  21
ATOM     21  C   UNL d   1      14.435  17.758  -5.458  0.00  0.00     0.047 A 
ATOM     22  C   UNL d   1      14.625  18.518  -5.223  0.00  0.00     0.142 A 
ATOM     23  C   UNL d   1      14.207  19.161  -5.530  0.00  0.00     0.036 A 
ATOM     24  F   UNL d   1      15.229  18.648  -4.681  0.00  0.00    -0.204 F 
ATOM     25  C   UNL d   1      13.597  19.041  -6.076  0.00  0.00     0.037 A 
ATOM     26  C   UNL d   1      13.409  18.264  -6.311  0.00  0.00     0.007 A 
ATOM     27 BR   UNL d   1      13.176  19.678  -6.387  0.00  0.00    -0.049 Br
ATOM     28  C   UNL d   1      13.830  17.628  -5.999  0.00  0.00     0.004 A 
ENDBRANCH  20  21
ENDBRANCH   3  20
TORSDOF 6
ENDMDL
MODEL 2
REMARK VINA RESULT:      58.6      2.893      5.482
REMARK  6 active torsions:
REMARK  status: ('A' for Active; 'I' for Inactive)
REMARK    1  A    between atoms: C_6  and  C_1 
REMARK    2  A    between atoms: C_9  and  N_3 
REMARK       I    between atoms: N_7  and  C_6 
REMARK    3  A    between atoms: C_8  and  N_7 
REMARK    4  A    between atoms: C_10  and  C_9 
REMARK    5  A    between atoms: O_25  and  C_15 
REMARK    6  A    between atoms: O_26  and  C_20 
ROOT
ATOM      1  C   UNL d   1      13.495  13.309  -3.949  0.00  0.00     0.199 A 
ATOM      2  C   UNL d   1      13.392  13.121  -3.157  0.00  0.00     0.211 A 
ATOM      3  N   UNL d   1      13.348  12.302  -3.094  0.00  0.00    -0.190 N 
ATOM      4  N   UNL d   1      13.515  12.607  -4.383  0.00  0.00    -0.122 NA
ATOM      5  N   UNL d   1      13.423  11.974  -3.849  0.00  0.00    -0.058 NA
ATOM      6  N   UNL d   1      13.341  13.656  -2.534  0.00  0.00    -0.125 N 
ENDROOT
BRANCH   1   7
ATOM      7  C   UNL d   1      13.567  14.065  -4.263  0.00  0.00     0.302 C 
ATOM      8  N   UNL d   1      14.128  14.587  -3.959  0.00  0.00    -0.204 NA
ATOM      9  O   UNL d   1      13.074  14.303  -4.886  0.00  0.00    -0.263 OA
BRANCH   8  10
ATOM     10  C   UNL d   1      14.197  15.348  -4.279  0.00  0.00     0.109 A 
ATOM     11  C   UNL d   1      13.896  15.513  -5.029  0.00  0.00     0.045 A 
ATOM     12  C   UNL d   1      13.964  16.265  -5.344  0.00  0.00     0.096 A 
ATOM     13  C   UNL d   1      14.334  16.865  -4.916  0.00  0.00     0.026 A 
ATOM     14  C   UNL d   1      14.638  16.702  -4.160  0.00  0.00     0.028 A 
ATOM     15  C   UNL d   1      14.567  15.940  -3.846  0.00  0.00     0.112 A 
BRANCH  12  16
ATOM     16  O   UNL d   1      13.662  16.430  -6.095  0.00  0.00    -0.328 OA
ATOM     17  C   UNL d   1      12.862  16.366  -6.242  0.00  0.00     0.181 C 
ENDBRANCH  12  16
BRANCH  15  18
ATOM     18  O   UNL d   1      14.864  15.772  -3.102  0.00  0.00    -0.327 OA
ATOM     19  C   UNL d   1      14.617  16.205  -2.445  0.00  0.00     0.181 C 
ENDBRANCH  15  18
ENDBRANCH   8  10
ENDBRANCH   1   7
BRANCH   3  20
ATOM     20  C   UNL d   1      13.245  11.874  -2.402  0.00  0.00     0.106 C 
BRANCH  20  21
ATOM     21  C   UNL d   1      13.814  11.901  -1.801  0.00  0.00     0.047 A 
ATOM     22  C   UNL d   1      13.584  11.871  -1.016  0.00  0.00     0.142 A 
ATOM     23  C   UNL d   1      14.154  11.899  -0.419  0.00  0.00     0.036 A 
ATOM     24  F   UNL d   1      12.789  11.814  -0.816  0.00  0.00    -0.204 F 
ATOM     25  C   UNL d   1      14.957  11.957  -0.609  0.00  0.00     0.037 A 
ATOM     26  C   UNL d   1      15.184  11.987  -1.411  0.00  0.00     0.007 A 
ATOM     27 BR   UNL d   1      15.532  11.985  -0.018  0.00  0.00    -0.049 Br
ATOM     28  C   UNL d   1      14.608  11.959  -2.001  0.00  0.00     0.004 A 
ENDBRANCH  20  21
ENDBRANCH   3  20
TORSDOF 6
ENDMDL
