MODEL 1
REMARK VINA RESULT:      24.3      0.000      0.000
REMARK  1 active torsions:
REMARK  status: ('A' for Active; 'I' for Inactive)
REMARK    1  A    between atoms: C_2  and  N_1 
ROOT
ATOM      1  C   UNL d   1      59.159  49.676  51.036  0.00  0.00     0.129 A 
ATOM      2  C   UNL d   1      59.824  49.686  50.547  0.00  0.00     0.043 A 
ATOM      3  C   UNL d   1      60.582  49.696  50.882  0.00  0.00     0.123 A 
ATOM      4  C   UNL d   1      60.668  49.696  51.703  0.00  0.00     0.224 A 
ATOM      5  C   UNL d   1      59.249  49.675  51.849  0.00  0.00     0.038 A 
ATOM      6  C   UNL d   1      60.008  49.686  52.184  0.00  0.00     0.100 A 
ATOM      7  N   UNL d   1      61.245  49.707  50.397  0.00  0.00    -0.241 NA
ATOM      8  O   UNL d   1      61.419  49.706  52.034  0.00  0.00    -0.284 OA
ATOM      9 CL   UNL d   1      60.096  49.685  53.000  0.00  0.00    -0.079 Cl
ATOM     10  C   UNL d   1      59.735  49.686  49.731  0.00  0.00     0.005 A 
ATOM     11  C   UNL d   1      61.160  49.707  49.573  0.00  0.00     0.099 A 
ATOM     12  C   UNL d   1      60.402  49.697  49.238  0.00  0.00     0.021 A 
ENDROOT
BRANCH   1  13
ATOM     13  N   UNL d   1      58.409  49.665  50.705  0.00  0.00    -0.114 N 
ATOM     14  O   UNL d   1      57.743  49.613  51.187  0.00  0.00    -0.532 OA
ATOM     15  O   UNL d   1      58.319  49.708  49.890  0.00  0.00    -0.532 OA
ENDBRANCH   1  13
TORSDOF 1
ENDMDL
MODEL 2
REMARK VINA RESULT:      25.3      1.466      2.696
REMARK  1 active torsions:
REMARK  status: ('A' for Active; 'I' for Inactive)
REMARK    1  A    between atoms: C_2  and  N_1 
ROOT
ATOM      1  C   UNL d   1      60.535  49.633  51.510  0.00  0.00     0.129 A 
ATOM      2  C   UNL d   1      59.731  49.653  51.322  0.00  0.00     0.043 A 
ATOM      3  C   UNL d   1      59.494  49.677  50.528  0.00  0.00     0.123 A 
ATOM      4  C   UNL d   1      60.063  49.681  49.930  0.00  0.00     0.224 A 
ATOM      5  C   UNL d   1      61.095  49.637  50.914  0.00  0.00     0.038 A 
ATOM      6  C   UNL d   1      60.858  49.661  50.120  0.00  0.00     0.100 A 
ATOM      7  N   UNL d   1      58.696  49.696  50.339  0.00  0.00    -0.241 NA
ATOM      8  O   UNL d   1      59.828  49.704  49.144  0.00  0.00    -0.284 OA
ATOM      9 CL   UNL d   1      61.421  49.665  49.524  0.00  0.00    -0.079 Cl
ATOM     10  C   UNL d   1      59.168  49.649  51.919  0.00  0.00     0.005 A 
ATOM     11  C   UNL d   1      58.123  49.692  50.937  0.00  0.00     0.099 A 
ATOM     12  C   UNL d   1      58.360  49.668  51.731  0.00  0.00     0.021 A 
ENDROOT
BRANCH   1  13
ATOM     13  N   UNL d   1      60.769  49.610  52.296  0.00  0.00    -0.114 N 
ATOM     14  O   UNL d   1      60.215  49.707  52.897  0.00  0.00    -0.532 OA
ATOM     15  O   UNL d   1      61.559  49.490  52.486  0.00  0.00    -0.532 OA
ENDBRANCH   1  13
TORSDOF 1
ENDMDL
MODEL 3
REMARK VINA RESULT:      26.1      1.350      2.192
REMARK  1 active torsions:
REMARK  status: ('A' for Active; 'I' for Inactive)
REMARK    1  A    between atoms: C_2  and  N_1 
ROOT
ATOM      1  C   UNL d   1      59.682  49.684  51.302  0.00  0.00     0.129 A 
ATOM      2  C   UNL d   1      60.057  49.688  50.567  0.00  0.00     0.043 A 
ATOM      3  C   UNL d   1      59.603  49.690  49.873  0.00  0.00     0.123 A 
ATOM      4  C   UNL d   1      58.780  49.689  49.921  0.00  0.00     0.224 A 
ATOM      5  C   UNL d   1      58.865  49.682  51.345  0.00  0.00     0.038 A 
ATOM      6  C   UNL d   1      58.412  49.685  50.651  0.00  0.00     0.100 A 
ATOM      7  N   UNL d   1      59.974  49.694  49.141  0.00  0.00    -0.241 NA
ATOM      8  O   UNL d   1      58.331  49.691  49.234  0.00  0.00    -0.284 OA
ATOM      9 CL   UNL d   1      57.593  49.683  50.697  0.00  0.00    -0.079 Cl
ATOM     10  C   UNL d   1      60.877  49.689  50.522  0.00  0.00     0.005 A 
ATOM     11  C   UNL d   1      60.801  49.696  49.090  0.00  0.00     0.099 A 
ATOM     12  C   UNL d   1      61.255  49.693  49.784  0.00  0.00     0.021 A 
ENDROOT
BRANCH   1  13
ATOM     13  N   UNL d   1      60.131  49.681  51.989  0.00  0.00    -0.114 N 
ATOM     14  O   UNL d   1      59.762  49.668  52.725  0.00  0.00    -0.532 OA
ATOM     15  O   UNL d   1      60.951  49.693  51.944  0.00  0.00    -0.532 OA
ENDBRANCH   1  13
TORSDOF 1
ENDMDL
MODEL 4
REMARK VINA RESULT:      26.2      1.503      2.493
REMARK  1 active torsions:
REMARK  status: ('A' for Active; 'I' for Inactive)
REMARK    1  A    between atoms: C_2  and  N_1 
ROOT
ATOM      1  C   UNL d   1      60.306  49.462  50.299  0.00  0.00     0.129 A 
ATOM      2  C   UNL d   1      60.500  49.543  51.097  0.00  0.00     0.043 A 
ATOM      3  C   UNL d   1      59.899  49.626  51.662  0.00  0.00     0.123 A 
ATOM      4  C   UNL d   1      59.110  49.626  51.423  0.00  0.00     0.224 A 
ATOM      5  C   UNL d   1      59.522  49.462  50.067  0.00  0.00     0.038 A 
ATOM      6  C   UNL d   1      58.921  49.545  50.632  0.00  0.00     0.100 A 
ATOM      7  N   UNL d   1      60.091  49.707  52.456  0.00  0.00    -0.241 NA
ATOM      8  O   UNL d   1      58.514  49.708  51.982  0.00  0.00    -0.284 OA
ATOM      9 CL   UNL d   1      58.134  49.545  50.397  0.00  0.00    -0.079 Cl
ATOM     10  C   UNL d   1      61.287  49.543  51.331  0.00  0.00     0.005 A 
ATOM     11  C   UNL d   1      60.884  49.707  52.697  0.00  0.00     0.099 A 
ATOM     12  C   UNL d   1      61.485  49.625  52.132  0.00  0.00     0.021 A 
ENDROOT
BRANCH   1  13
ATOM     13  N   UNL d   1      60.901  49.380  49.740  0.00  0.00    -0.114 N 
ATOM     14  O   UNL d   1      61.590  48.970  49.925  0.00  0.00    -0.532 OA
ATOM     15  O   UNL d   1      60.810  49.707  48.992  0.00  0.00    -0.532 OA
ENDBRANCH   1  13
TORSDOF 1
ENDMDL
