MODEL 1
REMARK VINA RESULT:      27.6      0.000      0.000
REMARK  6 active torsions:
REMARK  status: ('A' for Active; 'I' for Inactive)
REMARK    1  A    between atoms: S_7  and  C_1 
REMARK       I    between atoms: C_6  and  N_9 
REMARK    2  A    between atoms: C_13  and  C_6 
REMARK    3  A    between atoms: C_15  and  S_7 
REMARK    4  A    between atoms: N_9  and  C_16 
REMARK    5  A    between atoms: O_14  and  C_13 
REMARK    6  A    between atoms: C_16  and  C_15 
ROOT
ATOM      1  C   UNL d   1      57.556  49.572  51.021  0.00  0.00     0.049 A 
ATOM      2  N   UNL d   1      56.248  49.313  51.059  0.00  0.00    -0.245 NA
ATOM      3  C   UNL d   1      56.920  49.409  51.521  0.00  0.00     0.087 A 
ATOM      4  C   UNL d   1      57.283  49.578  50.249  0.00  0.00     0.025 A 
ATOM      5  C   UNL d   1      56.467  49.417  50.268  0.00  0.00     0.082 A 
ATOM      6  C   UNL d   1      56.958  49.354  52.343  0.00  0.00     0.021 C 
ATOM      7  C   UNL d   1      57.655  49.707  49.530  0.00  0.00     0.002 A 
ATOM      8  C   UNL d   1      56.034  49.386  49.568  0.00  0.00     0.019 A 
ATOM      9  C   UNL d   1      57.222  49.676  48.829  0.00  0.00     0.000 A 
ATOM     10  C   UNL d   1      56.417  49.517  48.850  0.00  0.00     0.002 A 
ENDROOT
BRANCH   1  11
ATOM     11  S   UNL d   1      58.336  49.707  51.256  0.00  0.00    -0.083 SA
BRANCH  11  12
ATOM     12  C   UNL d   1      58.944  49.692  50.686  0.00  0.00     0.056 C 
BRANCH  12  13
ATOM     13  C   UNL d   1      59.733  49.697  50.931  0.00  0.00     0.109 C 
BRANCH  13  14
ATOM     14  N   UNL d   1      60.220  49.080  50.716  0.00  0.00    -0.204 NA
ATOM     15  C   UNL d   1      60.881  48.905  51.173  0.00  0.00     0.304 C 
ATOM     16  O   UNL d   1      61.051  49.352  51.848  0.00  0.00    -0.263 OA
BRANCH  15  17
ATOM     17  C   UNL d   1      61.380  48.273  50.953  0.00  0.00     0.179 C 
BRANCH  17  18
ATOM     18  O   UNL d   1      61.114  47.725  50.394  0.00  0.00    -0.322 OA
ATOM     19  C   UNL d   1      61.629  47.144  50.103  0.00  0.00     0.182 C 
ENDBRANCH  17  18
ENDBRANCH  15  17
ENDBRANCH  13  14
ENDBRANCH  12  13
ENDBRANCH  11  12
ENDBRANCH   1  11
TORSDOF 6
ENDMDL
