MODEL 1
REMARK VINA RESULT:      -3.3      0.000      0.000
REMARK  5 active torsions:
REMARK  status: ('A' for Active; 'I' for Inactive)
REMARK    1  A    between atoms: C_7  and  N_2 
REMARK    2  A    between atoms: C_15  and  C_7 
REMARK    3  A    between atoms: C_8  and  O_14 
REMARK    4  A    between atoms: O_17  and  C_9 
REMARK    5  A    between atoms: O_14  and  C_15 
ROOT
ATOM      1  C   UNL d   1      33.221  19.108 -23.060  0.00  0.00     0.110 C 
ENDROOT
BRANCH   1   2
ATOM      2  N   UNL d   1      32.886  18.812 -23.757  0.00  0.00    -0.266 N 
ATOM      3  C   UNL d   1      32.887  19.144 -24.520  0.00  0.00     0.296 A 
ATOM      4  S   UNL d   1      32.475  18.627 -25.024  0.00  0.00    -0.025 SA
ATOM      5  O   UNL d   1      33.238  19.860 -24.731  0.00  0.00    -0.259 OA
ATOM      6  C   UNL d   1      32.222  17.980 -24.571  0.00  0.00     0.050 A 
ATOM      7  C   UNL d   1      31.790  17.294 -24.767  0.00  0.00     0.008 A 
ATOM      8  C   UNL d   1      32.474  18.093 -23.793  0.00  0.00     0.074 A 
ATOM      9  C   UNL d   1      31.617  16.735 -24.188  0.00  0.00     0.001 A 
ATOM     10  C   UNL d   1      31.870  16.851 -23.411  0.00  0.00     0.002 A 
ATOM     11  C   UNL d   1      32.296  17.525 -23.213  0.00  0.00     0.018 A 
ENDBRANCH   1   2
BRANCH   1  12
ATOM     12  C   UNL d   1      32.955  19.818 -22.744  0.00  0.00     0.142 C 
BRANCH  12  13
ATOM     13  O   UNL d   1      33.241  20.079 -22.003  0.00  0.00    -0.304 OA
BRANCH  13  14
ATOM     14  C   UNL d   1      32.945  20.778 -21.674  0.00  0.00     0.100 A 
ATOM     15  C   UNL d   1      32.445  20.746 -21.033  0.00  0.00     0.027 A 
ATOM     16  C   UNL d   1      32.148  21.445 -20.703  0.00  0.00     0.026 A 
ATOM     17  C   UNL d   1      32.364  22.173 -21.029  0.00  0.00     0.094 A 
ATOM     18  C   UNL d   1      32.874  22.190 -21.681  0.00  0.00     0.026 A 
ATOM     19  C   UNL d   1      33.161  21.493 -22.000  0.00  0.00     0.027 A 
BRANCH  17  20
ATOM     20  O   UNL d   1      32.073  22.869 -20.706  0.00  0.00    -0.328 OA
ATOM     21  C   UNL d   1      31.860  23.496 -21.199  0.00  0.00     0.181 C 
ENDBRANCH  17  20
ENDBRANCH  13  14
ENDBRANCH  12  13
ENDBRANCH   1  12
TORSDOF 5
ENDMDL
MODEL 2
REMARK VINA RESULT:      -2.9      1.717      4.886
REMARK  5 active torsions:
REMARK  status: ('A' for Active; 'I' for Inactive)
REMARK    1  A    between atoms: C_7  and  N_2 
REMARK    2  A    between atoms: C_15  and  C_7 
REMARK    3  A    between atoms: C_8  and  O_14 
REMARK    4  A    between atoms: O_17  and  C_9 
REMARK    5  A    between atoms: O_14  and  C_15 
ROOT
ATOM      1  C   UNL d   1      33.241  20.647 -21.902  0.00  0.00     0.110 C 
ENDROOT
BRANCH   1   2
ATOM      2  N   UNL d   1      32.830  21.291 -21.583  0.00  0.00    -0.266 N 
ATOM      3  C   UNL d   1      32.347  21.321 -20.907  0.00  0.00     0.296 A 
ATOM      4  S   UNL d   1      32.065  22.099 -20.828  0.00  0.00    -0.025 SA
ATOM      5  O   UNL d   1      32.182  20.685 -20.407  0.00  0.00    -0.259 OA
ATOM      6  C   UNL d   1      32.374  22.545 -21.454  0.00  0.00     0.050 A 
ATOM      7  C   UNL d   1      32.289  23.347 -21.667  0.00  0.00     0.008 A 
ATOM      8  C   UNL d   1      32.844  22.050 -21.919  0.00  0.00     0.074 A 
ATOM      9  C   UNL d   1      32.671  23.642 -22.334  0.00  0.00     0.001 A 
ATOM     10  C   UNL d   1      33.140  23.144 -22.796  0.00  0.00     0.002 A 
ATOM     11  C   UNL d   1      33.227  22.352 -22.591  0.00  0.00     0.018 A 
ENDBRANCH   1   2
BRANCH   1  12
ATOM     12  C   UNL d   1      32.844  20.085 -22.350  0.00  0.00     0.142 C 
BRANCH  12  13
ATOM     13  O   UNL d   1      33.231  19.380 -22.576  0.00  0.00    -0.304 OA
BRANCH  13  14
ATOM     14  C   UNL d   1      32.896  18.898 -23.159  0.00  0.00     0.100 A 
ATOM     15  C   UNL d   1      32.914  19.128 -23.939  0.00  0.00     0.027 A 
ATOM     16  C   UNL d   1      32.578  18.646 -24.522  0.00  0.00     0.026 A 
ATOM     17  C   UNL d   1      32.226  17.930 -24.306  0.00  0.00     0.094 A 
ATOM     18  C   UNL d   1      32.214  17.708 -23.508  0.00  0.00     0.026 A 
ATOM     19  C   UNL d   1      32.549  18.193 -22.939  0.00  0.00     0.027 A 
BRANCH  17  20
ATOM     20  O   UNL d   1      31.891  17.448 -24.879  0.00  0.00    -0.328 OA
ATOM     21  C   UNL d   1      31.088  17.513 -25.058  0.00  0.00     0.181 C 
ENDBRANCH  17  20
ENDBRANCH  13  14
ENDBRANCH  12  13
ENDBRANCH   1  12
TORSDOF 5
ENDMDL
MODEL 3
REMARK VINA RESULT:      -2.3      1.803      4.731
REMARK  5 active torsions:
REMARK  status: ('A' for Active; 'I' for Inactive)
REMARK    1  A    between atoms: C_7  and  N_2 
REMARK    2  A    between atoms: C_15  and  C_7 
REMARK    3  A    between atoms: C_8  and  O_14 
REMARK    4  A    between atoms: O_17  and  C_9 
REMARK    5  A    between atoms: O_14  and  C_15 
ROOT
ATOM      1  C   UNL d   1      33.241  19.214 -23.032  0.00  0.00     0.110 C 
ENDROOT
BRANCH   1   2
ATOM      2  N   UNL d   1      33.191  19.881 -22.545  0.00  0.00    -0.266 N 
ATOM      3  C   UNL d   1      33.131  19.921 -21.717  0.00  0.00     0.296 A 
ATOM      4  S   UNL d   1      33.097  20.724 -21.501  0.00  0.00    -0.025 SA
ATOM      5  O   UNL d   1      33.111  19.274 -21.205  0.00  0.00    -0.259 OA
ATOM      6  C   UNL d   1      33.135  21.174 -22.196  0.00  0.00     0.050 A 
ATOM      7  C   UNL d   1      33.125  21.997 -22.332  0.00  0.00     0.008 A 
ATOM      8  C   UNL d   1      33.192  20.659 -22.838  0.00  0.00     0.074 A 
ATOM      9  C   UNL d   1      33.171  22.291 -23.099  0.00  0.00     0.001 A 
ATOM     10  C   UNL d   1      33.229  21.773 -23.738  0.00  0.00     0.002 A 
ATOM     11  C   UNL d   1      33.239  20.960 -23.610  0.00  0.00     0.018 A 
ENDBRANCH   1   2
BRANCH   1  12
ATOM     12  C   UNL d   1      32.562  18.795 -23.229  0.00  0.00     0.142 C 
BRANCH  12  13
ATOM     13  O   UNL d   1      32.614  18.126 -23.727  0.00  0.00    -0.304 OA
BRANCH  13  14
ATOM     14  C   UNL d   1      31.928  17.703 -23.916  0.00  0.00     0.100 A 
ATOM     15  C   UNL d   1      31.806  16.963 -23.602  0.00  0.00     0.027 A 
ATOM     16  C   UNL d   1      31.120  16.540 -23.791  0.00  0.00     0.026 A 
ATOM     17  C   UNL d   1      30.562  16.875 -24.301  0.00  0.00     0.094 A 
ATOM     18  C   UNL d   1      30.700  17.629 -24.613  0.00  0.00     0.026 A 
ATOM     19  C   UNL d   1      31.381  18.039 -24.420  0.00  0.00     0.027 A 
BRANCH  17  20
ATOM     20  O   UNL d   1      29.881  16.460 -24.492  0.00  0.00    -0.328 OA
ATOM     21  C   UNL d   1      29.197  16.557 -24.040  0.00  0.00     0.181 C 
ENDBRANCH  17  20
ENDBRANCH  13  14
ENDBRANCH  12  13
ENDBRANCH   1  12
TORSDOF 5
ENDMDL
MODEL 4
REMARK VINA RESULT:      -2.1      2.069      5.156
REMARK  5 active torsions:
REMARK  status: ('A' for Active; 'I' for Inactive)
REMARK    1  A    between atoms: C_7  and  N_2 
REMARK    2  A    between atoms: C_15  and  C_7 
REMARK    3  A    between atoms: C_8  and  O_14 
REMARK    4  A    between atoms: O_17  and  C_9 
REMARK    5  A    between atoms: O_14  and  C_15 
ROOT
ATOM      1  C   UNL d   1      32.436  21.254 -20.950  0.00  0.00     0.110 C 
ENDROOT
BRANCH   1   2
ATOM      2  N   UNL d   1      32.432  22.068 -20.803  0.00  0.00    -0.266 N 
ATOM      3  C   UNL d   1      32.177  22.688 -21.296  0.00  0.00     0.296 A 
ATOM      4  S   UNL d   1      32.290  23.403 -20.887  0.00  0.00    -0.025 SA
ATOM      5  O   UNL d   1      31.868  22.600 -22.055  0.00  0.00    -0.259 OA
ATOM      6  C   UNL d   1      32.614  23.222 -20.146  0.00  0.00     0.050 A 
ATOM      7  C   UNL d   1      32.843  23.702 -19.502  0.00  0.00     0.008 A 
ATOM      8  C   UNL d   1      32.701  22.404 -20.092  0.00  0.00     0.074 A 
ATOM      9  C   UNL d   1      33.154  23.360 -18.821  0.00  0.00     0.001 A 
ATOM     10  C   UNL d   1      33.240  22.541 -18.771  0.00  0.00     0.002 A 
ATOM     11  C   UNL d   1      33.016  22.064 -19.403  0.00  0.00     0.018 A 
ENDBRANCH   1   2
BRANCH   1  12
ATOM     12  C   UNL d   1      32.756  20.962 -21.647  0.00  0.00     0.142 C 
BRANCH  12  13
ATOM     13  O   UNL d   1      33.129  20.215 -21.656  0.00  0.00    -0.304 OA
BRANCH  13  14
ATOM     14  C   UNL d   1      33.103  19.752 -22.342  0.00  0.00     0.100 A 
ATOM     15  C   UNL d   1      32.943  18.957 -22.292  0.00  0.00     0.027 A 
ATOM     16  C   UNL d   1      32.917  18.494 -22.977  0.00  0.00     0.026 A 
ATOM     17  C   UNL d   1      33.055  18.847 -23.712  0.00  0.00     0.094 A 
ATOM     18  C   UNL d   1      33.218  19.658 -23.748  0.00  0.00     0.026 A 
ATOM     19  C   UNL d   1      33.241  20.106 -23.064  0.00  0.00     0.027 A 
BRANCH  17  20
ATOM     20  O   UNL d   1      33.031  18.394 -24.395  0.00  0.00    -0.328 OA
ATOM     21  C   UNL d   1      32.350  17.969 -24.586  0.00  0.00     0.181 C 
ENDBRANCH  17  20
ENDBRANCH  13  14
ENDBRANCH  12  13
ENDBRANCH   1  12
TORSDOF 5
ENDMDL
