MODEL 1
REMARK VINA RESULT:      48.3      0.000      0.000
REMARK  5 active torsions:
REMARK  status: ('A' for Active; 'I' for Inactive)
REMARK    1  A    between atoms: N_2  and  S_1 
REMARK    2  A    between atoms: C_4  and  S_1 
REMARK    3  A    between atoms: C_3  and  N_2 
REMARK       I    between atoms: C_6  and  N_2 
REMARK    4  A    between atoms: O_13  and  C_7 
REMARK    5  A    between atoms: C_14  and  O_13 
ROOT
ATOM      1  C   UNL d   1     -51.207  25.723  33.491  0.00  0.00     0.078 A 
ATOM      2  C   UNL d   1     -50.508  26.176  33.585  0.00  0.00     0.019 A 
ATOM      3  C   UNL d   1     -51.253  27.368  33.413  0.00  0.00     0.103 A 
ATOM      4  C   UNL d   1     -50.556  26.995  33.542  0.00  0.00     0.024 A 
ATOM      5  C   UNL d   1     -51.901  26.130  33.361  0.00  0.00     0.020 A 
ATOM      6  C   UNL d   1     -51.959  26.952  33.316  0.00  0.00     0.026 A 
ATOM      7  C   UNL d   1     -49.786  25.815  33.718  0.00  0.00     0.002 A 
ATOM      8  C   UNL d   1     -49.886  27.455  33.631  0.00  0.00     0.002 A 
ATOM      9  C   UNL d   1     -49.111  26.267  33.808  0.00  0.00     0.000 A 
ATOM     10  C   UNL d   1     -49.163  27.093  33.764  0.00  0.00     0.000 A 
ENDROOT
BRANCH   1  11
ATOM     11  N   UNL d   1     -51.164  24.905  33.534  0.00  0.00    -0.198 N 
ATOM     12  C   UNL d   1     -50.446  24.515  33.443  0.00  0.00     0.274 C 
ATOM     13  O   UNL d   1     -49.768  24.944  33.310  0.00  0.00    -0.266 OA
ATOM     14  C   UNL d   1     -50.166  23.723  33.446  0.00  0.00     0.067 C 
BRANCH  11  15
ATOM     15  S   UNL d   1     -51.880  24.469  33.673  0.00  0.00     0.279 S 
ATOM     16  O   UNL d   1     -51.452  23.776  33.473  0.00  0.00    -0.199 OA
ATOM     17  O   UNL d   1     -52.249  25.181  33.860  0.00  0.00    -0.199 OA
BRANCH  15  18
ATOM     18  C   UNL d   1     -52.558  24.040  33.804  0.00  0.00     0.133 A 
ATOM     19  S   UNL d   1     -52.720  23.544  34.449  0.00  0.00    -0.074 SA
ATOM     20  C   UNL d   1     -53.463  23.199  34.398  0.00  0.00     0.036 A 
ATOM     21  C   UNL d   1     -53.806  23.481  33.687  0.00  0.00     0.008 A 
ATOM     22  C   UNL d   1     -53.276  23.992  33.310  0.00  0.00     0.020 A 
ENDBRANCH  15  18
ENDBRANCH  11  15
ENDBRANCH   1  11
BRANCH   3  23
ATOM     23  O   UNL d   1     -51.282  28.236  33.371  0.00  0.00    -0.273 OA
BRANCH  23  24
ATOM     24  C   UNL d   1     -50.576  28.707  33.363  0.00  0.00     0.300 C 
ATOM     25  O   UNL d   1     -49.824  28.355  33.391  0.00  0.00    -0.259 OA
ATOM     26  C   UNL d   1     -50.632  29.652  33.322  0.00  0.00     0.074 C 
ENDBRANCH  23  24
ENDBRANCH   3  23
TORSDOF 5
ENDMDL
