MODEL 1
REMARK VINA RESULT:      -8.7      0.000      0.000
REMARK  4 active torsions:
REMARK  status: ('A' for Active; 'I' for Inactive)
REMARK    1  A    between atoms: C_10  and  C_1 
REMARK    2  A    between atoms: N_7  and  C_4 
REMARK    3  A    between atoms: N_16  and  C_9 
REMARK    4  A    between atoms: C_15  and  C_10 
ROOT
ATOM      1  C   UNL d   1      52.226  32.955  53.163  0.00  0.00     0.143 A 
ATOM      2  C   UNL d   1      52.880  33.286  53.551  0.00  0.00     0.086 A 
ATOM      3  C   UNL d   1      52.256  32.178  52.888  0.00  0.00     0.025 A 
ATOM      4  C   UNL d   1      53.562  32.830  53.660  0.00  0.00     0.019 A 
ATOM      5  C   UNL d   1      52.940  31.734  53.002  0.00  0.00     0.002 A 
ATOM      6  C   UNL d   1      53.593  32.065  53.390  0.00  0.00     0.002 A 
ENDROOT
BRANCH   5   7
ATOM      7  C   UNL d   1      52.969  30.958  52.727  0.00  0.00     0.010 C 
BRANCH   7   8
ATOM      8  C   UNL d   1      53.046  30.337  53.282  0.00  0.00     0.116 A 
ATOM      9  C   UNL d   1      53.798  30.101  53.500  0.00  0.00     0.288 A 
ATOM     10  N   UNL d   1      53.881  29.489  54.046  0.00  0.00    -0.152 NA
ATOM     11  O   UNL d   1      54.458  30.465  53.182  0.00  0.00    -0.265 OA
ATOM     12  C   UNL d   1      53.214  29.121  54.368  0.00  0.00     0.374 A 
ATOM     13  N   UNL d   1      52.470  29.368  54.140  0.00  0.00    -0.152 NA
ATOM     14  O   UNL d   1      53.290  28.506  54.916  0.00  0.00    -0.242 OA
ATOM     15  C   UNL d   1      52.379  29.969  53.604  0.00  0.00     0.288 A 
ATOM     16  O   UNL d   1      51.612  30.210  53.381  0.00  0.00    -0.265 OA
ENDBRANCH   7   8
ENDBRANCH   5   7
BRANCH   1  17
ATOM     17  N   UNL d   1      51.550  33.401  53.053  0.00  0.00    -0.112 N 
ATOM     18  O   UNL d   1      50.960  33.378  53.621  0.00  0.00    -0.532 OA
ATOM     19  O   UNL d   1      51.484  33.853  52.379  0.00  0.00    -0.532 OA
ENDBRANCH   1  17
BRANCH   2  20
ATOM     20  N   UNL d   1      52.846  34.056  53.821  0.00  0.00    -0.300 N 
ATOM     21  C   UNL d   1      52.944  34.685  53.290  0.00  0.00     0.100 C 
ATOM     22  C   UNL d   1      52.716  34.189  54.606  0.00  0.00     0.100 C 
ENDBRANCH   2  20
TORSDOF 4
ENDMDL
MODEL 2
REMARK VINA RESULT:      -8.2      1.105      1.510
REMARK  4 active torsions:
REMARK  status: ('A' for Active; 'I' for Inactive)
REMARK    1  A    between atoms: C_10  and  C_1 
REMARK    2  A    between atoms: N_7  and  C_4 
REMARK    3  A    between atoms: N_16  and  C_9 
REMARK    4  A    between atoms: C_15  and  C_10 
ROOT
ATOM      1  C   UNL d   1      53.763  32.856  53.983  0.00  0.00     0.143 A 
ATOM      2  C   UNL d   1      53.115  33.359  53.863  0.00  0.00     0.086 A 
ATOM      3  C   UNL d   1      53.779  32.109  53.633  0.00  0.00     0.025 A 
ATOM      4  C   UNL d   1      52.486  33.106  53.389  0.00  0.00     0.019 A 
ATOM      5  C   UNL d   1      53.148  31.868  53.163  0.00  0.00     0.002 A 
ATOM      6  C   UNL d   1      52.500  32.371  53.043  0.00  0.00     0.002 A 
ENDROOT
BRANCH   5   7
ATOM      7  C   UNL d   1      53.165  31.123  52.813  0.00  0.00     0.010 C 
BRANCH   7   8
ATOM      8  C   UNL d   1      53.142  30.446  53.305  0.00  0.00     0.116 A 
ATOM      9  C   UNL d   1      53.846  30.073  53.486  0.00  0.00     0.288 A 
ATOM     10  N   UNL d   1      53.830  29.405  53.970  0.00  0.00    -0.152 NA
ATOM     11  O   UNL d   1      54.556  30.355  53.193  0.00  0.00    -0.265 OA
ATOM     12  C   UNL d   1      53.113  29.120  54.266  0.00  0.00     0.374 A 
ATOM     13  N   UNL d   1      52.418  29.504  54.075  0.00  0.00    -0.152 NA
ATOM     14  O   UNL d   1      53.090  28.450  54.752  0.00  0.00    -0.242 OA
ATOM     15  C   UNL d   1      52.424  30.160  53.601  0.00  0.00     0.288 A 
ATOM     16  O   UNL d   1      51.706  30.542  53.415  0.00  0.00    -0.265 OA
ENDBRANCH   7   8
ENDBRANCH   5   7
BRANCH   1  17
ATOM     17  N   UNL d   1      54.387  33.100  54.450  0.00  0.00    -0.112 N 
ATOM     18  O   UNL d   1      54.351  32.978  55.260  0.00  0.00    -0.532 OA
ATOM     19  O   UNL d   1      55.027  33.457  54.096  0.00  0.00    -0.532 OA
ENDBRANCH   1  17
BRANCH   2  20
ATOM     20  N   UNL d   1      53.103  34.097  54.213  0.00  0.00    -0.300 N 
ATOM     21  C   UNL d   1      53.270  34.771  53.760  0.00  0.00     0.100 C 
ATOM     22  C   UNL d   1      52.928  34.155  54.997  0.00  0.00     0.100 C 
ENDBRANCH   2  20
TORSDOF 4
ENDMDL
MODEL 3
REMARK VINA RESULT:      -8.0      1.558      4.108
REMARK  4 active torsions:
REMARK  status: ('A' for Active; 'I' for Inactive)
REMARK    1  A    between atoms: C_10  and  C_1 
REMARK    2  A    between atoms: N_7  and  C_4 
REMARK    3  A    between atoms: N_16  and  C_9 
REMARK    4  A    between atoms: C_15  and  C_10 
ROOT
ATOM      1  C   UNL d   1      53.092  31.796  53.229  0.00  0.00     0.143 A 
ATOM      2  C   UNL d   1      53.554  31.390  53.785  0.00  0.00     0.086 A 
ATOM      3  C   UNL d   1      53.234  32.594  53.075  0.00  0.00     0.025 A 
ATOM      4  C   UNL d   1      54.158  31.792  54.183  0.00  0.00     0.019 A 
ATOM      5  C   UNL d   1      53.837  32.984  53.477  0.00  0.00     0.002 A 
ATOM      6  C   UNL d   1      54.299  32.578  54.032  0.00  0.00     0.002 A 
ENDROOT
BRANCH   5   7
ATOM      7  C   UNL d   1      53.978  33.780  53.322  0.00  0.00     0.010 C 
BRANCH   7   8
ATOM      8  C   UNL d   1      53.576  34.357  53.777  0.00  0.00     0.116 A 
ATOM      9  C   UNL d   1      52.917  34.716  53.454  0.00  0.00     0.288 A 
ATOM     10  N   UNL d   1      52.516  35.284  53.896  0.00  0.00    -0.152 NA
ATOM     11  O   UNL d   1      52.656  34.515  52.704  0.00  0.00    -0.265 OA
ATOM     12  C   UNL d   1      52.779  35.487  54.654  0.00  0.00     0.374 A 
ATOM     13  N   UNL d   1      53.440  35.119  54.962  0.00  0.00    -0.152 NA
ATOM     14  O   UNL d   1      52.381  36.057  55.103  0.00  0.00    -0.242 OA
ATOM     15  C   UNL d   1      53.839  34.559  54.534  0.00  0.00     0.288 A 
ATOM     16  O   UNL d   1      54.513  34.192  54.863  0.00  0.00    -0.265 OA
ENDBRANCH   7   8
ENDBRANCH   5   7
BRANCH   1  17
ATOM     17  N   UNL d   1      52.494  31.405  52.833  0.00  0.00    -0.112 N 
ATOM     18  O   UNL d   1      51.739  31.403  53.152  0.00  0.00    -0.532 OA
ATOM     19  O   UNL d   1      52.668  31.028  52.133  0.00  0.00    -0.532 OA
ENDBRANCH   1  17
BRANCH   2  20
ATOM     20  N   UNL d   1      53.410  30.600  53.934  0.00  0.00    -0.300 N 
ATOM     21  C   UNL d   1      52.962  30.380  54.596  0.00  0.00     0.100 C 
ATOM     22  C   UNL d   1      53.710  30.047  53.431  0.00  0.00     0.100 C 
ENDBRANCH   2  20
TORSDOF 4
ENDMDL
