MODEL 1
REMARK VINA RESULT:      -7.2      0.000      0.000
REMARK  4 active torsions:
REMARK  status: ('A' for Active; 'I' for Inactive)
REMARK    1  A    between atoms: C_6  and  C_1 
REMARK    2  A    between atoms: C_10  and  C_2 
REMARK       I    between atoms: N_14  and  C_6 
REMARK    3  A    between atoms: C_8  and  C_15 
REMARK    4  A    between atoms: C_21  and  N_14 
ROOT
ATOM      1  C   UNL d   1     -48.852  14.316  22.735  0.00  0.00     0.283 C 
ATOM      2  N   UNL d   1     -48.336  14.035  23.313  0.00  0.00    -0.208 NA
ATOM      3  O   UNL d   1     -48.623  14.342  21.942  0.00  0.00    -0.265 OA
ENDROOT
BRANCH   2   4
ATOM      4  C   UNL d   1     -47.584  13.778  23.091  0.00  0.00     0.085 A 
ATOM      5  C   UNL d   1     -47.317  13.025  23.294  0.00  0.00     0.019 A 
ATOM      6  C   UNL d   1     -46.563  12.771  23.070  0.00  0.00     0.003 A 
ATOM      7  C   UNL d   1     -46.076  13.277  22.640  0.00  0.00     0.020 A 
ATOM      8  C   UNL d   1     -46.331  14.034  22.430  0.00  0.00     0.003 A 
ATOM      9  C   UNL d   1     -47.083  14.291  22.652  0.00  0.00     0.019 A 
BRANCH   7  10
ATOM     10  C   UNL d   1     -45.322  13.028  22.415  0.00  0.00     0.118 A 
ATOM     11  N   UNL d   1     -44.944  12.341  22.666  0.00  0.00    -0.059 NA
ATOM     12  C   UNL d   1     -44.205  12.315  22.303  0.00  0.00     0.735 A 
ATOM     13  N   UNL d   1     -43.597  11.759  22.352  0.00  0.00    -0.059 NA
ATOM     14  N   UNL d   1     -44.127  12.975  21.834  0.00  0.00    -0.136 N 
ATOM     15  C   UNL d   1     -42.908  11.880  21.919  0.00  0.00     0.119 A 
ATOM     16  C   UNL d   1     -42.825  12.547  21.442  0.00  0.00     0.041 A 
ATOM     17  C   UNL d   1     -43.430  13.096  21.397  0.00  0.00     0.100 A 
ATOM     18  C   UNL d   1     -44.818  13.417  21.902  0.00  0.00     0.118 A 
ENDBRANCH   7  10
ENDBRANCH   2   4
BRANCH   1  19
ATOM     19  C   UNL d   1     -49.608  14.576  22.946  0.00  0.00     0.102 A 
ATOM     20  C   UNL d   1     -50.310  14.168  22.826  0.00  0.00     0.116 A 
ATOM     21  N   UNL d   1     -50.928  14.638  23.123  0.00  0.00    -0.126 NA
ATOM     22  O   UNL d   1     -50.592  15.330  23.422  0.00  0.00    -0.211 OA
ATOM     23  C   UNL d   1     -49.777  15.295  23.314  0.00  0.00     0.131 A 
ATOM     24  C   UNL d   1     -49.229  15.866  23.530  0.00  0.00     0.029 C 
BRANCH  20  25
ATOM     25  C   UNL d   1     -50.397  13.438  22.482  0.00  0.00     0.031 A 
ATOM     26  C   UNL d   1     -50.707  12.816  22.910  0.00  0.00     0.059 A 
ATOM     27 CL   UNL d   1     -50.934  12.921  23.690  0.00  0.00    -0.082 Cl
ATOM     28  C   UNL d   1     -50.792  12.075  22.552  0.00  0.00     0.011 A 
ATOM     29  C   UNL d   1     -50.566  11.970  21.772  0.00  0.00     0.001 A 
ATOM     30  C   UNL d   1     -50.252  12.593  21.336  0.00  0.00     0.000 A 
ATOM     31  C   UNL d   1     -50.167  13.333  21.693  0.00  0.00     0.002 A 
ENDBRANCH  20  25
ENDBRANCH   1  19
TORSDOF 4
ENDMDL
MODEL 2
REMARK VINA RESULT:      -6.0      1.154      1.921
REMARK  4 active torsions:
REMARK  status: ('A' for Active; 'I' for Inactive)
REMARK    1  A    between atoms: C_6  and  C_1 
REMARK    2  A    between atoms: C_10  and  C_2 
REMARK       I    between atoms: N_14  and  C_6 
REMARK    3  A    between atoms: C_8  and  C_15 
REMARK    4  A    between atoms: C_21  and  N_14 
ROOT
ATOM      1  C   UNL d   1     -49.038  12.537  22.954  0.00  0.00     0.283 C 
ATOM      2  N   UNL d   1     -48.426  12.619  23.499  0.00  0.00    -0.208 NA
ATOM      3  O   UNL d   1     -48.876  12.459  22.147  0.00  0.00    -0.265 OA
ENDROOT
BRANCH   2   4
ATOM      4  C   UNL d   1     -47.646  12.621  23.232  0.00  0.00     0.085 A 
ATOM      5  C   UNL d   1     -47.067  12.172  23.611  0.00  0.00     0.019 A 
ATOM      6  C   UNL d   1     -46.286  12.177  23.340  0.00  0.00     0.003 A 
ATOM      7  C   UNL d   1     -46.087  12.636  22.685  0.00  0.00     0.020 A 
ATOM      8  C   UNL d   1     -46.656  13.090  22.296  0.00  0.00     0.003 A 
ATOM      9  C   UNL d   1     -47.437  13.087  22.564  0.00  0.00     0.019 A 
BRANCH   7  10
ATOM     10  C   UNL d   1     -45.308  12.643  22.412  0.00  0.00     0.118 A 
ATOM     11  N   UNL d   1     -44.729  12.084  22.584  0.00  0.00    -0.059 NA
ATOM     12  C   UNL d   1     -44.039  12.311  22.195  0.00  0.00     0.735 A 
ATOM     13  N   UNL d   1     -43.291  11.961  22.170  0.00  0.00    -0.059 NA
ATOM     14  N   UNL d   1     -44.188  12.999  21.790  0.00  0.00    -0.136 N 
ATOM     15  C   UNL d   1     -42.696  12.318  21.728  0.00  0.00     0.119 A 
ATOM     16  C   UNL d   1     -42.844  13.016  21.315  0.00  0.00     0.041 A 
ATOM     17  C   UNL d   1     -43.586  13.359  21.343  0.00  0.00     0.100 A 
ATOM     18  C   UNL d   1     -44.973  13.207  21.922  0.00  0.00     0.118 A 
ENDBRANCH   7  10
ENDBRANCH   2   4
BRANCH   1  19
ATOM     19  C   UNL d   1     -49.823  12.534  23.210  0.00  0.00     0.102 A 
ATOM     20  C   UNL d   1     -50.336  13.175  23.209  0.00  0.00     0.116 A 
ATOM     21  N   UNL d   1     -51.064  12.916  23.513  0.00  0.00    -0.126 NA
ATOM     22  O   UNL d   1     -50.987  12.116  23.698  0.00  0.00    -0.211 OA
ATOM     23  C   UNL d   1     -50.221  11.876  23.512  0.00  0.00     0.131 A 
ATOM     24  C   UNL d   1     -49.906  11.125  23.606  0.00  0.00     0.029 C 
BRANCH  20  25
ATOM     25  C   UNL d   1     -50.171  13.929  22.958  0.00  0.00     0.031 A 
ATOM     26  C   UNL d   1     -50.437  14.186  22.229  0.00  0.00     0.059 A 
ATOM     27 CL   UNL d   1     -50.871  13.688  21.746  0.00  0.00    -0.082 Cl
ATOM     28  C   UNL d   1     -50.265  14.956  21.980  0.00  0.00     0.011 A 
ATOM     29  C   UNL d   1     -49.831  15.455  22.464  0.00  0.00     0.001 A 
ATOM     30  C   UNL d   1     -49.561  15.201  23.198  0.00  0.00     0.000 A 
ATOM     31  C   UNL d   1     -49.732  14.431  23.447  0.00  0.00     0.002 A 
ENDBRANCH  20  25
ENDBRANCH   1  19
TORSDOF 4
ENDMDL
