MODEL 1
REMARK VINA RESULT:      44.9      0.000      0.000
REMARK  4 active torsions:
REMARK  status: ('A' for Active; 'I' for Inactive)
REMARK    1  A    between atoms: C_20  and  C_4 
REMARK    2  A    between atoms: C_8  and  C_9 
REMARK       I    between atoms: C_9  and  N_18 
REMARK    3  A    between atoms: N_18  and  C_21 
REMARK    4  A    between atoms: C_21  and  C_20 
ROOT
ATOM      1  N   UNL d   1     -50.377  24.587  33.311  0.00  0.00    -0.208 NA
ATOM      2  C   UNL d   1     -51.209  24.650  33.309  0.00  0.00     0.085 A 
ATOM      3  C   UNL d   1     -49.913  25.272  33.311  0.00  0.00     0.279 A 
ATOM      4  C   UNL d   1     -50.278  26.022  33.310  0.00  0.00     0.059 A 
ATOM      5  C   UNL d   1     -51.104  26.078  33.308  0.00  0.00     0.006 A 
ATOM      6  C   UNL d   1     -51.564  25.395  33.308  0.00  0.00     0.018 A 
ATOM      7  C   UNL d   1     -51.664  23.959  33.309  0.00  0.00     0.018 A 
ATOM      8  O   UNL d   1     -49.092  25.214  33.313  0.00  0.00    -0.265 OA
ATOM      9  C   UNL d   1     -52.486  24.017  33.307  0.00  0.00     0.002 A 
ATOM     10  C   UNL d   1     -52.391  25.449  33.306  0.00  0.00     0.002 A 
ATOM     11  C   UNL d   1     -52.852  24.766  33.306  0.00  0.00     0.000 A 
ATOM     12  C   UNL d   1     -51.295  23.221  33.310  0.00  0.00     0.002 C 
ATOM     13  C   UNL d   1     -52.945  23.334  33.307  0.00  0.00     0.000 C 
ENDROOT
BRANCH   4  14
ATOM     14  C   UNL d   1     -49.816  26.697  33.311  0.00  0.00     0.026 C 
BRANCH  14  15
ATOM     15  C   UNL d   1     -49.848  27.229  33.933  0.00  0.00     0.102 C 
BRANCH  15  16
ATOM     16  N   UNL d   1     -49.276  27.817  34.023  0.00  0.00    -0.206 NA
ATOM     17  C   UNL d   1     -49.004  28.024  34.775  0.00  0.00     0.285 C 
ATOM     18  O   UNL d   1     -49.301  27.647  35.441  0.00  0.00    -0.265 OA
BRANCH  17  19
ATOM     19  C   UNL d   1     -48.430  28.615  34.856  0.00  0.00     0.087 A 
ATOM     20  S   UNL d   1     -47.789  28.593  35.360  0.00  0.00    -0.082 SA
ATOM     21  C   UNL d   1     -47.361  29.277  35.273  0.00  0.00     0.036 A 
ATOM     22  C   UNL d   1     -47.742  29.741  34.699  0.00  0.00     0.008 A 
ATOM     23  C   UNL d   1     -48.406  29.328  34.441  0.00  0.00     0.012 A 
ENDBRANCH  17  19
ENDBRANCH  15  16
ENDBRANCH  14  15
ENDBRANCH   4  14
TORSDOF 4
ENDMDL
