MODEL 1
REMARK VINA RESULT:     110.4      0.000      0.000
REMARK  9 active torsions:
REMARK  status: ('A' for Active; 'I' for Inactive)
REMARK    1  A    between atoms: N_6  and  S_1 
REMARK    2  A    between atoms: C_12  and  S_1 
REMARK    3  A    between atoms: C_2  and  C_3 
REMARK    4  A    between atoms: C_4  and  C_2 
REMARK    5  A    between atoms: C_5  and  C_2 
REMARK    6  A    between atoms: O_14  and  C_4 
REMARK    7  A    between atoms: C_9  and  C_5 
REMARK    8  A    between atoms: C_7  and  N_6 
REMARK    9  A    between atoms: C_29  and  O_14 
ROOT
ATOM      1  C   UNL d   1      61.226  47.220  50.667  0.00  0.00     0.049 A 
ATOM      2  C   UNL d   1      60.928  48.602  50.487  0.00  0.00     0.094 A 
ATOM      3  C   UNL d   1      61.460  47.381  51.447  0.00  0.00     0.196 A 
ATOM      4  C   UNL d   1      60.961  47.829  50.189  0.00  0.00     0.023 A 
ATOM      5  C   UNL d   1      61.428  48.158  51.749  0.00  0.00     0.040 A 
ATOM      6  C   UNL d   1      61.163  48.767  51.271  0.00  0.00     0.021 A 
ATOM      7  O   UNL d   1      61.727  46.767  51.929  0.00  0.00    -0.287 OA
ATOM      8  C   UNL d   1      61.670  48.268  52.527  0.00  0.00     0.003 A 
ATOM      9  C   UNL d   1      61.127  49.540  51.560  0.00  0.00     0.002 A 
ATOM     10  C   UNL d   1      61.623  49.106  52.814  0.00  0.00     0.000 A 
ATOM     11  C   UNL d   1      61.364  49.700  52.347  0.00  0.00     0.000 A 
ENDROOT
BRANCH   2  12
ATOM     12  N   UNL d   1      60.650  49.209  49.969  0.00  0.00    -0.158 NA
BRANCH  12  13
ATOM     13  S   UNL d   1      59.845  49.308  49.853  0.00  0.00     0.285 S 
ATOM     14  O   UNL d   1      59.697  49.048  50.637  0.00  0.00    -0.198 OA
ATOM     15  O   UNL d   1      59.971  49.566  49.076  0.00  0.00    -0.198 OA
BRANCH  13  16
ATOM     16  C   UNL d   1      59.008  49.406  49.746  0.00  0.00     0.105 A 
ATOM     17  C   UNL d   1      58.495  49.359  50.373  0.00  0.00     0.013 A 
ATOM     18  C   UNL d   1      57.696  49.453  50.269  0.00  0.00     0.001 A 
ATOM     19  C   UNL d   1      57.198  49.404  50.908  0.00  0.00     0.000 A 
ATOM     20  C   UNL d   1      57.381  49.603  49.492  0.00  0.00     0.000 A 
ATOM     21  C   UNL d   1      56.339  49.503  50.809  0.00  0.00     0.000 A 
ATOM     22  C   UNL d   1      56.039  49.650  50.043  0.00  0.00     0.000 A 
ATOM     23  C   UNL d   1      56.557  49.701  49.379  0.00  0.00     0.000 A 
ATOM     24  C   UNL d   1      57.916  49.645  48.880  0.00  0.00     0.001 A 
ATOM     25  C   UNL d   1      58.719  49.550  48.987  0.00  0.00     0.013 A 
ENDBRANCH  13  16
ENDBRANCH  12  13
ENDBRANCH   2  12
BRANCH   1  26
ATOM     26  C   UNL d   1      61.258  46.443  50.365  0.00  0.00     0.110 C 
BRANCH  26  27
ATOM     27  C   UNL d   1      60.539  46.067  50.207  0.00  0.00     0.303 C 
ATOM     28  O   UNL d   1      60.210  46.091  49.450  0.00  0.00    -0.259 OA
BRANCH  27  29
ATOM     29  O   UNL d   1      60.186  45.680  50.836  0.00  0.00    -0.273 OA
BRANCH  29  30
ATOM     30  C   UNL d   1      60.343  44.877  50.944  0.00  0.00     0.103 C 
ATOM     31  C   UNL d   1      59.977  44.475  51.532  0.00  0.00     0.027 C 
ATOM     32  C   UNL d   1      60.876  44.504  50.442  0.00  0.00     0.027 C 
ENDBRANCH  29  30
ENDBRANCH  27  29
ENDBRANCH  26  27
BRANCH  26  33
ATOM     33  C   UNL d   1      61.990  46.066  50.230  0.00  0.00     0.272 C 
ATOM     34  O   UNL d   1      62.270  45.543  50.768  0.00  0.00    -0.282 OA
BRANCH  33  35
ATOM     35  C   UNL d   1      62.412  46.235  49.550  0.00  0.00     0.456 C 
ATOM     36  F   UNL d   1      61.684  46.182  49.124  0.00  0.00    -0.163 F 
ATOM     37  F   UNL d   1      63.106  46.281  49.991  0.00  0.00    -0.163 F 
ATOM     38  F   UNL d   1      62.807  46.402  48.861  0.00  0.00    -0.163 F 
ENDBRANCH  33  35
ENDBRANCH  26  33
ENDBRANCH   1  26
TORSDOF 9
ENDMDL
