MODEL 1
REMARK VINA RESULT:      -5.8      0.000      0.000
REMARK  2 active torsions:
REMARK  status: ('A' for Active; 'I' for Inactive)
REMARK    1  A    between atoms: C_4  and  C_1 
REMARK    2  A    between atoms: C_8  and  C_4 
ROOT
ATOM      1  C   UNL d   1     -41.555-122.071 -52.422  0.00  0.00     0.139 A 
ATOM      2  O   UNL d   1     -42.136-121.730 -52.907  0.00  0.00    -0.304 OA
ATOM      3  C   UNL d   1     -41.123-122.601 -52.851  0.00  0.00     0.030 A 
ATOM      4  C   UNL d   1     -42.046-122.073 -53.657  0.00  0.00     0.100 A 
ATOM      5  C   UNL d   1     -41.423-122.609 -53.623  0.00  0.00     0.025 A 
ATOM      6  C   UNL d   1     -42.463-121.955 -54.367  0.00  0.00     0.025 A 
ATOM      7  C   UNL d   1     -41.200-123.042 -54.296  0.00  0.00     0.002 A 
ATOM      8  C   UNL d   1     -42.239-122.386 -55.034  0.00  0.00     0.002 A 
ATOM      9  C   UNL d   1     -41.616-122.923 -54.999  0.00  0.00     0.000 A 
ENDROOT
BRANCH   1  10
ATOM     10  C   UNL d   1     -41.441-121.885 -51.609  0.00  0.00     0.218 C 
ATOM     11  O   UNL d   1     -41.123-121.151 -51.383  0.00  0.00    -0.284 OA
BRANCH  10  12
ATOM     12  C   UNL d   1     -41.642-122.427 -51.019  0.00  0.00     0.041 A 
ATOM     13  C   UNL d   1     -42.370-122.338 -50.634  0.00  0.00     0.003 A 
ATOM     14  C   UNL d   1     -42.576-122.882 -50.039  0.00  0.00     0.000 A 
ATOM     15  C   UNL d   1     -42.066-123.495 -49.839  0.00  0.00     0.000 A 
ATOM     16  C   UNL d   1     -41.341-123.577 -50.229  0.00  0.00     0.000 A 
ATOM     17  C   UNL d   1     -41.133-123.040 -50.819  0.00  0.00     0.003 A 
ENDBRANCH  10  12
ENDBRANCH   1  10
TORSDOF 2
ENDMDL
MODEL 2
REMARK VINA RESULT:      -5.5      0.986      3.799
REMARK  2 active torsions:
REMARK  status: ('A' for Active; 'I' for Inactive)
REMARK    1  A    between atoms: C_4  and  C_1 
REMARK    2  A    between atoms: C_8  and  C_4 
ROOT
ATOM      1  C   UNL d   1     -41.380-122.889 -53.278  0.00  0.00     0.139 A 
ATOM      2  O   UNL d   1     -41.252-122.119 -52.996  0.00  0.00    -0.304 OA
ATOM      3  C   UNL d   1     -41.438-123.398 -52.655  0.00  0.00     0.030 A 
ATOM      4  C   UNL d   1     -41.233-122.172 -52.169  0.00  0.00     0.100 A 
ATOM      5  C   UNL d   1     -41.347-122.959 -51.958  0.00  0.00     0.025 A 
ATOM      6  C   UNL d   1     -41.123-121.590 -51.585  0.00  0.00     0.025 A 
ATOM      7  C   UNL d   1     -41.355-123.186 -51.158  0.00  0.00     0.002 A 
ATOM      8  C   UNL d   1     -41.132-121.818 -50.792  0.00  0.00     0.002 A 
ATOM      9  C   UNL d   1     -41.247-122.606 -50.582  0.00  0.00     0.000 A 
ENDROOT
BRANCH   1  10
ATOM     10  C   UNL d   1     -41.439-123.098 -54.092  0.00  0.00     0.218 C 
ATOM     11  O   UNL d   1     -41.124-123.816 -54.368  0.00  0.00    -0.284 OA
BRANCH  10  12
ATOM     12  C   UNL d   1     -41.810-122.595 -54.631  0.00  0.00     0.041 A 
ATOM     13  C   UNL d   1     -41.340-122.083 -55.082  0.00  0.00     0.003 A 
ATOM     14  C   UNL d   1     -41.711-121.575 -55.626  0.00  0.00     0.000 A 
ATOM     15  C   UNL d   1     -42.528-121.582 -55.715  0.00  0.00     0.000 A 
ATOM     16  C   UNL d   1     -42.991-122.097 -55.262  0.00  0.00     0.000 A 
ATOM     17  C   UNL d   1     -42.627-122.602 -54.720  0.00  0.00     0.003 A 
ENDBRANCH  10  12
ENDBRANCH   1  10
TORSDOF 2
ENDMDL
MODEL 3
REMARK VINA RESULT:      -3.2      1.662      2.683
REMARK  2 active torsions:
REMARK  status: ('A' for Active; 'I' for Inactive)
REMARK    1  A    between atoms: C_4  and  C_1 
REMARK    2  A    between atoms: C_8  and  C_4 
ROOT
ATOM      1  C   UNL d   1     -42.373-122.925 -50.057  0.00  0.00     0.139 A 
ATOM      2  O   UNL d   1     -42.404-122.199 -50.458  0.00  0.00    -0.304 OA
ATOM      3  C   UNL d   1     -41.958-123.459 -50.498  0.00  0.00     0.030 A 
ATOM      4  C   UNL d   1     -41.990-122.305 -51.169  0.00  0.00     0.100 A 
ATOM      5  C   UNL d   1     -41.715-123.081 -51.193  0.00  0.00     0.025 A 
ATOM      6  C   UNL d   1     -41.833-121.783 -51.796  0.00  0.00     0.025 A 
ATOM      7  C   UNL d   1     -41.276-123.354 -51.845  0.00  0.00     0.002 A 
ATOM      8  C   UNL d   1     -41.397-122.056 -52.441  0.00  0.00     0.002 A 
ATOM      9  C   UNL d   1     -41.123-122.831 -52.465  0.00  0.00     0.000 A 
ENDROOT
BRANCH   1  10
ATOM     10  C   UNL d   1     -42.723-123.072 -49.306  0.00  0.00     0.218 C 
ATOM     11  O   UNL d   1     -43.550-123.090 -49.221  0.00  0.00    -0.284 OA
BRANCH  10  12
ATOM     12  C   UNL d   1     -42.254-123.201 -48.639  0.00  0.00     0.041 A 
ATOM     13  C   UNL d   1     -42.461-122.824 -47.931  0.00  0.00     0.003 A 
ATOM     14  C   UNL d   1     -41.991-122.953 -47.257  0.00  0.00     0.000 A 
ATOM     15  C   UNL d   1     -41.333-123.444 -47.294  0.00  0.00     0.000 A 
ATOM     16  C   UNL d   1     -41.132-123.817 -48.005  0.00  0.00     0.000 A 
ATOM     17  C   UNL d   1     -41.596-123.693 -48.675  0.00  0.00     0.003 A 
ENDBRANCH  10  12
ENDBRANCH   1  10
TORSDOF 2
ENDMDL
