MODEL 1
REMARK VINA RESULT:      52.2      0.000      0.000
REMARK  1 active torsions:
REMARK  status: ('A' for Active; 'I' for Inactive)
REMARK    1  A    between atoms: C_2  and  N_1 
ROOT
ATOM      1  C   UNL d   1     -58.236 -99.080 -43.049  0.00  0.00     0.153 A 
ATOM      2  C   UNL d   1     -58.755 -98.970 -43.670  0.00  0.00     0.059 A 
ATOM      3  C   UNL d   1     -59.591 -98.849 -43.502  0.00  0.00     0.115 A 
ATOM      4  S   UNL d   1     -59.961 -98.757 -44.238  0.00  0.00    -0.068 SA
ATOM      5  C   UNL d   1     -58.658 -98.947 -44.484  0.00  0.00     0.011 A 
ATOM      6  C   UNL d   1     -59.394 -98.817 -44.833  0.00  0.00     0.031 A 
ATOM      7  N   UNL d   1     -58.486 -99.079 -42.242  0.00  0.00    -0.206 NA
ATOM      8  N   UNL d   1     -59.863 -98.843 -42.730  0.00  0.00    -0.217 NA
ATOM      9  C   UNL d   1     -59.338 -98.955 -42.075  0.00  0.00     0.201 A 
ATOM     10  C   UNL d   1     -57.991 -99.028 -44.969  0.00  0.00     0.001 A 
ATOM     11  C   UNL d   1     -59.473 -98.766 -45.668  0.00  0.00     0.006 A 
ATOM     12  C   UNL d   1     -58.041 -98.980 -45.823  0.00  0.00     0.000 A 
ATOM     13  C   UNL d   1     -58.787 -98.850 -46.134  0.00  0.00     0.001 A 
ENDROOT
BRANCH   1  14
ATOM     14  N   UNL d   1     -57.608 -99.152 -43.577  0.00  0.00    -0.273 N 
ATOM     15  C   UNL d   1     -57.995 -99.484 -44.260  0.00  0.00     0.184 A 
ATOM     16  N   UNL d   1     -57.440 -99.593 -44.848  0.00  0.00    -0.224 NA
ATOM     17  C   UNL d   1     -56.719 -99.343 -44.560  0.00  0.00     0.099 A 
ATOM     18  C   UNL d   1     -56.794 -99.059 -43.758  0.00  0.00     0.085 A 
ATOM     19  C   UNL d   1     -55.975 -99.325 -44.905  0.00  0.00     0.021 A 
ATOM     20  C   UNL d   1     -56.154 -98.780 -43.350  0.00  0.00     0.019 A 
ATOM     21  C   UNL d   1     -55.413 -98.770 -43.716  0.00  0.00     0.002 A 
ATOM     22  C   UNL d   1     -55.338 -99.041 -44.482  0.00  0.00     0.002 A 
ENDBRANCH   1  14
TORSDOF 1
ENDMDL
