MODEL 1
REMARK VINA RESULT:      -6.1      0.000      0.000
REMARK  1 active torsions:
REMARK  status: ('A' for Active; 'I' for Inactive)
REMARK    1  A    between atoms: C_7  and  C_4 
ROOT
ATOM      1  N   UNL d   1      56.943   0.346  31.932  0.00  0.00    -0.242 NA
ATOM      2  C   UNL d   1      56.575  -1.024  32.156  0.00  0.00     0.156 A 
ATOM      3  N   UNL d   1      57.005  -1.247  31.486  0.00  0.00    -0.231 NA
ATOM      4  C   UNL d   1      56.544  -0.222  32.379  0.00  0.00     0.110 A 
ATOM      5  C   UNL d   1      57.371   0.115  31.263  0.00  0.00     0.099 A 
ATOM      6  C   UNL d   1      57.398  -0.680  31.046  0.00  0.00     0.100 A 
ATOM      7 CL   UNL d   1      56.176  -1.589  32.604  0.00  0.00    -0.060 Cl
ATOM      8  C   UNL d   1      57.775   0.682  30.809  0.00  0.00     0.021 A 
ATOM      9  C   UNL d   1      57.829  -0.909  30.374  0.00  0.00     0.021 A 
ATOM     10  C   UNL d   1      58.228  -0.345  29.925  0.00  0.00     0.002 A 
ATOM     11  C   UNL d   1      58.201   0.450  30.143  0.00  0.00     0.002 A 
ENDROOT
BRANCH   4  12
ATOM     12  C   UNL d   1      56.119   0.001  33.042  0.00  0.00     0.020 A 
ATOM     13  C   UNL d   1      56.507   0.166  33.745  0.00  0.00     0.002 A 
ATOM     14  C   UNL d   1      56.086   0.390  34.413  0.00  0.00     0.000 A 
ATOM     15  C   UNL d   1      55.256   0.451  34.377  0.00  0.00     0.000 A 
ATOM     16  C   UNL d   1      54.863   0.284  33.662  0.00  0.00     0.000 A 
ATOM     17  C   UNL d   1      54.822   0.676  35.043  0.00  0.00     0.000 C 
ATOM     18  C   UNL d   1      55.297   0.059  32.998  0.00  0.00     0.002 A 
ENDBRANCH   4  12
TORSDOF 1
ENDMDL
MODEL 2
REMARK VINA RESULT:      -4.9      0.995      3.848
REMARK  1 active torsions:
REMARK  status: ('A' for Active; 'I' for Inactive)
REMARK    1  A    between atoms: C_7  and  C_4 
ROOT
ATOM      1  N   UNL d   1      56.044   0.067  32.485  0.00  0.00    -0.242 NA
ATOM      2  C   UNL d   1      57.304   0.523  33.003  0.00  0.00     0.156 A 
ATOM      3  N   UNL d   1      56.947   0.675  33.732  0.00  0.00    -0.231 NA
ATOM      4  C   UNL d   1      56.849   0.217  32.376  0.00  0.00     0.110 A 
ATOM      5  C   UNL d   1      55.694   0.223  33.217  0.00  0.00     0.099 A 
ATOM      6  C   UNL d   1      56.149   0.526  33.836  0.00  0.00     0.100 A 
ATOM      7 CL   UNL d   1      58.107   0.671  32.892  0.00  0.00    -0.060 Cl
ATOM      8  C   UNL d   1      54.885   0.075  33.334  0.00  0.00     0.021 A 
ATOM      9  C   UNL d   1      55.794   0.681  34.570  0.00  0.00     0.021 A 
ATOM     10  C   UNL d   1      54.992   0.534  34.683  0.00  0.00     0.002 A 
ATOM     11  C   UNL d   1      54.537   0.230  34.064  0.00  0.00     0.002 A 
ENDROOT
BRANCH   4  12
ATOM     12  C   UNL d   1      57.201   0.064  31.653  0.00  0.00     0.020 A 
ATOM     13  C   UNL d   1      57.397   0.682  31.152  0.00  0.00     0.002 A 
ATOM     14  C   UNL d   1      57.751   0.535  30.425  0.00  0.00     0.000 A 
ATOM     15  C   UNL d   1      57.912  -0.249  30.194  0.00  0.00     0.000 A 
ATOM     16  C   UNL d   1      57.711  -0.875  30.706  0.00  0.00     0.000 A 
ATOM     17  C   UNL d   1      58.267  -0.408  29.465  0.00  0.00     0.000 C 
ATOM     18  C   UNL d   1      57.357  -0.715  31.432  0.00  0.00     0.002 A 
ENDBRANCH   4  12
TORSDOF 1
ENDMDL
MODEL 3
REMARK VINA RESULT:      -4.9      1.185      4.085
REMARK  1 active torsions:
REMARK  status: ('A' for Active; 'I' for Inactive)
REMARK    1  A    between atoms: C_7  and  C_4 
ROOT
ATOM      1  N   UNL d   1      57.428   0.338  31.295  0.00  0.00    -0.242 NA
ATOM      2  C   UNL d   1      57.534  -1.028  30.861  0.00  0.00     0.156 A 
ATOM      3  N   UNL d   1      56.995  -1.253  31.445  0.00  0.00    -0.231 NA
ATOM      4  C   UNL d   1      57.751  -0.227  30.786  0.00  0.00     0.110 A 
ATOM      5  C   UNL d   1      56.888   0.104  31.876  0.00  0.00     0.099 A 
ATOM      6  C   UNL d   1      56.676  -0.690  31.947  0.00  0.00     0.100 A 
ATOM      7 CL   UNL d   1      57.859  -1.589  30.353  0.00  0.00    -0.060 Cl
ATOM      8  C   UNL d   1      56.559   0.667  32.391  0.00  0.00     0.021 A 
ATOM      9  C   UNL d   1      56.135  -0.921  32.532  0.00  0.00     0.021 A 
ATOM     10  C   UNL d   1      55.809  -0.361  33.041  0.00  0.00     0.002 A 
ATOM     11  C   UNL d   1      56.021   0.433  32.970  0.00  0.00     0.002 A 
ENDROOT
BRANCH   4  12
ATOM     12  C   UNL d   1      58.286  -0.001  30.209  0.00  0.00     0.020 A 
ATOM     13  C   UNL d   1      58.031   0.138  29.443  0.00  0.00     0.002 A 
ATOM     14  C   UNL d   1      58.562   0.364  28.860  0.00  0.00     0.000 A 
ATOM     15  C   UNL d   1      59.369   0.454  29.047  0.00  0.00     0.000 A 
ATOM     16  C   UNL d   1      59.626   0.313  29.827  0.00  0.00     0.000 A 
ATOM     17  C   UNL d   1      59.912   0.682  28.468  0.00  0.00     0.000 C 
ATOM     18  C   UNL d   1      59.083   0.086  30.403  0.00  0.00     0.002 A 
ENDBRANCH   4  12
TORSDOF 1
ENDMDL
MODEL 4
REMARK VINA RESULT:      -3.5      1.301      2.003
REMARK  1 active torsions:
REMARK  status: ('A' for Active; 'I' for Inactive)
REMARK    1  A    between atoms: C_7  and  C_4 
ROOT
ATOM      1  N   UNL d   1      57.514   0.026  30.518  0.00  0.00    -0.242 NA
ATOM      2  C   UNL d   1      58.314   0.519  31.605  0.00  0.00     0.156 A 
ATOM      3  N   UNL d   1      58.928   0.679  31.076  0.00  0.00    -0.231 NA
ATOM      4  C   UNL d   1      57.602   0.191  31.323  0.00  0.00     0.110 A 
ATOM      5  C   UNL d   1      58.133   0.190  29.996  0.00  0.00     0.099 A 
ATOM      6  C   UNL d   1      58.836   0.515  30.280  0.00  0.00     0.100 A 
ATOM      7 CL   UNL d   1      58.400   0.682  32.408  0.00  0.00    -0.060 Cl
ATOM      8  C   UNL d   1      58.051   0.027  29.185  0.00  0.00     0.021 A 
ATOM      9  C   UNL d   1      59.457   0.678  29.752  0.00  0.00     0.021 A 
ATOM     10  C   UNL d   1      59.372   0.516  28.950  0.00  0.00     0.002 A 
ATOM     11  C   UNL d   1      58.669   0.190  28.666  0.00  0.00     0.002 A 
ENDROOT
BRANCH   4  12
ATOM     12  C   UNL d   1      56.992   0.031  31.844  0.00  0.00     0.020 A 
ATOM     13  C   UNL d   1      56.526   0.639  32.132  0.00  0.00     0.002 A 
ATOM     14  C   UNL d   1      55.912   0.485  32.656  0.00  0.00     0.000 A 
ATOM     15  C   UNL d   1      55.761  -0.298  32.897  0.00  0.00     0.000 A 
ATOM     16  C   UNL d   1      56.237  -0.915  32.603  0.00  0.00     0.000 A 
ATOM     17  C   UNL d   1      55.146  -0.464  33.423  0.00  0.00     0.000 C 
ATOM     18  C   UNL d   1      56.850  -0.747  32.078  0.00  0.00     0.002 A 
ENDBRANCH   4  12
TORSDOF 1
ENDMDL
