MODEL 1
REMARK VINA RESULT:      -0.2      0.000      0.000
REMARK  4 active torsions:
REMARK  status: ('A' for Active; 'I' for Inactive)
REMARK    1  A    between atoms: C_12  and  C_2 
REMARK    2  A    between atoms: C_13  and  C_3 
REMARK    3  A    between atoms: N_8  and  C_6 
REMARK       I    between atoms: C_7  and  N_9 
REMARK    4  A    between atoms: N_9  and  N_8 
ROOT
ATOM      1  C   UNL d   1     -41.491-121.960 -52.814  0.00  0.00     0.196 A 
ATOM      2  C   UNL d   1     -41.632-122.787 -52.864  0.00  0.00     0.041 A 
ATOM      3  C   UNL d   1     -41.412-121.592 -52.107  0.00  0.00     0.041 A 
ATOM      4  C   UNL d   1     -41.692-123.240 -52.160  0.00  0.00     0.024 A 
ATOM      5  C   UNL d   1     -41.470-122.026 -51.406  0.00  0.00     0.024 A 
ATOM      6  C   UNL d   1     -41.607-122.837 -51.432  0.00  0.00     0.103 A 
ATOM      7  O   UNL d   1     -41.424-121.471 -53.517  0.00  0.00    -0.287 OA
ENDROOT
BRANCH   6   8
ATOM      8  N   UNL d   1     -41.667-123.290 -50.713  0.00  0.00    -0.144 NA
BRANCH   8   9
ATOM      9  N   UNL d   1     -42.396-123.439 -50.333  0.00  0.00    -0.087 NA
ATOM     10  C   UNL d   1     -42.446-123.674 -49.535  0.00  0.00     0.404 C 
ATOM     11  O   UNL d   1     -41.744-123.765 -49.096  0.00  0.00    -0.239 OA
ATOM     12  N   UNL d   1     -43.188-123.816 -49.182  0.00  0.00    -0.083 N 
ENDBRANCH   8   9
ENDBRANCH   6   8
BRANCH   3  13
ATOM     13  C   UNL d   1     -41.274-120.778 -52.095  0.00  0.00     0.003 C 
ATOM     14  C   UNL d   1     -41.123-120.401 -51.400  0.00  0.00     0.000 C 
ATOM     15  C   UNL d   1     -41.293-120.353 -52.803  0.00  0.00     0.000 C 
ENDBRANCH   3  13
BRANCH   2  16
ATOM     16  C   UNL d   1     -41.709-123.146 -53.582  0.00  0.00     0.003 C 
ATOM     17  C   UNL d   1     -41.188-123.730 -53.784  0.00  0.00     0.000 C 
ATOM     18  C   UNL d   1     -42.289-122.930 -54.086  0.00  0.00     0.000 C 
ENDBRANCH   2  16
TORSDOF 4
ENDMDL
MODEL 2
REMARK VINA RESULT:       0.7      1.898      2.853
REMARK  4 active torsions:
REMARK  status: ('A' for Active; 'I' for Inactive)
REMARK    1  A    between atoms: C_12  and  C_2 
REMARK    2  A    between atoms: C_13  and  C_3 
REMARK    3  A    between atoms: N_8  and  C_6 
REMARK       I    between atoms: C_7  and  N_9 
REMARK    4  A    between atoms: N_9  and  N_8 
ROOT
ATOM      1  C   UNL d   1     -42.711-122.261 -50.702  0.00  0.00     0.196 A 
ATOM      2  C   UNL d   1     -41.875-122.341 -50.752  0.00  0.00     0.041 A 
ATOM      3  C   UNL d   1     -43.113-122.490 -50.049  0.00  0.00     0.041 A 
ATOM      4  C   UNL d   1     -41.451-122.667 -50.106  0.00  0.00     0.024 A 
ATOM      5  C   UNL d   1     -42.708-122.813 -49.405  0.00  0.00     0.024 A 
ATOM      6  C   UNL d   1     -41.890-122.901 -49.433  0.00  0.00     0.103 A 
ATOM      7  O   UNL d   1     -43.172-121.930 -51.347  0.00  0.00    -0.287 OA
ENDROOT
BRANCH   6   8
ATOM      8  N   UNL d   1     -41.466-123.233 -48.773  0.00  0.00    -0.144 NA
BRANCH   8   9
ATOM      9  N   UNL d   1     -41.249-122.784 -48.105  0.00  0.00    -0.087 NA
ATOM     10  C   UNL d   1     -41.349-123.061 -47.325  0.00  0.00     0.404 C 
ATOM     11  O   UNL d   1     -41.680-123.817 -47.205  0.00  0.00    -0.239 OA
ATOM     12  N   UNL d   1     -41.123-122.590 -46.676  0.00  0.00    -0.083 N 
ENDBRANCH   8   9
ENDBRANCH   6   8
BRANCH   3  13
ATOM     13  C   UNL d   1     -43.934-122.397 -50.034  0.00  0.00     0.003 C 
ATOM     14  C   UNL d   1     -44.261-121.661 -50.057  0.00  0.00     0.000 C 
ATOM     15  C   UNL d   1     -44.417-123.065 -49.994  0.00  0.00     0.000 C 
ENDBRANCH   3  13
BRANCH   2  16
ATOM     16  C   UNL d   1     -41.482-122.106 -51.416  0.00  0.00     0.003 C 
ATOM     17  C   UNL d   1     -41.248-122.666 -51.950  0.00  0.00     0.000 C 
ATOM     18  C   UNL d   1     -41.324-121.335 -51.546  0.00  0.00     0.000 C 
ENDBRANCH   2  16
TORSDOF 4
ENDMDL
MODEL 3
REMARK VINA RESULT:       1.5      1.101      2.431
REMARK  4 active torsions:
REMARK  status: ('A' for Active; 'I' for Inactive)
REMARK    1  A    between atoms: C_12  and  C_2 
REMARK    2  A    between atoms: C_13  and  C_3 
REMARK    3  A    between atoms: N_8  and  C_6 
REMARK       I    between atoms: C_7  and  N_9 
REMARK    4  A    between atoms: N_9  and  N_8 
ROOT
ATOM      1  C   UNL d   1     -41.767-122.308 -53.981  0.00  0.00     0.196 A 
ATOM      2  C   UNL d   1     -41.706-121.812 -53.303  0.00  0.00     0.041 A 
ATOM      3  C   UNL d   1     -41.716-123.104 -53.919  0.00  0.00     0.041 A 
ATOM      4  C   UNL d   1     -41.588-122.157 -52.548  0.00  0.00     0.024 A 
ATOM      5  C   UNL d   1     -41.600-123.457 -53.181  0.00  0.00     0.024 A 
ATOM      6  C   UNL d   1     -41.537-122.991 -52.506  0.00  0.00     0.103 A 
ATOM      7  O   UNL d   1     -41.888-121.984 -54.767  0.00  0.00    -0.287 OA
ENDROOT
BRANCH   6   8
ATOM      8  N   UNL d   1     -41.418-123.347 -51.741  0.00  0.00    -0.144 NA
BRANCH   8   9
ATOM      9  N   UNL d   1     -41.242-122.901 -51.058  0.00  0.00    -0.087 NA
ATOM     10  C   UNL d   1     -41.503-123.123 -50.298  0.00  0.00     0.404 C 
ATOM     11  O   UNL d   1     -41.956-123.817 -50.214  0.00  0.00    -0.239 OA
ATOM     12  N   UNL d   1     -41.312-122.658 -49.633  0.00  0.00    -0.083 N 
ENDBRANCH   8   9
ENDBRANCH   6   8
BRANCH   3  13
ATOM     13  C   UNL d   1     -41.781-123.560 -54.605  0.00  0.00     0.003 C 
ATOM     14  C   UNL d   1     -41.124-123.755 -55.029  0.00  0.00     0.000 C 
ATOM     15  C   UNL d   1     -42.526-123.816 -54.852  0.00  0.00     0.000 C 
ENDBRANCH   3  13
BRANCH   2  16
ATOM     16  C   UNL d   1     -41.759-121.011 -53.378  0.00  0.00     0.003 C 
ATOM     17  C   UNL d   1     -41.137-120.555 -53.137  0.00  0.00     0.000 C 
ATOM     18  C   UNL d   1     -42.414-120.672 -53.684  0.00  0.00     0.000 C 
ENDBRANCH   2  16
TORSDOF 4
ENDMDL
MODEL 4
REMARK VINA RESULT:       2.1      1.212      1.507
REMARK  4 active torsions:
REMARK  status: ('A' for Active; 'I' for Inactive)
REMARK    1  A    between atoms: C_12  and  C_2 
REMARK    2  A    between atoms: C_13  and  C_3 
REMARK    3  A    between atoms: N_8  and  C_6 
REMARK       I    between atoms: C_7  and  N_9 
REMARK    4  A    between atoms: N_9  and  N_8 
ROOT
ATOM      1  C   UNL d   1     -41.793-122.186 -54.094  0.00  0.00     0.196 A 
ATOM      2  C   UNL d   1     -41.702-123.021 -54.046  0.00  0.00     0.041 A 
ATOM      3  C   UNL d   1     -41.714-121.721 -53.447  0.00  0.00     0.041 A 
ATOM      4  C   UNL d   1     -41.526-123.376 -53.306  0.00  0.00     0.024 A 
ATOM      5  C   UNL d   1     -41.541-122.058 -52.713  0.00  0.00     0.024 A 
ATOM      6  C   UNL d   1     -41.448-122.872 -52.643  0.00  0.00     0.103 A 
ATOM      7  O   UNL d   1     -41.973-121.794 -54.837  0.00  0.00    -0.287 OA
ENDROOT
BRANCH   6   8
ATOM      8  N   UNL d   1     -41.270-123.226 -51.889  0.00  0.00    -0.144 NA
BRANCH   8   9
ATOM      9  N   UNL d   1     -41.133-122.775 -51.201  0.00  0.00    -0.087 NA
ATOM     10  C   UNL d   1     -41.313-123.056 -50.437  0.00  0.00     0.404 C 
ATOM     11  O   UNL d   1     -41.642-123.817 -50.354  0.00  0.00    -0.239 OA
ATOM     12  N   UNL d   1     -41.165-122.583 -49.766  0.00  0.00    -0.083 N 
ENDBRANCH   8   9
ENDBRANCH   6   8
BRANCH   3  13
ATOM     13  C   UNL d   1     -41.810-120.904 -53.531  0.00  0.00     0.003 C 
ATOM     14  C   UNL d   1     -42.515-120.599 -53.772  0.00  0.00     0.000 C 
ATOM     15  C   UNL d   1     -41.175-120.403 -53.365  0.00  0.00     0.000 C 
ENDBRANCH   3  13
BRANCH   2  16
ATOM     16  C   UNL d   1     -41.784-123.479 -54.705  0.00  0.00     0.003 C 
ATOM     17  C   UNL d   1     -41.123-123.805 -55.037  0.00  0.00     0.000 C 
ATOM     18  C   UNL d   1     -42.503-123.609 -55.025  0.00  0.00     0.000 C 
ENDBRANCH   2  16
TORSDOF 4
ENDMDL
