MODEL 1
REMARK VINA RESULT:      -9.9      0.000      0.000
REMARK  5 active torsions:
REMARK  status: ('A' for Active; 'I' for Inactive)
REMARK    1  A    between atoms: C_6  and  C_1 
REMARK       I    between atoms: C_7  and  N_8 
REMARK    2  A    between atoms: C_16  and  C_7 
REMARK    3  A    between atoms: N_8  and  C_14 
REMARK    4  A    between atoms: O_15  and  C_16 
REMARK    5  A    between atoms: C_21  and  O_15 
ROOT
ATOM      1  C   UNL d   1      51.670  33.907  53.054  0.00  0.00     0.024 A 
ATOM      2  C   UNL d   1      51.000  33.689  53.480  0.00  0.00     0.004 A 
ATOM      3  C   UNL d   1      51.635  34.271  52.337  0.00  0.00     0.004 A 
ATOM      4  C   UNL d   1      50.193  34.230  52.410  0.00  0.00     0.085 A 
ATOM      5  C   UNL d   1      50.884  34.444  51.991  0.00  0.00     0.019 A 
ATOM      6  C   UNL d   1      50.250  33.862  53.135  0.00  0.00     0.019 A 
ENDROOT
BRANCH   4   7
ATOM      7  N   UNL d   1      49.410  34.410  52.050  0.00  0.00    -0.206 NA
ATOM      8  C   UNL d   1      48.957  35.042  52.389  0.00  0.00     0.304 C 
ATOM      9  O   UNL d   1      49.209  35.485  53.027  0.00  0.00    -0.263 OA
BRANCH   8  10
ATOM     10  C   UNL d   1      48.213  35.214  52.047  0.00  0.00     0.185 C 
BRANCH  10  11
ATOM     11  O   UNL d   1      47.821  35.899  52.265  0.00  0.00    -0.300 OA
BRANCH  11  12
ATOM     12  C   UNL d   1      47.010  35.990  52.063  0.00  0.00     0.100 A 
ATOM     13  C   UNL d   1      46.705  35.646  51.379  0.00  0.00     0.025 A 
ATOM     14  C   UNL d   1      45.921  35.734  51.183  0.00  0.00     0.002 A 
ATOM     15  C   UNL d   1      45.423  36.169  51.665  0.00  0.00     0.000 A 
ATOM     16  C   UNL d   1      45.717  36.518  52.352  0.00  0.00     0.002 A 
ATOM     17  C   UNL d   1      46.501  36.430  52.548  0.00  0.00     0.025 A 
ENDBRANCH  11  12
ENDBRANCH  10  11
ENDBRANCH   8  10
ENDBRANCH   4   7
BRANCH   1  18
ATOM     18  C   UNL d   1      52.413  33.735  53.396  0.00  0.00     0.111 A 
ATOM     19  N   UNL d   1      52.909  33.145  53.161  0.00  0.00    -0.239 NA
ATOM     20  C   UNL d   1      53.568  33.163  53.630  0.00  0.00     0.088 A 
ATOM     21  C   UNL d   1      54.255  32.713  53.662  0.00  0.00     0.020 A 
ATOM     22  C   UNL d   1      53.463  33.798  54.177  0.00  0.00     0.049 A 
ATOM     23  C   UNL d   1      54.826  32.872  54.209  0.00  0.00     0.002 A 
ATOM     24  C   UNL d   1      54.721  33.508  54.756  0.00  0.00     0.001 A 
ATOM     25  C   UNL d   1      54.047  33.969  54.743  0.00  0.00     0.008 A 
ATOM     26  C   UNL d   1      55.305  33.678  55.322  0.00  0.00     0.000 C 
ATOM     27  S   UNL d   1      52.743  34.148  54.024  0.00  0.00    -0.066 SA
ENDBRANCH   1  18
TORSDOF 5
ENDMDL
MODEL 2
REMARK VINA RESULT:      -8.6      1.607      6.759
REMARK  5 active torsions:
REMARK  status: ('A' for Active; 'I' for Inactive)
REMARK    1  A    between atoms: C_6  and  C_1 
REMARK       I    between atoms: C_7  and  N_8 
REMARK    2  A    between atoms: C_16  and  C_7 
REMARK    3  A    between atoms: N_8  and  C_14 
REMARK    4  A    between atoms: O_15  and  C_16 
REMARK    5  A    between atoms: C_21  and  O_15 
ROOT
ATOM      1  C   UNL d   1      48.804  35.020  52.149  0.00  0.00     0.024 A 
ATOM      2  C   UNL d   1      49.167  35.229  52.858  0.00  0.00     0.004 A 
ATOM      3  C   UNL d   1      49.169  34.581  51.582  0.00  0.00     0.004 A 
ATOM      4  C   UNL d   1      50.345  34.516  52.419  0.00  0.00     0.085 A 
ATOM      5  C   UNL d   1      49.961  34.313  51.704  0.00  0.00     0.019 A 
ATOM      6  C   UNL d   1      49.958  34.962  52.980  0.00  0.00     0.019 A 
ENDROOT
BRANCH   4   7
ATOM      7  N   UNL d   1      51.170  34.237  52.546  0.00  0.00    -0.206 NA
ATOM      8  C   UNL d   1      51.292  33.611  53.105  0.00  0.00     0.304 C 
ATOM      9  O   UNL d   1      50.688  33.259  53.527  0.00  0.00    -0.263 OA
BRANCH   8  10
ATOM     10  C   UNL d   1      52.077  33.346  53.226  0.00  0.00     0.185 C 
BRANCH  10  11
ATOM     11  O   UNL d   1      52.361  33.277  53.991  0.00  0.00    -0.300 OA
BRANCH  11  12
ATOM     12  C   UNL d   1      53.190  33.209  54.115  0.00  0.00     0.100 A 
ATOM     13  C   UNL d   1      53.648  32.708  53.647  0.00  0.00     0.025 A 
ATOM     14  C   UNL d   1      54.449  32.642  53.767  0.00  0.00     0.002 A 
ATOM     15  C   UNL d   1      54.813  33.076  54.359  0.00  0.00     0.000 A 
ATOM     16  C   UNL d   1      54.366  33.581  54.833  0.00  0.00     0.002 A 
ATOM     17  C   UNL d   1      53.565  33.647  54.713  0.00  0.00     0.025 A 
ENDBRANCH  11  12
ENDBRANCH  10  11
ENDBRANCH   8  10
ENDBRANCH   4   7
BRANCH   1  18
ATOM     18  C   UNL d   1      48.021  35.286  52.028  0.00  0.00     0.111 A 
ATOM     19  N   UNL d   1      47.583  35.157  51.364  0.00  0.00    -0.239 NA
ATOM     20  C   UNL d   1      46.858  35.501  51.465  0.00  0.00     0.088 A 
ATOM     21  C   UNL d   1      46.186  35.558  50.996  0.00  0.00     0.020 A 
ATOM     22  C   UNL d   1      46.860  35.856  52.232  0.00  0.00     0.049 A 
ATOM     23  C   UNL d   1      45.531  35.949  51.260  0.00  0.00     0.002 A 
ATOM     24  C   UNL d   1      45.533  36.305  52.027  0.00  0.00     0.001 A 
ATOM     25  C   UNL d   1      46.189  36.261  52.511  0.00  0.00     0.008 A 
ATOM     26  C   UNL d   1      44.863  36.709  52.306  0.00  0.00     0.000 C 
ATOM     27  S   UNL d   1      47.586  35.718  52.574  0.00  0.00    -0.066 SA
ENDBRANCH   1  18
TORSDOF 5
ENDMDL
MODEL 3
REMARK VINA RESULT:      -8.3      0.956      1.316
REMARK  5 active torsions:
REMARK  status: ('A' for Active; 'I' for Inactive)
REMARK    1  A    between atoms: C_6  and  C_1 
REMARK       I    between atoms: C_7  and  N_8 
REMARK    2  A    between atoms: C_16  and  C_7 
REMARK    3  A    between atoms: N_8  and  C_14 
REMARK    4  A    between atoms: O_15  and  C_16 
REMARK    5  A    between atoms: C_21  and  O_15 
ROOT
ATOM      1  C   UNL d   1      50.933  34.055  52.680  0.00  0.00     0.024 A 
ATOM      2  C   UNL d   1      50.794  34.150  51.875  0.00  0.00     0.004 A 
ATOM      3  C   UNL d   1      50.435  34.332  53.248  0.00  0.00     0.004 A 
ATOM      4  C   UNL d   1      49.574  34.849  52.210  0.00  0.00     0.085 A 
ATOM      5  C   UNL d   1      49.731  34.742  53.024  0.00  0.00     0.019 A 
ATOM      6  C   UNL d   1      50.091  34.560  51.651  0.00  0.00     0.019 A 
ENDROOT
BRANCH   4   7
ATOM      7  N   UNL d   1      48.841  35.276  51.977  0.00  0.00    -0.206 NA
ATOM      8  C   UNL d   1      48.298  34.876  51.462  0.00  0.00     0.304 C 
ATOM      9  O   UNL d   1      48.422  34.122  51.176  0.00  0.00    -0.263 OA
BRANCH   8  10
ATOM     10  C   UNL d   1      47.601  35.283  51.241  0.00  0.00     0.185 C 
BRANCH  10  11
ATOM     11  O   UNL d   1      46.874  34.978  51.461  0.00  0.00    -0.300 OA
BRANCH  11  12
ATOM     12  C   UNL d   1      46.193  35.471  51.422  0.00  0.00     0.100 A 
ATOM     13  C   UNL d   1      45.775  35.559  50.718  0.00  0.00     0.025 A 
ATOM     14  C   UNL d   1      45.117  36.035  50.681  0.00  0.00     0.002 A 
ATOM     15  C   UNL d   1      44.862  36.436  51.347  0.00  0.00     0.000 A 
ATOM     16  C   UNL d   1      45.273  36.357  52.058  0.00  0.00     0.002 A 
ATOM     17  C   UNL d   1      45.930  35.880  52.095  0.00  0.00     0.025 A 
ENDBRANCH  11  12
ENDBRANCH  10  11
ENDBRANCH   8  10
ENDBRANCH   4   7
BRANCH   1  18
ATOM     18  C   UNL d   1      51.630  33.648  52.902  0.00  0.00     0.111 A 
ATOM     19  N   UNL d   1      51.747  32.853  52.834  0.00  0.00    -0.239 NA
ATOM     20  C   UNL d   1      52.488  32.680  53.107  0.00  0.00     0.088 A 
ATOM     21  C   UNL d   1      52.919  31.984  53.180  0.00  0.00     0.020 A 
ATOM     22  C   UNL d   1      52.836  33.410  53.353  0.00  0.00     0.049 A 
ATOM     23  C   UNL d   1      53.667  31.993  53.482  0.00  0.00     0.002 A 
ATOM     24  C   UNL d   1      54.015  32.723  53.728  0.00  0.00     0.001 A 
ATOM     25  C   UNL d   1      53.606  33.427  53.665  0.00  0.00     0.008 A 
ATOM     26  C   UNL d   1      54.784  32.739  54.040  0.00  0.00     0.000 C 
ATOM     27  S   UNL d   1      52.296  34.006  53.222  0.00  0.00    -0.066 SA
ENDBRANCH   1  18
TORSDOF 5
ENDMDL
MODEL 4
REMARK VINA RESULT:      -7.0      1.185      1.610
REMARK  5 active torsions:
REMARK  status: ('A' for Active; 'I' for Inactive)
REMARK    1  A    between atoms: C_6  and  C_1 
REMARK       I    between atoms: C_7  and  N_8 
REMARK    2  A    between atoms: C_16  and  C_7 
REMARK    3  A    between atoms: N_8  and  C_14 
REMARK    4  A    between atoms: O_15  and  C_16 
REMARK    5  A    between atoms: C_21  and  O_15 
ROOT
ATOM      1  C   UNL d   1      51.379  33.269  52.869  0.00  0.00     0.024 A 
ATOM      2  C   UNL d   1      50.738  33.307  53.384  0.00  0.00     0.004 A 
ATOM      3  C   UNL d   1      51.425  33.701  52.192  0.00  0.00     0.004 A 
ATOM      4  C   UNL d   1      50.134  34.275  52.496  0.00  0.00     0.085 A 
ATOM      5  C   UNL d   1      50.793  34.223  51.984  0.00  0.00     0.019 A 
ATOM      6  C   UNL d   1      50.108  33.829  53.177  0.00  0.00     0.019 A 
ENDROOT
BRANCH   4   7
ATOM      7  N   UNL d   1      49.476  34.819  52.280  0.00  0.00    -0.206 NA
ATOM      8  C   UNL d   1      49.082  35.228  52.909  0.00  0.00     0.304 C 
ATOM      9  O   UNL d   1      49.280  35.143  53.696  0.00  0.00    -0.263 OA
BRANCH   8  10
ATOM     10  C   UNL d   1      48.456  35.746  52.704  0.00  0.00     0.185 C 
BRANCH  10  11
ATOM     11  O   UNL d   1      47.899  35.943  53.271  0.00  0.00    -0.300 OA
BRANCH  11  12
ATOM     12  C   UNL d   1      47.138  36.201  53.024  0.00  0.00     0.100 A 
ATOM     13  C   UNL d   1      46.984  36.367  52.232  0.00  0.00     0.025 A 
ATOM     14  C   UNL d   1      46.248  36.616  51.994  0.00  0.00     0.002 A 
ATOM     15  C   UNL d   1      45.647  36.706  52.542  0.00  0.00     0.000 A 
ATOM     16  C   UNL d   1      45.788  36.542  53.338  0.00  0.00     0.002 A 
ATOM     17  C   UNL d   1      46.524  36.293  53.576  0.00  0.00     0.025 A 
ENDBRANCH  11  12
ENDBRANCH  10  11
ENDBRANCH   8  10
ENDBRANCH   4   7
BRANCH   1  18
ATOM     18  C   UNL d   1      52.004  32.753  53.074  0.00  0.00     0.111 A 
ATOM     19  N   UNL d   1      52.636  32.946  53.536  0.00  0.00    -0.239 NA
ATOM     20  C   UNL d   1      53.113  32.296  53.602  0.00  0.00     0.088 A 
ATOM     21  C   UNL d   1      53.821  32.148  53.990  0.00  0.00     0.020 A 
ATOM     22  C   UNL d   1      52.748  31.678  53.156  0.00  0.00     0.049 A 
ATOM     23  C   UNL d   1      54.170  31.422  53.949  0.00  0.00     0.002 A 
ATOM     24  C   UNL d   1      53.805  30.804  53.503  0.00  0.00     0.001 A 
ATOM     25  C   UNL d   1      53.101  30.927  53.108  0.00  0.00     0.008 A 
ATOM     26  C   UNL d   1      54.158  30.053  53.455  0.00  0.00     0.000 C 
ATOM     27  S   UNL d   1      52.060  31.970  52.832  0.00  0.00    -0.066 SA
ENDBRANCH   1  18
TORSDOF 5
ENDMDL
