MODEL 1
REMARK VINA RESULT:      26.2      0.000      0.000
REMARK  5 active torsions:
REMARK  status: ('A' for Active; 'I' for Inactive)
REMARK       I    between atoms: C_2  and  N_1 
REMARK    1  A    between atoms: C_4  and  N_1 
REMARK    2  A    between atoms: C_14  and  C_2 
REMARK       I    between atoms: C_3  and  N_6 
REMARK    3  A    between atoms: C_5  and  C_3 
REMARK    4  A    between atoms: N_8  and  C_4 
REMARK    5  A    between atoms: N_6  and  N_8 
ROOT
ATOM      1  C   UNL d   1      13.044  12.195  -3.912  0.00  0.00     0.243 C 
ATOM      2  S   UNL d   1      12.874  11.779  -4.596  0.00  0.00    -0.035 SA
ENDROOT
BRANCH   1   3
ATOM      3  N   UNL d   1      13.126  13.018  -3.934  0.00  0.00    -0.177 NA
ATOM      4  C   UNL d   1      13.424  13.383  -4.611  0.00  0.00     0.281 C 
ATOM      5  O   UNL d   1      13.638  12.924  -5.267  0.00  0.00    -0.265 OA
BRANCH   4   6
ATOM      6  C   UNL d   1      13.505  14.200  -4.630  0.00  0.00     0.058 A 
ATOM      7  C   UNL d   1      14.235  14.537  -4.787  0.00  0.00     0.005 A 
ATOM      8  C   UNL d   1      14.319  15.357  -4.807  0.00  0.00     0.000 A 
ATOM      9  C   UNL d   1      13.663  15.837  -4.668  0.00  0.00     0.000 A 
ATOM     10  C   UNL d   1      12.922  15.495  -4.508  0.00  0.00     0.000 A 
ATOM     11  C   UNL d   1      12.845  14.674  -4.490  0.00  0.00     0.005 A 
ENDBRANCH   4   6
ENDBRANCH   1   3
BRANCH   1  12
ATOM     12  N   UNL d   1      13.133  11.792  -3.198  0.00  0.00    -0.114 NA
BRANCH  12  13
ATOM     13  N   UNL d   1      13.726  12.004  -2.670  0.00  0.00    -0.103 NA
ATOM     14  C   UNL d   1      13.586  11.998  -1.857  0.00  0.00     0.303 C 
ATOM     15  O   UNL d   1      12.851  11.779  -1.573  0.00  0.00    -0.263 OA
BRANCH  14  16
ATOM     16  C   UNL d   1      14.187  12.211  -1.339  0.00  0.00     0.089 A 
ATOM     17  S   UNL d   1      14.116  12.264  -0.481  0.00  0.00    -0.082 SA
ATOM     18  C   UNL d   1      14.889  12.509  -0.162  0.00  0.00     0.036 A 
ATOM     19  C   UNL d   1      15.430  12.606  -0.826  0.00  0.00     0.008 A 
ATOM     20  C   UNL d   1      15.003  12.424  -1.550  0.00  0.00     0.012 A 
ENDBRANCH  14  16
ENDBRANCH  12  13
ENDBRANCH   1  12
TORSDOF 5
ENDMDL
MODEL 2
REMARK VINA RESULT:      28.7      1.372      3.986
REMARK  5 active torsions:
REMARK  status: ('A' for Active; 'I' for Inactive)
REMARK       I    between atoms: C_2  and  N_1 
REMARK    1  A    between atoms: C_4  and  N_1 
REMARK    2  A    between atoms: C_14  and  C_2 
REMARK       I    between atoms: C_3  and  N_6 
REMARK    3  A    between atoms: C_5  and  C_3 
REMARK    4  A    between atoms: N_8  and  C_4 
REMARK    5  A    between atoms: N_6  and  N_8 
ROOT
ATOM      1  C   UNL d   1      13.445  12.613  -3.579  0.00  0.00     0.243 C 
ATOM      2  S   UNL d   1      13.136  11.915  -3.874  0.00  0.00    -0.035 SA
ENDROOT
BRANCH   1   3
ATOM      3  N   UNL d   1      13.908  12.607  -2.894  0.00  0.00    -0.177 NA
ATOM      4  C   UNL d   1      13.652  12.191  -2.229  0.00  0.00     0.281 C 
ATOM      5  O   UNL d   1      12.933  11.780  -2.251  0.00  0.00    -0.265 OA
BRANCH   4   6
ATOM      6  C   UNL d   1      14.113  12.187  -1.550  0.00  0.00     0.058 A 
ATOM      7  C   UNL d   1      14.828  11.786  -1.538  0.00  0.00     0.005 A 
ATOM      8  C   UNL d   1      15.292  11.781  -0.857  0.00  0.00     0.000 A 
ATOM      9  C   UNL d   1      15.032  12.182  -0.185  0.00  0.00     0.000 A 
ATOM     10  C   UNL d   1      14.307  12.589  -0.195  0.00  0.00     0.000 A 
ATOM     11  C   UNL d   1      13.848  12.590  -0.880  0.00  0.00     0.005 A 
ENDBRANCH   4   6
ENDBRANCH   1   3
BRANCH   1  12
ATOM     12  N   UNL d   1      13.296  13.324  -3.967  0.00  0.00    -0.114 NA
BRANCH  12  13
ATOM     13  N   UNL d   1      13.791  13.973  -3.859  0.00  0.00    -0.103 NA
ATOM     14  C   UNL d   1      13.555  14.725  -4.099  0.00  0.00     0.303 C 
ATOM     15  O   UNL d   1      12.823  14.829  -4.449  0.00  0.00    -0.263 OA
BRANCH  14  16
ATOM     16  C   UNL d   1      14.058  15.365  -3.986  0.00  0.00     0.089 A 
ATOM     17  S   UNL d   1      14.575  15.711  -4.584  0.00  0.00    -0.082 SA
ATOM     18  C   UNL d   1      15.004  16.374  -4.216  0.00  0.00     0.036 A 
ATOM     19  C   UNL d   1      14.748  16.431  -3.395  0.00  0.00     0.008 A 
ATOM     20  C   UNL d   1      14.168  15.814  -3.249  0.00  0.00     0.012 A 
ENDBRANCH  14  16
ENDBRANCH  12  13
ENDBRANCH   1  12
TORSDOF 5
ENDMDL
