MODEL 1
REMARK VINA RESULT:      -7.0      0.000      0.000
REMARK  6 active torsions:
REMARK  status: ('A' for Active; 'I' for Inactive)
REMARK    1  A    between atoms: C_2  and  S_1 
REMARK    2  A    between atoms: N_10  and  S_1 
REMARK    3  A    between atoms: O_16  and  C_7 
REMARK    4  A    between atoms: C_13  and  N_10 
REMARK    5  A    between atoms: N_11  and  C_17 
REMARK    6  A    between atoms: C_17  and  C_13 
ROOT
ATOM      1  S   UNL d   1      51.122  34.060  52.859  0.00  0.00     0.286 S 
ATOM      2  O   UNL d   1      51.476  34.428  52.205  0.00  0.00    -0.198 OA
ATOM      3  O   UNL d   1      50.775  33.698  53.502  0.00  0.00    -0.198 OA
ENDROOT
BRANCH   1   4
ATOM      4  C   UNL d   1      51.854  34.030  53.238  0.00  0.00     0.117 A 
ATOM      5  C   UNL d   1      52.158  34.706  53.602  0.00  0.00     0.027 A 
ATOM      6  C   UNL d   1      52.890  34.676  53.981  0.00  0.00     0.081 A 
ATOM      7 CL   UNL d   1      53.197  35.356  54.348  0.00  0.00    -0.080 Cl
ATOM      8  C   UNL d   1      53.318  33.971  53.996  0.00  0.00     0.105 A 
ATOM      9  C   UNL d   1      53.014  33.305  53.634  0.00  0.00     0.037 A 
ATOM     10  C   UNL d   1      52.282  33.335  53.255  0.00  0.00     0.072 A 
ATOM     11 CL   UNL d   1      51.982  32.660  52.893  0.00  0.00    -0.082 Cl
BRANCH   8  12
ATOM     12  O   UNL d   1      54.051  33.942  54.375  0.00  0.00    -0.327 OA
ATOM     13  C   UNL d   1      54.371  33.214  54.597  0.00  0.00     0.181 C 
ENDBRANCH   8  12
ENDBRANCH   1   4
BRANCH   1  14
ATOM     14  N   UNL d   1      50.390  34.089  52.480  0.00  0.00    -0.155 NA
BRANCH  14  15
ATOM     15  C   UNL d   1      49.858  34.678  52.665  0.00  0.00     0.131 C 
BRANCH  15  16
ATOM     16  C   UNL d   1      49.094  34.657  52.354  0.00  0.00     0.102 C 
BRANCH  16  17
ATOM     17  N   UNL d   1      48.582  35.292  52.477  0.00  0.00    -0.298 N 
ATOM     18  C   UNL d   1      48.535  35.648  53.219  0.00  0.00     0.107 A 
ATOM     19  C   UNL d   1      48.022  36.283  53.340  0.00  0.00     0.142 A 
ATOM     20  O   UNL d   1      47.552  36.564  52.719  0.00  0.00    -0.300 OA
ATOM     21  C   UNL d   1      47.598  36.207  51.976  0.00  0.00     0.142 A 
ATOM     22  C   UNL d   1      48.114  35.570  51.855  0.00  0.00     0.107 A 
ENDBRANCH  16  17
ENDBRANCH  15  16
ENDBRANCH  14  15
ENDBRANCH   1  14
TORSDOF 6
ENDMDL
MODEL 2
REMARK VINA RESULT:      -6.9      3.445      5.155
REMARK  6 active torsions:
REMARK  status: ('A' for Active; 'I' for Inactive)
REMARK    1  A    between atoms: C_2  and  S_1 
REMARK    2  A    between atoms: N_10  and  S_1 
REMARK    3  A    between atoms: O_16  and  C_7 
REMARK    4  A    between atoms: C_13  and  N_10 
REMARK    5  A    between atoms: N_11  and  C_17 
REMARK    6  A    between atoms: C_17  and  C_13 
ROOT
ATOM      1  S   UNL d   1      53.896  32.924  54.041  0.00  0.00     0.286 S 
ATOM      2  O   UNL d   1      54.208  33.150  53.306  0.00  0.00    -0.198 OA
ATOM      3  O   UNL d   1      53.589  32.702  54.762  0.00  0.00    -0.198 OA
ENDROOT
BRANCH   1   4
ATOM      4  C   UNL d   1      53.605  33.687  54.152  0.00  0.00     0.117 A 
ATOM      5  C   UNL d   1      52.950  33.946  53.722  0.00  0.00     0.027 A 
ATOM      6  C   UNL d   1      52.659  34.710  53.834  0.00  0.00     0.081 A 
ATOM      7 CL   UNL d   1      51.999  34.972  53.401  0.00  0.00    -0.080 Cl
ATOM      8  C   UNL d   1      53.024  35.215  54.375  0.00  0.00     0.105 A 
ATOM      9  C   UNL d   1      53.672  34.955  54.799  0.00  0.00     0.037 A 
ATOM     10  C   UNL d   1      53.963  34.191  54.687  0.00  0.00     0.072 A 
ATOM     11 CL   UNL d   1      54.616  33.936  55.117  0.00  0.00    -0.082 Cl
BRANCH   8  12
ATOM     12  O   UNL d   1      52.733  35.980  54.487  0.00  0.00    -0.327 OA
ATOM     13  C   UNL d   1      53.168  36.526  54.926  0.00  0.00     0.181 C 
ENDBRANCH   8  12
ENDBRANCH   1   4
BRANCH   1  14
ATOM     14  N   UNL d   1      54.187  32.160  53.929  0.00  0.00    -0.155 NA
BRANCH  14  15
ATOM     15  C   UNL d   1      53.673  31.545  53.781  0.00  0.00     0.131 C 
BRANCH  15  16
ATOM     16  C   UNL d   1      53.965  30.810  53.548  0.00  0.00     0.102 C 
BRANCH  16  17
ATOM     17  N   UNL d   1      53.485  30.141  53.597  0.00  0.00    -0.298 N 
ATOM     18  C   UNL d   1      52.888  30.019  53.040  0.00  0.00     0.107 A 
ATOM     19  C   UNL d   1      52.409  29.349  53.090  0.00  0.00     0.142 A 
ATOM     20  O   UNL d   1      52.525  28.797  53.698  0.00  0.00    -0.300 OA
ATOM     21  C   UNL d   1      53.121  28.919  54.254  0.00  0.00     0.142 A 
ATOM     22  C   UNL d   1      53.602  29.593  54.203  0.00  0.00     0.107 A 
ENDBRANCH  16  17
ENDBRANCH  15  16
ENDBRANCH  14  15
ENDBRANCH   1  14
TORSDOF 6
ENDMDL
MODEL 3
REMARK VINA RESULT:      -6.8      2.334      3.120
REMARK  6 active torsions:
REMARK  status: ('A' for Active; 'I' for Inactive)
REMARK    1  A    between atoms: C_2  and  S_1 
REMARK    2  A    between atoms: N_10  and  S_1 
REMARK    3  A    between atoms: O_16  and  C_7 
REMARK    4  A    between atoms: C_13  and  N_10 
REMARK    5  A    between atoms: N_11  and  C_17 
REMARK    6  A    between atoms: C_17  and  C_13 
ROOT
ATOM      1  S   UNL d   1      52.722  32.512  53.084  0.00  0.00     0.286 S 
ATOM      2  O   UNL d   1      52.470  32.627  53.867  0.00  0.00    -0.198 OA
ATOM      3  O   UNL d   1      52.969  32.399  52.316  0.00  0.00    -0.198 OA
ENDROOT
BRANCH   1   4
ATOM      4  C   UNL d   1      52.950  31.742  53.270  0.00  0.00     0.117 A 
ATOM      5  C   UNL d   1      52.517  31.102  52.980  0.00  0.00     0.027 A 
ATOM      6  C   UNL d   1      52.745  30.331  53.166  0.00  0.00     0.081 A 
ATOM      7 CL   UNL d   1      52.310  29.685  52.874  0.00  0.00    -0.080 Cl
ATOM      8  C   UNL d   1      53.406  30.201  53.643  0.00  0.00     0.105 A 
ATOM      9  C   UNL d   1      53.831  30.837  53.929  0.00  0.00     0.037 A 
ATOM     10  C   UNL d   1      53.603  31.607  53.742  0.00  0.00     0.072 A 
ATOM     11 CL   UNL d   1      54.036  32.243  54.034  0.00  0.00    -0.082 Cl
BRANCH   8  12
ATOM     12  O   UNL d   1      53.634  29.429  53.830  0.00  0.00    -0.327 OA
ATOM     13  C   UNL d   1      53.550  29.150  54.602  0.00  0.00     0.181 C 
ENDBRANCH   8  12
ENDBRANCH   1   4
BRANCH   1  14
ATOM     14  N   UNL d   1      52.494  33.282  52.898  0.00  0.00    -0.155 NA
BRANCH  14  15
ATOM     15  C   UNL d   1      51.710  33.454  52.761  0.00  0.00     0.131 C 
BRANCH  15  16
ATOM     16  C   UNL d   1      51.487  34.215  52.534  0.00  0.00     0.102 C 
BRANCH  16  17
ATOM     17  N   UNL d   1      50.693  34.388  52.392  0.00  0.00    -0.298 N 
ATOM     18  C   UNL d   1      50.221  34.690  52.997  0.00  0.00     0.107 A 
ATOM     19  C   UNL d   1      49.427  34.862  52.854  0.00  0.00     0.142 A 
ATOM     20  O   UNL d   1      49.101  34.733  52.103  0.00  0.00    -0.300 OA
ATOM     21  C   UNL d   1      49.573  34.431  51.498  0.00  0.00     0.142 A 
ATOM     22  C   UNL d   1      50.370  34.258  51.643  0.00  0.00     0.107 A 
ENDBRANCH  16  17
ENDBRANCH  15  16
ENDBRANCH  14  15
ENDBRANCH   1  14
TORSDOF 6
ENDMDL
MODEL 4
REMARK VINA RESULT:      -5.7      1.539      4.822
REMARK  6 active torsions:
REMARK  status: ('A' for Active; 'I' for Inactive)
REMARK    1  A    between atoms: C_2  and  S_1 
REMARK    2  A    between atoms: N_10  and  S_1 
REMARK    3  A    between atoms: O_16  and  C_7 
REMARK    4  A    between atoms: C_13  and  N_10 
REMARK    5  A    between atoms: N_11  and  C_17 
REMARK    6  A    between atoms: C_17  and  C_13 
ROOT
ATOM      1  S   UNL d   1      50.902  34.018  52.613  0.00  0.00     0.286 S 
ATOM      2  O   UNL d   1      50.512  33.386  52.985  0.00  0.00    -0.198 OA
ATOM      3  O   UNL d   1      51.285  34.638  52.249  0.00  0.00    -0.198 OA
ENDROOT
BRANCH   1   4
ATOM      4  C   UNL d   1      50.189  34.428  52.563  0.00  0.00     0.117 A 
ATOM      5  C   UNL d   1      49.903  34.842  53.218  0.00  0.00     0.027 A 
ATOM      6  C   UNL d   1      49.189  35.252  53.167  0.00  0.00     0.081 A 
ATOM      7 CL   UNL d   1      48.900  35.669  53.825  0.00  0.00    -0.080 Cl
ATOM      8  C   UNL d   1      48.761  35.249  52.461  0.00  0.00     0.105 A 
ATOM      9  C   UNL d   1      49.048  34.839  51.816  0.00  0.00     0.037 A 
ATOM     10  C   UNL d   1      49.761  34.428  51.867  0.00  0.00     0.072 A 
ATOM     11 CL   UNL d   1      50.043  34.017  51.212  0.00  0.00    -0.082 Cl
BRANCH   8  12
ATOM     12  O   UNL d   1      48.047  35.660  52.410  0.00  0.00    -0.327 OA
ATOM     13  C   UNL d   1      47.615  35.650  51.707  0.00  0.00     0.181 C 
ENDBRANCH   8  12
ENDBRANCH   1   4
BRANCH   1  14
ATOM     14  N   UNL d   1      51.616  33.607  52.664  0.00  0.00    -0.155 NA
BRANCH  14  15
ATOM     15  C   UNL d   1      52.108  33.722  53.303  0.00  0.00     0.131 C 
BRANCH  15  16
ATOM     16  C   UNL d   1      52.896  33.482  53.265  0.00  0.00     0.102 C 
BRANCH  16  17
ATOM     17  N   UNL d   1      53.333  33.387  53.959  0.00  0.00    -0.298 N 
ATOM     18  C   UNL d   1      53.535  32.631  54.219  0.00  0.00     0.107 A 
ATOM     19  C   UNL d   1      53.972  32.538  54.913  0.00  0.00     0.142 A 
ATOM     20  O   UNL d   1      54.208  33.201  55.350  0.00  0.00    -0.300 OA
ATOM     21  C   UNL d   1      54.005  33.957  55.090  0.00  0.00     0.142 A 
ATOM     22  C   UNL d   1      53.567  34.050  54.392  0.00  0.00     0.107 A 
ENDBRANCH  16  17
ENDBRANCH  15  16
ENDBRANCH  14  15
ENDBRANCH   1  14
TORSDOF 6
ENDMDL
