MODEL 1
REMARK VINA RESULT:      55.4      0.000      0.000
REMARK  5 active torsions:
REMARK  status: ('A' for Active; 'I' for Inactive)
REMARK    1  A    between atoms: C_2  and  C_1 
REMARK    2  A    between atoms: N_5  and  C_2 
REMARK    3  A    between atoms: C_9  and  C_4 
REMARK    4  A    between atoms: C_21  and  N_10 
REMARK    5  A    between atoms: C_18  and  C_21 
ROOT
ATOM      1  N   UNL d   1     -55.846-102.229 -45.299  0.00  0.00    -0.191 NA
ATOM      2  C   UNL d   1     -55.282-101.729 -44.975  0.00  0.00     0.103 C 
ATOM      3  C   UNL d   1     -54.717-101.216 -44.651  0.00  0.00     0.097 C 
ENDROOT
BRANCH   3   4
ATOM      4  C   UNL d   1     -54.814-100.406 -44.722  0.00  0.00     0.091 C 
BRANCH   4   5
ATOM      5  N   UNL d   1     -55.538-100.062 -44.520  0.00  0.00    -0.299 N 
ATOM      6  C   UNL d   1     -55.757 -99.332 -44.842  0.00  0.00     0.100 A 
ATOM      7  C   UNL d   1     -56.474 -98.986 -44.646  0.00  0.00     0.100 A 
ATOM      8  N   UNL d   1     -56.981 -99.373 -44.120  0.00  0.00    -0.291 N 
ATOM      9  C   UNL d   1     -56.775-100.098 -43.793  0.00  0.00     0.100 A 
ATOM     10  C   UNL d   1     -56.049-100.446 -43.994  0.00  0.00     0.100 A 
BRANCH   8  11
ATOM     11  C   UNL d   1     -57.703 -99.024 -43.922  0.00  0.00     0.143 C 
ATOM     12  S   UNL d   1     -57.839 -98.755 -43.155  0.00  0.00    -0.057 SA
BRANCH  11  13
ATOM     13  C   UNL d   1     -58.296 -98.944 -44.501  0.00  0.00     0.126 A 
ATOM     14  O   UNL d   1     -58.173 -98.944 -45.320  0.00  0.00    -0.305 OA
ATOM     15  C   UNL d   1     -58.908 -98.851 -45.683  0.00  0.00     0.100 A 
ATOM     16  C   UNL d   1     -59.486 -98.795 -45.088  0.00  0.00     0.027 A 
ATOM     17  C   UNL d   1     -59.104 -98.853 -44.361  0.00  0.00     0.029 A 
BRANCH  15  18
ATOM     18  C   UNL d   1     -59.051 -98.820 -46.492  0.00  0.00     0.024 A 
ATOM     19  C   UNL d   1     -58.415 -98.818 -47.016  0.00  0.00     0.013 A 
ATOM     20  C   UNL d   1     -58.545 -98.787 -47.833  0.00  0.00     0.058 A 
ATOM     21 CL   UNL d   1     -57.907 -98.785 -48.362  0.00  0.00    -0.082 Cl
ATOM     22  C   UNL d   1     -59.327 -98.756 -48.121  0.00  0.00     0.011 A 
ATOM     23  C   UNL d   1     -59.960 -98.758 -47.589  0.00  0.00     0.001 A 
ATOM     24  C   UNL d   1     -59.823 -98.789 -46.777  0.00  0.00     0.002 A 
ENDBRANCH  15  18
ENDBRANCH  11  13
ENDBRANCH   8  11
ENDBRANCH   4   5
ENDBRANCH   3   4
TORSDOF 5
ENDMDL
