MODEL 1
REMARK VINA RESULT:      -0.6      0.000      0.000
REMARK  1 active torsions:
REMARK  status: ('A' for Active; 'I' for Inactive)
REMARK    1  A    between atoms: C_5  and  C_2 
ROOT
ATOM      1  N   UNL d   1      24.020  12.891  -2.511  0.00  0.00    -0.217 NA
ATOM      2  C   UNL d   1      24.121  12.687  -1.733  0.00  0.00     0.113 A 
ATOM      3  C   UNL d   1      24.419  12.333  -2.975  0.00  0.00     0.215 A 
ATOM      4  S   UNL d   1      24.768  11.779  -2.451  0.00  0.00    -0.045 SA
ATOM      5  C   UNL d   1      24.585  11.996  -1.688  0.00  0.00     0.060 A 
ATOM      6  N   UNL d   1      24.463  12.329  -3.813  0.00  0.00    -0.120 N 
ENDROOT
BRANCH   2   7
ATOM      7  C   UNL d   1      23.818  13.086  -1.051  0.00  0.00     0.118 A 
ATOM      8  O   UNL d   1      23.080  12.965  -0.671  0.00  0.00    -0.304 OA
ATOM      9  C   UNL d   1      23.046  13.496  -0.023  0.00  0.00     0.123 A 
ATOM     10  C   UNL d   1      23.749  13.927  -0.015  0.00  0.00     0.029 A 
ATOM     11  C   UNL d   1      24.217  13.679  -0.638  0.00  0.00     0.028 A 
ENDBRANCH   2   7
TORSDOF 1
ENDMDL
