MODEL 1
REMARK VINA RESULT:     104.3      0.000      0.000
REMARK  7 active torsions:
REMARK  status: ('A' for Active; 'I' for Inactive)
REMARK    1  A    between atoms: S_2  and  N_1 
REMARK    2  A    between atoms: C_3  and  N_1 
REMARK       I    between atoms: C_4  and  N_1 
REMARK    3  A    between atoms: C_10  and  S_2 
REMARK    4  A    between atoms: C_15  and  C_4 
REMARK    5  A    between atoms: C_6  and  O_8 
REMARK    6  A    between atoms: C_18  and  C_6 
REMARK    7  A    between atoms: O_8  and  C_7 
ROOT
ATOM      1  C   UNL d   1      13.842  15.878  -4.985  0.00  0.00     0.078 A 
ATOM      2  C   UNL d   1      14.572  16.238  -5.081  0.00  0.00     0.019 A 
ATOM      3  C   UNL d   1      14.018  17.299  -5.801  0.00  0.00     0.103 A 
ATOM      4  C   UNL d   1      14.663  16.934  -5.480  0.00  0.00     0.024 A 
ATOM      5  C   UNL d   1      13.190  16.241  -5.307  0.00  0.00     0.020 A 
ATOM      6  C   UNL d   1      13.279  16.944  -5.710  0.00  0.00     0.026 A 
ATOM      7  C   UNL d   1      15.226  15.860  -4.750  0.00  0.00     0.002 A 
ATOM      8  C   UNL d   1      15.400  17.295  -5.575  0.00  0.00     0.002 A 
ATOM      9  C   UNL d   1      15.956  16.220  -4.846  0.00  0.00     0.000 A 
ATOM     10  C   UNL d   1      16.047  16.917  -5.245  0.00  0.00     0.000 A 
ENDROOT
BRANCH   1  11
ATOM     11  N   UNL d   1      13.757  15.145  -4.564  0.00  0.00    -0.198 N 
ATOM     12  C   UNL d   1      13.446  14.474  -4.970  0.00  0.00     0.274 C 
ATOM     13  O   UNL d   1      13.232  14.537  -5.757  0.00  0.00    -0.266 OA
BRANCH  11  14
ATOM     14  S   UNL d   1      13.971  15.069  -3.766  0.00  0.00     0.274 S 
ATOM     15  O   UNL d   1      14.678  14.625  -3.986  0.00  0.00    -0.200 OA
ATOM     16  O   UNL d   1      13.294  15.493  -3.561  0.00  0.00    -0.200 OA
BRANCH  14  17
ATOM     17  C   UNL d   1      14.170  15.004  -2.934  0.00  0.00     0.104 A 
ATOM     18  C   UNL d   1      14.291  14.300  -2.613  0.00  0.00     0.013 A 
ATOM     19  C   UNL d   1      14.490  14.203  -1.793  0.00  0.00     0.001 A 
ATOM     20  C   UNL d   1      14.555  14.868  -1.326  0.00  0.00     0.000 A 
ATOM     21  C   UNL d   1      14.424  15.662  -1.665  0.00  0.00     0.001 A 
ATOM     22  C   UNL d   1      14.753  14.730  -0.521  0.00  0.00     0.000 C 
ATOM     23  C   UNL d   1      14.224  15.719  -2.500  0.00  0.00     0.013 A 
ENDBRANCH  14  17
ENDBRANCH  11  14
BRANCH  12  24
ATOM     24  C   UNL d   1      13.368  13.774  -4.559  0.00  0.00     0.060 A 
ATOM     25  C   UNL d   1      13.849  13.120  -4.787  0.00  0.00     0.025 A 
ATOM     26  C   UNL d   1      13.795  12.413  -4.400  0.00  0.00     0.099 A 
ATOM     27  N   UNL d   1      13.276  12.318  -3.780  0.00  0.00    -0.242 NA
ATOM     28  C   UNL d   1      12.796  12.957  -3.545  0.00  0.00     0.099 A 
ATOM     29  C   UNL d   1      12.839  13.658  -3.919  0.00  0.00     0.025 A 
ENDBRANCH  12  24
ENDBRANCH   1  11
BRANCH   3  30
ATOM     30  O   UNL d   1      14.103  18.031  -6.223  0.00  0.00    -0.273 OA
BRANCH  30  31
ATOM     31  C   UNL d   1      13.547  18.657  -6.215  0.00  0.00     0.300 C 
ATOM     32  O   UNL d   1      12.769  18.555  -6.363  0.00  0.00    -0.259 OA
BRANCH  31  33
ATOM     33  C   UNL d   1      13.823  19.412  -6.047  0.00  0.00     0.067 A 
ATOM     34  C   UNL d   1      14.545  19.701  -6.350  0.00  0.00     0.026 A 
ATOM     35  C   UNL d   1      14.798  20.492  -6.153  0.00  0.00     0.099 A 
ATOM     36  N   UNL d   1      14.355  20.951  -5.686  0.00  0.00    -0.242 NA
ATOM     37  C   UNL d   1      13.653  20.707  -5.376  0.00  0.00     0.099 A 
ATOM     38  C   UNL d   1      13.401  19.932  -5.566  0.00  0.00     0.026 A 
ENDBRANCH  31  33
ENDBRANCH  30  31
ENDBRANCH   3  30
TORSDOF 7
ENDMDL
