MODEL 1
REMARK VINA RESULT:      12.4      0.000      0.000
REMARK  5 active torsions:
REMARK  status: ('A' for Active; 'I' for Inactive)
REMARK    1  A    between atoms: C_7  and  C_1 
REMARK    2  A    between atoms: C_13  and  N_3 
REMARK       I    between atoms: C_6  and  N_10 
REMARK    3  A    between atoms: C_8  and  C_6 
REMARK    4  A    between atoms: C_14  and  C_7 
REMARK    5  A    between atoms: N_10  and  C_14 
ROOT
ATOM      1  C   UNL d   1      46.067 -16.786  43.542  0.00  0.00     0.058 C 
ENDROOT
BRANCH   1   2
ATOM      2  C   UNL d   1      46.201 -17.599  43.618  0.00  0.00     0.149 A 
ATOM      3  N   UNL d   1      46.263 -18.014  44.322  0.00  0.00    -0.227 NA
ATOM      4  C   UNL d   1      46.395 -18.805  44.145  0.00  0.00     0.099 A 
ATOM      5  C   UNL d   1      46.501 -19.471  44.635  0.00  0.00     0.021 A 
ATOM      6  C   UNL d   1      46.416 -18.886  43.324  0.00  0.00     0.083 A 
ATOM      7  C   UNL d   1      46.626 -20.213  44.289  0.00  0.00     0.002 A 
ATOM      8  C   UNL d   1      46.647 -20.288  43.470  0.00  0.00     0.002 A 
ATOM      9  C   UNL d   1      46.542 -19.627  42.979  0.00  0.00     0.019 A 
ATOM     10  N   UNL d   1      46.295 -18.134  42.994  0.00  0.00    -0.289 N 
BRANCH  10  11
ATOM     11  C   UNL d   1      46.272 -17.948  42.189  0.00  0.00     0.082 C 
ATOM     12  C   UNL d   1      46.388 -18.545  41.627  0.00  0.00     0.021 C 
ENDBRANCH  10  11
ENDBRANCH   1   2
BRANCH   1  13
ATOM     13  C   UNL d   1      45.868 -16.339  44.210  0.00  0.00     0.105 C 
BRANCH  13  14
ATOM     14  N   UNL d   1      45.087 -16.280  44.451  0.00  0.00    -0.206 NA
ATOM     15  C   UNL d   1      44.767 -15.544  44.647  0.00  0.00     0.279 C 
ATOM     16  O   UNL d   1      43.983 -15.494  44.888  0.00  0.00    -0.265 OA
BRANCH  15  17
ATOM     17  C   UNL d   1      45.232 -14.870  44.600  0.00  0.00     0.058 A 
ATOM     18  C   UNL d   1      44.955 -14.211  44.196  0.00  0.00     0.007 A 
ATOM     19  C   UNL d   1      45.420 -13.536  44.149  0.00  0.00     0.030 A 
ATOM     20  C   UNL d   1      46.163 -13.512  44.503  0.00  0.00     0.140 A 
ATOM     21  C   UNL d   1      46.436 -14.175  44.907  0.00  0.00     0.030 A 
ATOM     22  F   UNL d   1      46.637 -12.829  44.457  0.00  0.00    -0.204 F 
ATOM     23  C   UNL d   1      45.976 -14.846  44.954  0.00  0.00     0.007 A 
ENDBRANCH  15  17
ENDBRANCH  13  14
ENDBRANCH   1  13
TORSDOF 5
ENDMDL
