MODEL 1
REMARK VINA RESULT:      24.6      0.000      0.000
REMARK  10 active torsions:
REMARK  status: ('A' for Active; 'I' for Inactive)
REMARK    1  A    between atoms: C_5  and  C_1 
REMARK    2  A    between atoms: C_10  and  C_2 
REMARK    3  A    between atoms: S_11  and  C_3 
REMARK    4  A    between atoms: C_9  and  C_4 
REMARK       I    between atoms: N_8  and  C_5 
REMARK    5  A    between atoms: C_15  and  N_8 
REMARK    6  A    between atoms: C_26  and  S_11 
REMARK    7  A    between atoms: C_13  and  C_18 
REMARK    8  A    between atoms: C_16  and  C_26 
REMARK       I    between atoms: N_19  and  C_16 
REMARK    9  A    between atoms: C_29  and  N_19 
REMARK   10  A    between atoms: O_34  and  C_23 
ROOT
ATOM      1  C   UNL d   1     -41.651-120.954 -53.279  0.00  0.00     0.076 A 
ATOM      2  C   UNL d   1     -41.635-122.356 -53.388  0.00  0.00     0.045 A 
ATOM      3  C   UNL d   1     -41.385-122.413 -52.581  0.00  0.00     0.112 A 
ATOM      4  C   UNL d   1     -41.763-121.636 -53.722  0.00  0.00     0.016 A 
ATOM      5  C   UNL d   1     -41.404-121.010 -52.482  0.00  0.00     0.087 A 
ATOM      6  N   UNL d   1     -41.274-121.747 -52.144  0.00  0.00    -0.239 NA
ATOM      7  C   UNL d   1     -41.287-120.330 -52.024  0.00  0.00     0.021 C 
ENDROOT
BRANCH   3   8
ATOM      8  S   UNL d   1     -41.237-123.150 -52.186  0.00  0.00    -0.062 SA
BRANCH   8   9
ATOM      9  C   UNL d   1     -41.844-123.535 -51.767  0.00  0.00     0.099 C 
BRANCH   9  10
ATOM     10  C   UNL d   1     -41.831-123.539 -50.941  0.00  0.00     0.286 C 
ATOM     11  N   UNL d   1     -42.513-123.714 -50.518  0.00  0.00    -0.208 NA
ATOM     12  O   UNL d   1     -41.136-123.366 -50.546  0.00  0.00    -0.265 OA
BRANCH  11  13
ATOM     13  C   UNL d   1     -42.488-123.714 -49.691  0.00  0.00     0.085 A 
ATOM     14  C   UNL d   1     -41.773-123.617 -49.306  0.00  0.00     0.019 A 
ATOM     15  C   UNL d   1     -41.745-123.617 -48.484  0.00  0.00     0.008 A 
ATOM     16  C   UNL d   1     -42.449-123.716 -48.051  0.00  0.00     0.065 A 
ATOM     17  C   UNL d   1     -43.165-123.813 -48.436  0.00  0.00     0.008 A 
ATOM     18  C   UNL d   1     -43.189-123.813 -49.263  0.00  0.00     0.019 A 
BRANCH  16  19
ATOM     19  C   UNL d   1     -42.430-123.717 -47.215  0.00  0.00     0.211 C 
ATOM     20  O   UNL d   1     -41.702-123.691 -46.814  0.00  0.00    -0.644 OA
ATOM     21  O   UNL d   1     -43.134-123.744 -46.798  0.00  0.00    -0.644 OA
ENDBRANCH  16  19
ENDBRANCH  11  13
ENDBRANCH   9  10
ENDBRANCH   8   9
ENDBRANCH   3   8
BRANCH   2  22
ATOM     22  C   UNL d   1     -41.760-123.036 -53.872  0.00  0.00     0.124 C 
ATOM     23  N   UNL d   1     -41.123-123.558 -54.035  0.00  0.00    -0.146 N 
ENDBRANCH   2  22
BRANCH   4  24
ATOM     24  C   UNL d   1     -42.006-121.581 -54.503  0.00  0.00     0.030 A 
ATOM     25  S   UNL d   1     -42.724-121.419 -54.846  0.00  0.00    -0.086 SA
ATOM     26  C   UNL d   1     -42.624-121.441 -55.642  0.00  0.00     0.035 A 
ATOM     27  C   UNL d   1     -41.863-121.613 -55.805  0.00  0.00     0.007 A 
ATOM     28  C   UNL d   1     -41.465-121.703 -55.109  0.00  0.00     0.007 A 
ENDBRANCH   4  24
BRANCH   1  29
ATOM     29  C   UNL d   1     -41.784-120.217 -53.627  0.00  0.00     0.281 C 
ATOM     30  N   UNL d   1     -41.423-119.541 -53.303  0.00  0.00    -0.206 NA
ATOM     31  O   UNL d   1     -42.266-120.153 -54.282  0.00  0.00    -0.265 OA
BRANCH  30  32
ATOM     32  C   UNL d   1     -41.559-118.808 -53.654  0.00  0.00     0.107 A 
ATOM     33  C   UNL d   1     -41.432-118.130 -53.229  0.00  0.00     0.112 A 
ATOM     34  C   UNL d   1     -41.569-117.396 -53.585  0.00  0.00     0.026 A 
ATOM     35  C   UNL d   1     -41.829-117.352 -54.350  0.00  0.00     0.002 A 
ATOM     36  C   UNL d   1     -41.961-118.039 -54.789  0.00  0.00     0.002 A 
ATOM     37  C   UNL d   1     -41.823-118.773 -54.434  0.00  0.00     0.021 A 
BRANCH  33  38
ATOM     38  O   UNL d   1     -41.167-118.176 -52.449  0.00  0.00    -0.327 OA
ATOM     39  C   UNL d   1     -41.123-117.496 -51.985  0.00  0.00     0.181 C 
ENDBRANCH  33  38
ENDBRANCH  30  32
ENDBRANCH   1  29
TORSDOF 10
ENDMDL
MODEL 2
REMARK VINA RESULT:      27.4      1.200      2.870
REMARK  10 active torsions:
REMARK  status: ('A' for Active; 'I' for Inactive)
REMARK    1  A    between atoms: C_5  and  C_1 
REMARK    2  A    between atoms: C_10  and  C_2 
REMARK    3  A    between atoms: S_11  and  C_3 
REMARK    4  A    between atoms: C_9  and  C_4 
REMARK       I    between atoms: N_8  and  C_5 
REMARK    5  A    between atoms: C_15  and  N_8 
REMARK    6  A    between atoms: C_26  and  S_11 
REMARK    7  A    between atoms: C_13  and  C_18 
REMARK    8  A    between atoms: C_16  and  C_26 
REMARK       I    between atoms: N_19  and  C_16 
REMARK    9  A    between atoms: C_29  and  N_19 
REMARK   10  A    between atoms: O_34  and  C_23 
ROOT
ATOM      1  C   UNL d   1     -41.519-121.770 -54.173  0.00  0.00     0.076 A 
ATOM      2  C   UNL d   1     -41.524-121.488 -52.794  0.00  0.00     0.045 A 
ATOM      3  C   UNL d   1     -41.306-122.290 -52.633  0.00  0.00     0.112 A 
ATOM      4  C   UNL d   1     -41.626-121.242 -53.553  0.00  0.00     0.016 A 
ATOM      5  C   UNL d   1     -41.304-122.562 -54.013  0.00  0.00     0.087 A 
ATOM      6  N   UNL d   1     -41.200-122.810 -53.237  0.00  0.00    -0.239 NA
ATOM      7  C   UNL d   1     -41.193-123.105 -54.629  0.00  0.00     0.021 C 
ENDROOT
BRANCH   3   8
ATOM      8  S   UNL d   1     -41.186-122.595 -51.850  0.00  0.00    -0.062 SA
BRANCH   8   9
ATOM      9  C   UNL d   1     -41.651-123.223 -51.564  0.00  0.00     0.099 C 
BRANCH   9  10
ATOM     10  C   UNL d   1     -41.747-123.322 -50.750  0.00  0.00     0.286 C 
ATOM     11  N   UNL d   1     -42.467-123.144 -50.393  0.00  0.00    -0.208 NA
ATOM     12  O   UNL d   1     -41.123-123.598 -50.299  0.00  0.00    -0.265 OA
BRANCH  11  13
ATOM     13  C   UNL d   1     -42.551-123.247 -49.577  0.00  0.00     0.085 A 
ATOM     14  C   UNL d   1     -43.163-123.706 -49.287  0.00  0.00     0.019 A 
ATOM     15  C   UNL d   1     -43.250-123.811 -48.475  0.00  0.00     0.008 A 
ATOM     16  C   UNL d   1     -42.711-123.446 -47.957  0.00  0.00     0.065 A 
ATOM     17  C   UNL d   1     -42.099-122.987 -48.247  0.00  0.00     0.008 A 
ATOM     18  C   UNL d   1     -42.014-122.884 -49.063  0.00  0.00     0.019 A 
BRANCH  16  19
ATOM     19  C   UNL d   1     -42.791-123.546 -47.130  0.00  0.00     0.211 C 
ATOM     20  O   UNL d   1     -42.145-123.810 -46.677  0.00  0.00    -0.644 OA
ATOM     21  O   UNL d   1     -43.510-123.383 -46.774  0.00  0.00    -0.644 OA
ENDBRANCH  16  19
ENDBRANCH  11  13
ENDBRANCH   9  10
ENDBRANCH   8   9
ENDBRANCH   3   8
BRANCH   2  22
ATOM     22  C   UNL d   1     -41.642-120.919 -52.183  0.00  0.00     0.124 C 
ATOM     23  N   UNL d   1     -41.125-120.899 -51.522  0.00  0.00    -0.146 N 
ENDBRANCH   2  22
BRANCH   4  24
ATOM     24  C   UNL d   1     -41.837-120.465 -53.709  0.00  0.00     0.030 A 
ATOM     25  S   UNL d   1     -42.464-120.007 -53.470  0.00  0.00    -0.086 SA
ATOM     26  C   UNL d   1     -42.377-119.282 -53.804  0.00  0.00     0.035 A 
ATOM     27  C   UNL d   1     -41.712-119.276 -54.245  0.00  0.00     0.007 A 
ATOM     28  C   UNL d   1     -41.365-120.002 -54.197  0.00  0.00     0.007 A 
ENDBRANCH   4  24
BRANCH   1  29
ATOM     29  C   UNL d   1     -41.626-121.512 -54.950  0.00  0.00     0.281 C 
ATOM     30  N   UNL d   1     -42.085-121.967 -55.472  0.00  0.00    -0.206 NA
ATOM     31  O   UNL d   1     -41.282-120.816 -55.202  0.00  0.00    -0.265 OA
BRANCH  30  32
ATOM     32  C   UNL d   1     -42.189-121.706 -56.247  0.00  0.00     0.107 A 
ATOM     33  C   UNL d   1     -42.907-121.797 -56.609  0.00  0.00     0.112 A 
ATOM     34  C   UNL d   1     -43.006-121.533 -57.387  0.00  0.00     0.026 A 
ATOM     35  C   UNL d   1     -42.394-121.187 -57.785  0.00  0.00     0.002 A 
ATOM     36  C   UNL d   1     -41.657-121.090 -57.422  0.00  0.00     0.002 A 
ATOM     37  C   UNL d   1     -41.558-121.353 -56.644  0.00  0.00     0.021 A 
BRANCH  33  38
ATOM     38  O   UNL d   1     -43.532-122.151 -56.203  0.00  0.00    -0.327 OA
ATOM     39  C   UNL d   1     -43.969-122.754 -56.556  0.00  0.00     0.181 C 
ENDBRANCH  33  38
ENDBRANCH  30  32
ENDBRANCH   1  29
TORSDOF 10
ENDMDL
