MODEL 1
REMARK VINA RESULT:      -2.6      0.000      0.000
REMARK  5 active torsions:
REMARK  status: ('A' for Active; 'I' for Inactive)
REMARK    1  A    between atoms: S_2  and  C_1 
REMARK    2  A    between atoms: C_5  and  C_1 
REMARK    3  A    between atoms: C_10  and  S_2 
REMARK       I    between atoms: N_9  and  C_5 
REMARK    4  A    between atoms: C_19  and  N_9 
REMARK    5  A    between atoms: C_18  and  C_19 
ROOT
ATOM      1  C   UNL d   1      33.006  20.029 -22.429  0.00  0.00     0.277 C 
ATOM      2  N   UNL d   1      32.773  19.243 -22.589  0.00  0.00    -0.209 NA
ATOM      3  O   UNL d   1      33.237  20.517 -23.063  0.00  0.00    -0.268 OA
ENDROOT
BRANCH   1   4
ATOM      4  C   UNL d   1      33.011  20.325 -21.659  0.00  0.00     0.207 A 
ATOM      5  C   UNL d   1      33.014  20.623 -20.898  0.00  0.00    -0.001 A 
ATOM      6  C   UNL d   1      33.241  19.837 -21.024  0.00  0.00    -0.001 A 
BRANCH   4   7
ATOM      7  S   UNL d   1      32.788  21.105 -21.513  0.00  0.00     0.203 S 
ATOM      8  O   UNL d   1      32.327  20.840 -20.854  0.00  0.00    -0.221 OA
ATOM      9  O   UNL d   1      33.237  21.348 -22.152  0.00  0.00    -0.221 OA
BRANCH   7  10
ATOM     10  C   UNL d   1      32.558  21.880 -21.356  0.00  0.00     0.085 A 
ATOM     11  C   UNL d   1      32.376  22.098 -20.581  0.00  0.00     0.011 A 
ATOM     12  C   UNL d   1      32.145  22.867 -20.413  0.00  0.00     0.001 A 
ATOM     13  C   UNL d   1      32.094  23.430 -21.026  0.00  0.00     0.000 A 
ATOM     14  C   UNL d   1      32.276  23.209 -21.798  0.00  0.00     0.001 A 
ATOM     15  C   UNL d   1      32.506  22.444 -21.966  0.00  0.00     0.011 A 
ENDBRANCH   7  10
ENDBRANCH   4   7
ENDBRANCH   1   4
BRANCH   2  16
ATOM     16  C   UNL d   1      32.770  18.943 -23.380  0.00  0.00     0.102 C 
BRANCH  16  17
ATOM     17  C   UNL d   1      32.545  18.141 -23.521  0.00  0.00     0.021 A 
ATOM     18  C   UNL d   1      33.034  17.531 -23.271  0.00  0.00     0.028 A 
ATOM     19  C   UNL d   1      32.801  16.746 -23.416  0.00  0.00     0.119 A 
ATOM     20  O   UNL d   1      33.143  16.029 -23.247  0.00  0.00    -0.300 OA
ATOM     21  C   UNL d   1      32.083  16.594 -23.808  0.00  0.00     0.119 A 
ATOM     22  C   UNL d   1      32.650  15.454 -23.528  0.00  0.00     0.304 A 
ATOM     23  O   UNL d   1      32.013  15.789 -23.865  0.00  0.00    -0.300 OA
ATOM     24  C   UNL d   1      31.611  17.228 -24.050  0.00  0.00     0.026 A 
ATOM     25  C   UNL d   1      31.860  17.996 -23.896  0.00  0.00     0.004 A 
ENDBRANCH  16  17
ENDBRANCH   2  16
TORSDOF 5
ENDMDL
MODEL 2
REMARK VINA RESULT:      -2.2      2.760      4.270
REMARK  5 active torsions:
REMARK  status: ('A' for Active; 'I' for Inactive)
REMARK    1  A    between atoms: S_2  and  C_1 
REMARK    2  A    between atoms: C_5  and  C_1 
REMARK    3  A    between atoms: C_10  and  S_2 
REMARK       I    between atoms: N_9  and  C_5 
REMARK    4  A    between atoms: C_19  and  N_9 
REMARK    5  A    between atoms: C_18  and  C_19 
ROOT
ATOM      1  C   UNL d   1      31.130  17.699 -24.778  0.00  0.00     0.277 C 
ATOM      2  N   UNL d   1      30.582  17.076 -24.689  0.00  0.00    -0.209 NA
ATOM      3  O   UNL d   1      30.867  18.426 -25.086  0.00  0.00    -0.268 OA
ENDROOT
BRANCH   1   4
ATOM      4  C   UNL d   1      31.923  17.605 -24.568  0.00  0.00     0.207 A 
ATOM      5  C   UNL d   1      32.707  17.514 -24.357  0.00  0.00    -0.001 A 
ATOM      6  C   UNL d   1      32.391  17.031 -24.950  0.00  0.00    -0.001 A 
BRANCH   4   7
ATOM      7  S   UNL d   1      32.256  18.076 -23.980  0.00  0.00     0.203 S 
ATOM      8  O   UNL d   1      32.043  17.492 -23.404  0.00  0.00    -0.221 OA
ATOM      9  O   UNL d   1      32.455  18.632 -24.545  0.00  0.00    -0.221 OA
BRANCH   7  10
ATOM     10  C   UNL d   1      32.585  18.538 -23.383  0.00  0.00     0.085 A 
ATOM     11  C   UNL d   1      32.583  19.360 -23.460  0.00  0.00     0.011 A 
ATOM     12  C   UNL d   1      32.908  19.829 -22.871  0.00  0.00     0.001 A 
ATOM     13  C   UNL d   1      33.241  19.477 -22.193  0.00  0.00     0.000 A 
ATOM     14  C   UNL d   1      33.241  18.657 -22.119  0.00  0.00     0.001 A 
ATOM     15  C   UNL d   1      32.918  18.188 -22.705  0.00  0.00     0.011 A 
ENDBRANCH   7  10
ENDBRANCH   4   7
ENDBRANCH   1   4
BRANCH   2  16
ATOM     16  C   UNL d   1      29.770  17.178 -24.906  0.00  0.00     0.102 C 
BRANCH  16  17
ATOM     17  C   UNL d   1      29.176  16.710 -24.529  0.00  0.00     0.021 A 
ATOM     18  C   UNL d   1      28.677  17.055 -23.975  0.00  0.00     0.028 A 
ATOM     19  C   UNL d   1      28.097  16.584 -23.611  0.00  0.00     0.119 A 
ATOM     20  O   UNL d   1      27.527  16.743 -23.054  0.00  0.00    -0.300 OA
ATOM     21  C   UNL d   1      28.032  15.779 -23.812  0.00  0.00     0.119 A 
ATOM     22  C   UNL d   1      27.125  16.056 -22.917  0.00  0.00     0.304 A 
ATOM     23  O   UNL d   1      27.425  15.476 -23.370  0.00  0.00    -0.300 OA
ATOM     24  C   UNL d   1      28.548  15.459 -24.373  0.00  0.00     0.026 A 
ATOM     25  C   UNL d   1      29.114  15.942 -24.721  0.00  0.00     0.004 A 
ENDBRANCH  16  17
ENDBRANCH   2  16
TORSDOF 5
ENDMDL
MODEL 3
REMARK VINA RESULT:      -1.1      0.943      1.389
REMARK  5 active torsions:
REMARK  status: ('A' for Active; 'I' for Inactive)
REMARK    1  A    between atoms: S_2  and  C_1 
REMARK    2  A    between atoms: C_5  and  C_1 
REMARK    3  A    between atoms: C_10  and  S_2 
REMARK       I    between atoms: N_9  and  C_5 
REMARK    4  A    between atoms: C_19  and  N_9 
REMARK    5  A    between atoms: C_18  and  C_19 
ROOT
ATOM      1  C   UNL d   1      32.851  20.578 -21.944  0.00  0.00     0.277 C 
ATOM      2  N   UNL d   1      32.993  19.993 -22.521  0.00  0.00    -0.209 NA
ATOM      3  O   UNL d   1      32.567  20.346 -21.196  0.00  0.00    -0.268 OA
ENDROOT
BRANCH   1   4
ATOM      4  C   UNL d   1      32.986  21.377 -22.102  0.00  0.00     0.207 A 
ATOM      5  C   UNL d   1      33.119  22.169 -22.254  0.00  0.00    -0.001 A 
ATOM      6  C   UNL d   1      33.241  21.617 -22.858  0.00  0.00    -0.001 A 
BRANCH   4   7
ATOM      7  S   UNL d   1      32.871  21.943 -21.514  0.00  0.00     0.203 S 
ATOM      8  O   UNL d   1      32.490  22.442 -22.082  0.00  0.00    -0.221 OA
ATOM      9  O   UNL d   1      33.241  21.451 -20.975  0.00  0.00    -0.221 OA
BRANCH   7  10
ATOM     10  C   UNL d   1      32.749  22.516 -20.935  0.00  0.00     0.085 A 
ATOM     11  C   UNL d   1      32.129  23.053 -21.023  0.00  0.00     0.011 A 
ATOM     12  C   UNL d   1      31.998  23.629 -20.453  0.00  0.00     0.001 A 
ATOM     13  C   UNL d   1      32.492  23.671 -19.784  0.00  0.00     0.000 A 
ATOM     14  C   UNL d   1      33.110  23.134 -19.699  0.00  0.00     0.001 A 
ATOM     15  C   UNL d   1      33.241  22.561 -20.265  0.00  0.00     0.011 A 
ENDBRANCH   7  10
ENDBRANCH   4   7
ENDBRANCH   1   4
BRANCH   2  16
ATOM     16  C   UNL d   1      32.853  19.175 -22.354  0.00  0.00     0.102 C 
BRANCH  16  17
ATOM     17  C   UNL d   1      32.842  18.616 -22.988  0.00  0.00     0.021 A 
ATOM     18  C   UNL d   1      33.069  17.839 -22.850  0.00  0.00     0.028 A 
ATOM     19  C   UNL d   1      33.053  17.300 -23.481  0.00  0.00     0.119 A 
ATOM     20  O   UNL d   1      33.237  16.510 -23.537  0.00  0.00    -0.300 OA
ATOM     21  C   UNL d   1      32.811  17.553 -24.236  0.00  0.00     0.119 A 
ATOM     22  C   UNL d   1      33.111  16.286 -24.303  0.00  0.00     0.304 A 
ATOM     23  O   UNL d   1      32.855  16.909 -24.725  0.00  0.00    -0.300 OA
ATOM     24  C   UNL d   1      32.587  18.341 -24.346  0.00  0.00     0.026 A 
ATOM     25  C   UNL d   1      32.610  18.858 -23.708  0.00  0.00     0.004 A 
ENDBRANCH  16  17
ENDBRANCH   2  16
TORSDOF 5
ENDMDL
