MODEL 1
REMARK VINA RESULT:       8.8      0.000      0.000
REMARK  6 active torsions:
REMARK  status: ('A' for Active; 'I' for Inactive)
REMARK    1  A    between atoms: N_9  and  C_1 
REMARK    2  A    between atoms: C_4  and  S_13 
REMARK    3  A    between atoms: C_14  and  C_8 
REMARK       I    between atoms: C_12  and  N_9 
REMARK    4  A    between atoms: C_17  and  C_10 
REMARK    5  A    between atoms: C_16  and  C_12 
REMARK    6  A    between atoms: S_13  and  C_16 
ROOT
ATOM      1  S   UNL d   1      45.402 -16.641  44.344  0.00  0.00    -0.043 SA
ENDROOT
BRANCH   1   2
ATOM      2  C   UNL d   1      45.795 -17.354  44.179  0.00  0.00     0.195 A 
ATOM      3  N   UNL d   1      45.796 -17.756  43.462  0.00  0.00    -0.220 NA
ATOM      4  C   UNL d   1      46.252 -18.425  43.552  0.00  0.00     0.103 A 
ATOM      5  C   UNL d   1      46.535 -18.443  44.319  0.00  0.00     0.120 A 
ATOM      6  N   UNL d   1      46.251 -17.781  44.701  0.00  0.00    -0.218 NA
BRANCH   4   7
ATOM      7  C   UNL d   1      46.378 -18.965  42.943  0.00  0.00     0.019 A 
ATOM      8  C   UNL d   1      46.481 -18.698  42.167  0.00  0.00     0.002 A 
ATOM      9  C   UNL d   1      46.607 -19.252  41.566  0.00  0.00     0.000 A 
ATOM     10  C   UNL d   1      46.630 -20.056  41.743  0.00  0.00     0.000 A 
ATOM     11  C   UNL d   1      46.528 -20.314  42.507  0.00  0.00     0.000 A 
ATOM     12  C   UNL d   1      46.401 -19.759  43.117  0.00  0.00     0.002 A 
ENDBRANCH   4   7
ENDBRANCH   1   2
BRANCH   1  13
ATOM     13  C   UNL d   1      45.676 -16.156  44.955  0.00  0.00     0.101 C 
BRANCH  13  14
ATOM     14  C   UNL d   1      45.835 -15.358  44.814  0.00  0.00     0.288 C 
ATOM     15  N   UNL d   1      45.232 -14.839  44.591  0.00  0.00    -0.181 NA
ATOM     16  O   UNL d   1      46.614 -15.073  44.899  0.00  0.00    -0.265 OA
BRANCH  15  17
ATOM     17  C   UNL d   1      45.395 -14.038  44.450  0.00  0.00     0.219 A 
ATOM     18  S   UNL d   1      44.995 -13.634  43.852  0.00  0.00    -0.026 SA
ATOM     19  C   UNL d   1      45.271 -12.852  43.843  0.00  0.00     0.135 A 
ATOM     20  N   UNL d   1      45.842 -12.778  44.435  0.00  0.00    -0.139 NA
ATOM     21  N   UNL d   1      45.920 -13.508  44.811  0.00  0.00    -0.121 NA
BRANCH  19  22
ATOM     22  C   UNL d   1      45.025 -12.253  43.336  0.00  0.00     0.028 C 
ATOM     23  C   UNL d   1      45.013 -12.390  42.521  0.00  0.00     0.002 C 
ENDBRANCH  19  22
ENDBRANCH  15  17
ENDBRANCH  13  14
ENDBRANCH   1  13
TORSDOF 6
ENDMDL
MODEL 2
REMARK VINA RESULT:       8.9      1.140      5.545
REMARK  6 active torsions:
REMARK  status: ('A' for Active; 'I' for Inactive)
REMARK    1  A    between atoms: N_9  and  C_1 
REMARK    2  A    between atoms: C_4  and  S_13 
REMARK    3  A    between atoms: C_14  and  C_8 
REMARK       I    between atoms: C_12  and  N_9 
REMARK    4  A    between atoms: C_17  and  C_10 
REMARK    5  A    between atoms: C_16  and  C_12 
REMARK    6  A    between atoms: S_13  and  C_16 
ROOT
ATOM      1  S   UNL d   1      45.814 -16.015  44.836  0.00  0.00    -0.043 SA
ENDROOT
BRANCH   1   2
ATOM      2  C   UNL d   1      45.917 -15.205  44.683  0.00  0.00     0.195 A 
ATOM      3  N   UNL d   1      45.423 -14.726  44.233  0.00  0.00    -0.220 NA
ATOM      4  C   UNL d   1      45.737 -13.975  44.233  0.00  0.00     0.103 A 
ATOM      5  C   UNL d   1      46.422 -13.981  44.679  0.00  0.00     0.120 A 
ATOM      6  N   UNL d   1      46.529 -14.740  44.954  0.00  0.00    -0.218 NA
BRANCH   4   7
ATOM      7  C   UNL d   1      45.387 -13.344  43.835  0.00  0.00     0.019 A 
ATOM      8  C   UNL d   1      45.851 -12.710  43.575  0.00  0.00     0.002 A 
ATOM      9  C   UNL d   1      45.487 -12.084  43.177  0.00  0.00     0.000 A 
ATOM     10  C   UNL d   1      44.673 -12.096  43.044  0.00  0.00     0.000 A 
ATOM     11  C   UNL d   1      44.222 -12.720  43.301  0.00  0.00     0.000 A 
ATOM     12  C   UNL d   1      44.585 -13.354  43.704  0.00  0.00     0.002 A 
ENDBRANCH   4   7
ENDBRANCH   1   2
BRANCH   1  13
ATOM     13  C   UNL d   1      45.606 -16.523  44.217  0.00  0.00     0.101 C 
BRANCH  13  14
ATOM     14  C   UNL d   1      45.847 -17.312  44.227  0.00  0.00     0.288 C 
ATOM     15  N   UNL d   1      45.910 -17.744  43.526  0.00  0.00    -0.181 NA
ATOM     16  O   UNL d   1      46.028 -17.677  44.955  0.00  0.00    -0.265 OA
BRANCH  15  17
ATOM     17  C   UNL d   1      46.153 -18.538  43.539  0.00  0.00     0.219 A 
ATOM     18  S   UNL d   1      46.245 -18.952  42.832  0.00  0.00    -0.026 SA
ATOM     19  C   UNL d   1      46.489 -19.724  43.018  0.00  0.00     0.135 A 
ATOM     20  N   UNL d   1      46.546 -19.779  43.840  0.00  0.00    -0.139 NA
ATOM     21  N   UNL d   1      46.339 -19.049  44.164  0.00  0.00    -0.121 NA
BRANCH  19  22
ATOM     22  C   UNL d   1      46.647 -20.328  42.484  0.00  0.00     0.028 C 
ATOM     23  C   UNL d   1      46.641 -20.165  41.673  0.00  0.00     0.002 C 
ENDBRANCH  19  22
ENDBRANCH  15  17
ENDBRANCH  13  14
ENDBRANCH   1  13
TORSDOF 6
ENDMDL
