MODEL 1
REMARK VINA RESULT:      -6.6      0.000      0.000
REMARK  6 active torsions:
REMARK  status: ('A' for Active; 'I' for Inactive)
REMARK    1  A    between atoms: N_2  and  S_1 
REMARK    2  A    between atoms: C_4  and  S_1 
REMARK    3  A    between atoms: C_3  and  N_2 
REMARK    4  A    between atoms: N_7  and  C_3 
REMARK    5  A    between atoms: C_11  and  N_7 
REMARK    6  A    between atoms: C_15  and  C_14 
ROOT
ATOM      1  S   UNL d   1     -47.499  13.029  22.998  0.00  0.00     0.287 S 
ATOM      2  O   UNL d   1     -47.887  12.828  23.698  0.00  0.00    -0.198 OA
ATOM      3  O   UNL d   1     -47.108  13.231  22.295  0.00  0.00    -0.198 OA
ENDROOT
BRANCH   1   4
ATOM      4  N   UNL d   1     -48.061  13.622  22.857  0.00  0.00    -0.128 NA
BRANCH   4   5
ATOM      5  C   UNL d   1     -48.572  13.998  22.329  0.00  0.00     0.232 C 
ATOM      6  S   UNL d   1     -48.942  13.569  21.730  0.00  0.00    -0.036 SA
BRANCH   5   7
ATOM      7  N   UNL d   1     -48.709  14.807  22.404  0.00  0.00    -0.217 NA
BRANCH   7   8
ATOM      8  C   UNL d   1     -49.424  15.068  22.728  0.00  0.00     0.084 A 
ATOM      9  C   UNL d   1     -50.134  14.826  22.389  0.00  0.00     0.019 A 
ATOM     10  C   UNL d   1     -50.849  15.082  22.706  0.00  0.00     0.002 A 
ATOM     11  C   UNL d   1     -50.854  15.575  23.357  0.00  0.00     0.000 A 
ATOM     12  C   UNL d   1     -50.140  15.814  23.694  0.00  0.00     0.002 A 
ATOM     13  C   UNL d   1     -49.430  15.561  23.380  0.00  0.00     0.019 A 
ENDBRANCH   7   8
ENDBRANCH   5   7
ENDBRANCH   4   5
ENDBRANCH   1   4
BRANCH   1  14
ATOM     14  C   UNL d   1     -46.934  12.433  23.141  0.00  0.00     0.105 A 
ATOM     15  C   UNL d   1     -47.155  11.755  23.554  0.00  0.00     0.013 A 
ATOM     16  C   UNL d   1     -46.590  11.158  23.698  0.00  0.00     0.001 A 
ATOM     17  C   UNL d   1     -45.806  11.245  23.426  0.00  0.00     0.000 A 
ATOM     18  C   UNL d   1     -45.590  11.930  23.011  0.00  0.00     0.001 A 
ATOM     19  C   UNL d   1     -46.150  12.520  22.870  0.00  0.00     0.013 A 
BRANCH  17  20
ATOM     20  C   UNL d   1     -45.256  10.649  23.574  0.00  0.00     0.000 C 
ATOM     21  C   UNL d   1     -44.454  10.794  23.481  0.00  0.00     0.000 C 
ENDBRANCH  17  20
ENDBRANCH   1  14
TORSDOF 6
ENDMDL
MODEL 2
REMARK VINA RESULT:      -6.3      0.994      1.295
REMARK  6 active torsions:
REMARK  status: ('A' for Active; 'I' for Inactive)
REMARK    1  A    between atoms: N_2  and  S_1 
REMARK    2  A    between atoms: C_4  and  S_1 
REMARK    3  A    between atoms: C_3  and  N_2 
REMARK    4  A    between atoms: N_7  and  C_3 
REMARK    5  A    between atoms: C_11  and  N_7 
REMARK    6  A    between atoms: C_15  and  C_14 
ROOT
ATOM      1  S   UNL d   1     -47.073  13.616  22.836  0.00  0.00     0.287 S 
ATOM      2  O   UNL d   1     -46.694  14.336  22.971  0.00  0.00    -0.198 OA
ATOM      3  O   UNL d   1     -47.453  12.892  22.701  0.00  0.00    -0.198 OA
ENDROOT
BRANCH   1   4
ATOM      4  N   UNL d   1     -47.805  13.971  22.997  0.00  0.00    -0.128 NA
BRANCH   4   5
ATOM      5  C   UNL d   1     -48.615  14.018  22.846  0.00  0.00     0.232 C 
ATOM      6  S   UNL d   1     -49.111  13.387  23.034  0.00  0.00    -0.036 SA
BRANCH   5   7
ATOM      7  N   UNL d   1     -48.925  14.700  22.504  0.00  0.00    -0.217 NA
BRANCH   7   8
ATOM      8  C   UNL d   1     -49.635  15.011  22.794  0.00  0.00     0.084 A 
ATOM      9  C   UNL d   1     -50.347  14.779  22.451  0.00  0.00     0.019 A 
ATOM     10  C   UNL d   1     -51.057  15.083  22.734  0.00  0.00     0.002 A 
ATOM     11  C   UNL d   1     -51.056  15.616  23.353  0.00  0.00     0.000 A 
ATOM     12  C   UNL d   1     -50.340  15.845  23.693  0.00  0.00     0.002 A 
ATOM     13  C   UNL d   1     -49.634  15.543  23.413  0.00  0.00     0.019 A 
ENDBRANCH   7   8
ENDBRANCH   5   7
ENDBRANCH   4   5
ENDBRANCH   1   4
BRANCH   1  14
ATOM     14  C   UNL d   1     -46.336  13.260  22.674  0.00  0.00     0.105 A 
ATOM     15  C   UNL d   1     -46.163  12.521  22.998  0.00  0.00     0.013 A 
ATOM     16  C   UNL d   1     -45.426  12.165  22.836  0.00  0.00     0.001 A 
ATOM     17  C   UNL d   1     -44.868  12.551  22.351  0.00  0.00     0.000 A 
ATOM     18  C   UNL d   1     -45.049  13.294  22.029  0.00  0.00     0.001 A 
ATOM     19  C   UNL d   1     -45.778  13.646  22.190  0.00  0.00     0.013 A 
BRANCH  17  20
ATOM     20  C   UNL d   1     -44.142  12.190  22.198  0.00  0.00     0.000 C 
ATOM     21  C   UNL d   1     -43.601  12.546  21.696  0.00  0.00     0.000 C 
ENDBRANCH  17  20
ENDBRANCH   1  14
TORSDOF 6
ENDMDL
MODEL 3
REMARK VINA RESULT:      -5.7      1.258      4.937
REMARK  6 active torsions:
REMARK  status: ('A' for Active; 'I' for Inactive)
REMARK    1  A    between atoms: N_2  and  S_1 
REMARK    2  A    between atoms: C_4  and  S_1 
REMARK    3  A    between atoms: C_3  and  N_2 
REMARK    4  A    between atoms: N_7  and  C_3 
REMARK    5  A    between atoms: C_11  and  N_7 
REMARK    6  A    between atoms: C_15  and  C_14 
ROOT
ATOM      1  S   UNL d   1     -48.020  13.849  22.757  0.00  0.00     0.287 S 
ATOM      2  O   UNL d   1     -48.353  13.323  22.216  0.00  0.00    -0.198 OA
ATOM      3  O   UNL d   1     -47.686  14.379  23.301  0.00  0.00    -0.198 OA
ENDROOT
BRANCH   1   4
ATOM      4  N   UNL d   1     -47.278  13.496  22.645  0.00  0.00    -0.128 NA
BRANCH   4   5
ATOM      5  C   UNL d   1     -46.643  13.075  22.961  0.00  0.00     0.232 C 
ATOM      6  S   UNL d   1     -46.750  12.308  23.246  0.00  0.00    -0.036 SA
BRANCH   5   7
ATOM      7  N   UNL d   1     -45.898  13.426  22.990  0.00  0.00    -0.217 NA
BRANCH   7   8
ATOM      8  C   UNL d   1     -45.270  13.079  22.577  0.00  0.00     0.084 A 
ATOM      9  C   UNL d   1     -44.967  13.458  21.911  0.00  0.00     0.019 A 
ATOM     10  C   UNL d   1     -44.343  13.120  21.495  0.00  0.00     0.002 A 
ATOM     11  C   UNL d   1     -44.025  12.409  21.741  0.00  0.00     0.000 A 
ATOM     12  C   UNL d   1     -44.333  12.033  22.409  0.00  0.00     0.002 A 
ATOM     13  C   UNL d   1     -44.952  12.368  22.823  0.00  0.00     0.019 A 
ENDBRANCH   7   8
ENDBRANCH   5   7
ENDBRANCH   4   5
ENDBRANCH   1   4
BRANCH   1  14
ATOM     14  C   UNL d   1     -48.766  14.205  22.869  0.00  0.00     0.105 A 
ATOM     15  C   UNL d   1     -48.863  15.006  22.700  0.00  0.00     0.013 A 
ATOM     16  C   UNL d   1     -49.610  15.361  22.812  0.00  0.00     0.001 A 
ATOM     17  C   UNL d   1     -50.254  14.912  23.092  0.00  0.00     0.000 A 
ATOM     18  C   UNL d   1     -50.149  14.106  23.259  0.00  0.00     0.001 A 
ATOM     19  C   UNL d   1     -49.410  13.755  23.149  0.00  0.00     0.013 A 
BRANCH  17  20
ATOM     20  C   UNL d   1     -50.987  15.274  23.198  0.00  0.00     0.000 C 
ATOM     21  C   UNL d   1     -51.060  15.922  23.695  0.00  0.00     0.000 C 
ENDBRANCH  17  20
ENDBRANCH   1  14
TORSDOF 6
ENDMDL
MODEL 4
REMARK VINA RESULT:      -5.7      0.972      4.966
REMARK  6 active torsions:
REMARK  status: ('A' for Active; 'I' for Inactive)
REMARK    1  A    between atoms: N_2  and  S_1 
REMARK    2  A    between atoms: C_4  and  S_1 
REMARK    3  A    between atoms: C_3  and  N_2 
REMARK    4  A    between atoms: N_7  and  C_3 
REMARK    5  A    between atoms: C_11  and  N_7 
REMARK    6  A    between atoms: C_15  and  C_14 
ROOT
ATOM      1  S   UNL d   1     -47.734  13.441  22.765  0.00  0.00     0.287 S 
ATOM      2  O   UNL d   1     -47.343  13.839  23.373  0.00  0.00    -0.198 OA
ATOM      3  O   UNL d   1     -48.128  13.041  22.154  0.00  0.00    -0.198 OA
ENDROOT
BRANCH   1   4
ATOM      4  N   UNL d   1     -47.113  12.894  22.723  0.00  0.00    -0.128 NA
BRANCH   4   5
ATOM      5  C   UNL d   1     -46.303  12.742  22.766  0.00  0.00     0.232 C 
ATOM      6  S   UNL d   1     -45.815  12.897  22.118  0.00  0.00    -0.036 SA
BRANCH   5   7
ATOM      7  N   UNL d   1     -45.982  12.435  23.460  0.00  0.00    -0.217 NA
BRANCH   7   8
ATOM      8  C   UNL d   1     -45.630  11.687  23.447  0.00  0.00     0.084 A 
ATOM      9  C   UNL d   1     -46.062  11.031  23.695  0.00  0.00     0.019 A 
ATOM     10  C   UNL d   1     -45.718  10.284  23.684  0.00  0.00     0.002 A 
ATOM     11  C   UNL d   1     -44.948  10.192  23.428  0.00  0.00     0.000 A 
ATOM     12  C   UNL d   1     -44.518  10.852  23.180  0.00  0.00     0.002 A 
ATOM     13  C   UNL d   1     -44.859  11.595  23.190  0.00  0.00     0.019 A 
ENDBRANCH   7   8
ENDBRANCH   5   7
ENDBRANCH   4   5
ENDBRANCH   1   4
BRANCH   1  14
ATOM     14  C   UNL d   1     -48.359  13.992  22.807  0.00  0.00     0.105 A 
ATOM     15  C   UNL d   1     -48.277  14.727  22.445  0.00  0.00     0.013 A 
ATOM     16  C   UNL d   1     -48.902  15.278  22.487  0.00  0.00     0.001 A 
ATOM     17  C   UNL d   1     -49.605  15.088  22.893  0.00  0.00     0.000 A 
ATOM     18  C   UNL d   1     -49.681  14.346  23.256  0.00  0.00     0.001 A 
ATOM     19  C   UNL d   1     -49.063  13.802  23.213  0.00  0.00     0.013 A 
BRANCH  17  20
ATOM     20  C   UNL d   1     -50.217  15.641  22.928  0.00  0.00     0.000 C 
ATOM     21  C   UNL d   1     -50.957  15.420  23.202  0.00  0.00     0.000 C 
ENDBRANCH  17  20
ENDBRANCH   1  14
TORSDOF 6
ENDMDL
MODEL 5
REMARK VINA RESULT:      -5.3      8.786      9.826
REMARK  6 active torsions:
REMARK  status: ('A' for Active; 'I' for Inactive)
REMARK    1  A    between atoms: N_2  and  S_1 
REMARK    2  A    between atoms: C_4  and  S_1 
REMARK    3  A    between atoms: C_3  and  N_2 
REMARK    4  A    between atoms: N_7  and  C_3 
REMARK    5  A    between atoms: C_11  and  N_7 
REMARK    6  A    between atoms: C_15  and  C_14 
ROOT
ATOM      1  S   UNL d   1     -39.962  14.522  19.439  0.00  0.00     0.287 S 
ATOM      2  O   UNL d   1     -39.200  14.529  19.122  0.00  0.00    -0.198 OA
ATOM      3  O   UNL d   1     -40.727  14.516  19.756  0.00  0.00    -0.198 OA
ENDROOT
BRANCH   1   4
ATOM      4  N   UNL d   1     -39.661  14.233  20.155  0.00  0.00    -0.128 NA
BRANCH   4   5
ATOM      5  C   UNL d   1     -39.483  14.364  20.950  0.00  0.00     0.232 C 
ATOM      6  S   UNL d   1     -40.082  14.551  21.486  0.00  0.00    -0.036 SA
BRANCH   5   7
ATOM      7  N   UNL d   1     -38.702  14.308  21.207  0.00  0.00    -0.217 NA
BRANCH   7   8
ATOM      8  C   UNL d   1     -38.547  14.070  21.983  0.00  0.00     0.084 A 
ATOM      9  C   UNL d   1     -38.433  13.270  22.146  0.00  0.00     0.019 A 
ATOM     10  C   UNL d   1     -38.279  13.026  22.916  0.00  0.00     0.002 A 
ATOM     11  C   UNL d   1     -38.238  13.576  23.519  0.00  0.00     0.000 A 
ATOM     12  C   UNL d   1     -38.353  14.375  23.351  0.00  0.00     0.002 A 
ATOM     13  C   UNL d   1     -38.506  14.619  22.587  0.00  0.00     0.019 A 
ENDBRANCH   7   8
ENDBRANCH   5   7
ENDBRANCH   4   5
ENDBRANCH   1   4
BRANCH   1  14
ATOM     14  C   UNL d   1     -40.263  14.814  18.718  0.00  0.00     0.105 A 
ATOM     15  C   UNL d   1     -40.255  14.330  18.050  0.00  0.00     0.013 A 
ATOM     16  C   UNL d   1     -40.557  14.621  17.329  0.00  0.00     0.001 A 
ATOM     17  C   UNL d   1     -40.863  15.395  17.281  0.00  0.00     0.000 A 
ATOM     18  C   UNL d   1     -40.868  15.877  17.957  0.00  0.00     0.001 A 
ATOM     19  C   UNL d   1     -40.569  15.588  18.670  0.00  0.00     0.013 A 
BRANCH  17  20
ATOM     20  C   UNL d   1     -41.159  15.673  16.562  0.00  0.00     0.000 C 
ATOM     21  C   UNL d   1     -41.938  15.919  16.504  0.00  0.00     0.000 C 
ENDBRANCH  17  20
ENDBRANCH   1  14
TORSDOF 6
ENDMDL
MODEL 6
REMARK VINA RESULT:      -5.2      8.823      9.259
REMARK  6 active torsions:
REMARK  status: ('A' for Active; 'I' for Inactive)
REMARK    1  A    between atoms: N_2  and  S_1 
REMARK    2  A    between atoms: C_4  and  S_1 
REMARK    3  A    between atoms: C_3  and  N_2 
REMARK    4  A    between atoms: N_7  and  C_3 
REMARK    5  A    between atoms: C_11  and  N_7 
REMARK    6  A    between atoms: C_15  and  C_14 
ROOT
ATOM      1  S   UNL d   1     -39.391  14.671  20.588  0.00  0.00     0.287 S 
ATOM      2  O   UNL d   1     -38.612  14.837  20.372  0.00  0.00    -0.198 OA
ATOM      3  O   UNL d   1     -40.173  14.504  20.806  0.00  0.00    -0.198 OA
ENDROOT
BRANCH   1   4
ATOM      4  N   UNL d   1     -39.650  14.913  19.839  0.00  0.00    -0.128 NA
BRANCH   4   5
ATOM      5  C   UNL d   1     -40.265  15.179  19.357  0.00  0.00     0.232 C 
ATOM      6  S   UNL d   1     -40.601  15.922  19.482  0.00  0.00    -0.036 SA
BRANCH   5   7
ATOM      7  N   UNL d   1     -40.543  14.696  18.750  0.00  0.00    -0.217 NA
BRANCH   7   8
ATOM      8  C   UNL d   1     -40.536  14.980  17.972  0.00  0.00     0.084 A 
ATOM      9  C   UNL d   1     -41.215  15.328  17.664  0.00  0.00     0.019 A 
ATOM     10  C   UNL d   1     -41.216  15.612  16.892  0.00  0.00     0.002 A 
ATOM     11  C   UNL d   1     -40.544  15.548  16.431  0.00  0.00     0.000 A 
ATOM     12  C   UNL d   1     -39.866  15.199  16.746  0.00  0.00     0.002 A 
ATOM     13  C   UNL d   1     -39.864  14.916  17.512  0.00  0.00     0.019 A 
ENDBRANCH   7   8
ENDBRANCH   5   7
ENDBRANCH   4   5
ENDBRANCH   1   4
BRANCH   1  14
ATOM     14  C   UNL d   1     -39.129  14.427  21.342  0.00  0.00     0.105 A 
ATOM     15  C   UNL d   1     -38.812  13.672  21.436  0.00  0.00     0.013 A 
ATOM     16  C   UNL d   1     -38.550  13.428  22.190  0.00  0.00     0.001 A 
ATOM     17  C   UNL d   1     -38.607  13.942  22.844  0.00  0.00     0.000 A 
ATOM     18  C   UNL d   1     -38.927  14.701  22.741  0.00  0.00     0.001 A 
ATOM     19  C   UNL d   1     -39.186  14.941  21.996  0.00  0.00     0.013 A 
BRANCH  17  20
ATOM     20  C   UNL d   1     -38.345  13.691  23.584  0.00  0.00     0.000 C 
ATOM     21  C   UNL d   1     -38.113  12.913  23.698  0.00  0.00     0.000 C 
ENDBRANCH  17  20
ENDBRANCH   1  14
TORSDOF 6
ENDMDL
MODEL 7
REMARK VINA RESULT:      -4.9      9.072     10.520
REMARK  6 active torsions:
REMARK  status: ('A' for Active; 'I' for Inactive)
REMARK    1  A    between atoms: N_2  and  S_1 
REMARK    2  A    between atoms: C_4  and  S_1 
REMARK    3  A    between atoms: C_3  and  N_2 
REMARK    4  A    between atoms: N_7  and  C_3 
REMARK    5  A    between atoms: C_11  and  N_7 
REMARK    6  A    between atoms: C_15  and  C_14 
ROOT
ATOM      1  S   UNL d   1     -38.918  14.348  17.888  0.00  0.00     0.287 S 
ATOM      2  O   UNL d   1     -38.528  15.074  17.936  0.00  0.00    -0.198 OA
ATOM      3  O   UNL d   1     -39.308  13.619  17.839  0.00  0.00    -0.198 OA
ENDROOT
BRANCH   1   4
ATOM      4  N   UNL d   1     -39.162  14.427  18.676  0.00  0.00    -0.128 NA
BRANCH   4   5
ATOM      5  C   UNL d   1     -39.125  14.162  19.456  0.00  0.00     0.232 C 
ATOM      6  S   UNL d   1     -38.400  13.955  19.792  0.00  0.00    -0.036 SA
BRANCH   5   7
ATOM      7  N   UNL d   1     -39.817  14.105  19.900  0.00  0.00    -0.217 NA
BRANCH   7   8
ATOM      8  C   UNL d   1     -39.976  14.676  20.477  0.00  0.00     0.084 A 
ATOM      9  C   UNL d   1     -39.457  14.766  21.110  0.00  0.00     0.019 A 
ATOM     10  C   UNL d   1     -39.609  15.331  21.688  0.00  0.00     0.002 A 
ATOM     11  C   UNL d   1     -40.274  15.802  21.635  0.00  0.00     0.000 A 
ATOM     12  C   UNL d   1     -40.791  15.708  20.999  0.00  0.00     0.002 A 
ATOM     13  C   UNL d   1     -40.641  15.147  20.424  0.00  0.00     0.019 A 
ENDBRANCH   7   8
ENDBRANCH   5   7
ENDBRANCH   4   5
ENDBRANCH   1   4
BRANCH   1  14
ATOM     14  C   UNL d   1     -38.671  14.269  17.095  0.00  0.00     0.105 A 
ATOM     15  C   UNL d   1     -38.911  14.828  16.538  0.00  0.00     0.013 A 
ATOM     16  C   UNL d   1     -38.664  14.749  15.745  0.00  0.00     0.001 A 
ATOM     17  C   UNL d   1     -38.178  14.112  15.515  0.00  0.00     0.000 A 
ATOM     18  C   UNL d   1     -37.940  13.553  16.081  0.00  0.00     0.001 A 
ATOM     19  C   UNL d   1     -38.185  13.632  16.865  0.00  0.00     0.013 A 
BRANCH  17  20
ATOM     20  C   UNL d   1     -37.940  14.044  14.728  0.00  0.00     0.000 C 
ATOM     21  C   UNL d   1     -38.186  13.406  14.276  0.00  0.00     0.000 C 
ENDBRANCH  17  20
ENDBRANCH   1  14
TORSDOF 6
ENDMDL
MODEL 8
REMARK VINA RESULT:      -4.7      9.099     10.625
REMARK  6 active torsions:
REMARK  status: ('A' for Active; 'I' for Inactive)
REMARK    1  A    between atoms: N_2  and  S_1 
REMARK    2  A    between atoms: C_4  and  S_1 
REMARK    3  A    between atoms: C_3  and  N_2 
REMARK    4  A    between atoms: N_7  and  C_3 
REMARK    5  A    between atoms: C_11  and  N_7 
REMARK    6  A    between atoms: C_15  and  C_14 
ROOT
ATOM      1  S   UNL d   1     -38.994  14.462  19.543  0.00  0.00     0.287 S 
ATOM      2  O   UNL d   1     -39.686  14.030  19.420  0.00  0.00    -0.198 OA
ATOM      3  O   UNL d   1     -38.298  14.895  19.667  0.00  0.00    -0.198 OA
ENDROOT
BRANCH   1   4
ATOM      4  N   UNL d   1     -38.975  14.660  18.738  0.00  0.00    -0.128 NA
BRANCH   4   5
ATOM      5  C   UNL d   1     -39.009  14.416  17.950  0.00  0.00     0.232 C 
ATOM      6  S   UNL d   1     -39.719  14.459  17.532  0.00  0.00    -0.036 SA
BRANCH   5   7
ATOM      7  N   UNL d   1     -38.330  14.129  17.583  0.00  0.00    -0.217 NA
BRANCH   7   8
ATOM      8  C   UNL d   1     -38.207  14.284  16.780  0.00  0.00     0.084 A 
ATOM      9  C   UNL d   1     -38.232  13.662  16.240  0.00  0.00     0.019 A 
ATOM     10  C   UNL d   1     -38.111  13.809  15.440  0.00  0.00     0.002 A 
ATOM     11  C   UNL d   1     -37.966  14.570  15.181  0.00  0.00     0.000 A 
ATOM     12  C   UNL d   1     -37.942  15.189  15.725  0.00  0.00     0.002 A 
ATOM     13  C   UNL d   1     -38.062  15.045  16.521  0.00  0.00     0.019 A 
ENDBRANCH   7   8
ENDBRANCH   5   7
ENDBRANCH   4   5
ENDBRANCH   1   4
BRANCH   1  14
ATOM     14  C   UNL d   1     -39.014  14.262  20.352  0.00  0.00     0.105 A 
ATOM     15  C   UNL d   1     -38.472  13.716  20.649  0.00  0.00     0.013 A 
ATOM     16  C   UNL d   1     -38.492  13.516  21.458  0.00  0.00     0.001 A 
ATOM     17  C   UNL d   1     -39.055  13.864  21.965  0.00  0.00     0.000 A 
ATOM     18  C   UNL d   1     -39.598  14.412  21.660  0.00  0.00     0.001 A 
ATOM     19  C   UNL d   1     -39.577  14.609  20.859  0.00  0.00     0.013 A 
BRANCH  17  20
ATOM     20  C   UNL d   1     -39.066  13.658  22.764  0.00  0.00     0.000 C 
ATOM     21  C   UNL d   1     -38.436  13.856  23.250  0.00  0.00     0.000 C 
ENDBRANCH  17  20
ENDBRANCH   1  14
TORSDOF 6
ENDMDL
