MODEL 1
REMARK VINA RESULT:      31.9      0.000      0.000
REMARK  6 active torsions:
REMARK  status: ('A' for Active; 'I' for Inactive)
REMARK    1  A    between atoms: N_2  and  S_1 
REMARK    2  A    between atoms: C_3  and  S_1 
REMARK    3  A    between atoms: C_6  and  N_2 
REMARK    4  A    between atoms: C_12  and  C_6 
REMARK    5  A    between atoms: O_10  and  C_11 
REMARK    6  A    between atoms: C_15  and  O_10 
ROOT
ATOM      1  C   UNL d   1      13.319  12.416  -3.753  0.00  0.00     0.105 A 
ATOM      2  C   UNL d   1      14.128  12.419  -3.582  0.00  0.00     0.015 A 
ATOM      3  C   UNL d   1      12.775  12.197  -3.163  0.00  0.00     0.015 A 
ATOM      4  C   UNL d   1      13.856  11.993  -2.255  0.00  0.00     0.100 A 
ATOM      5  C   UNL d   1      13.046  11.986  -2.415  0.00  0.00     0.025 A 
ATOM      6  C   UNL d   1      14.395  12.208  -2.835  0.00  0.00     0.025 A 
ENDROOT
BRANCH   1   7
ATOM      7  S   UNL d   1      13.044  12.627  -4.502  0.00  0.00     0.285 S 
ATOM      8  O   UNL d   1      12.983  11.831  -4.700  0.00  0.00    -0.198 OA
ATOM      9  O   UNL d   1      12.770  12.834  -5.250  0.00  0.00    -0.198 OA
BRANCH   7  10
ATOM     10  N   UNL d   1      13.107  13.432  -4.302  0.00  0.00    -0.155 NA
BRANCH  10  11
ATOM     11  C   UNL d   1      13.285  13.988  -4.892  0.00  0.00     0.137 C 
BRANCH  11  12
ATOM     12  C   UNL d   1      13.481  14.763  -4.674  0.00  0.00     0.120 A 
ATOM     13  O   UNL d   1      13.236  15.462  -5.045  0.00  0.00    -0.304 OA
ATOM     14  C   UNL d   1      13.569  16.096  -4.635  0.00  0.00     0.123 A 
ATOM     15  C   UNL d   1      14.016  15.799  -4.018  0.00  0.00     0.029 A 
ATOM     16  C   UNL d   1      13.965  14.976  -4.038  0.00  0.00     0.028 A 
ENDBRANCH  11  12
ENDBRANCH  10  11
ENDBRANCH   7  10
ENDBRANCH   1   7
BRANCH   4  17
ATOM     17  O   UNL d   1      14.130  11.780  -1.499  0.00  0.00    -0.307 OA
BRANCH  17  18
ATOM     18  C   UNL d   1      14.457  12.359  -1.003  0.00  0.00     0.100 A 
ATOM     19  C   UNL d   1      13.998  13.001  -0.743  0.00  0.00     0.025 A 
ATOM     20  C   UNL d   1      14.330  13.573  -0.250  0.00  0.00     0.002 A 
ATOM     21  C   UNL d   1      15.118  13.507  -0.016  0.00  0.00     0.000 A 
ATOM     22  C   UNL d   1      15.577  12.866  -0.276  0.00  0.00     0.002 A 
ATOM     23  C   UNL d   1      15.246  12.292  -0.769  0.00  0.00     0.025 A 
ENDBRANCH  17  18
ENDBRANCH   4  17
TORSDOF 6
ENDMDL
MODEL 2
REMARK VINA RESULT:      33.8      2.574      3.743
REMARK  6 active torsions:
REMARK  status: ('A' for Active; 'I' for Inactive)
REMARK    1  A    between atoms: N_2  and  S_1 
REMARK    2  A    between atoms: C_3  and  S_1 
REMARK    3  A    between atoms: C_6  and  N_2 
REMARK    4  A    between atoms: C_12  and  C_6 
REMARK    5  A    between atoms: O_10  and  C_11 
REMARK    6  A    between atoms: C_15  and  O_10 
ROOT
ATOM      1  C   UNL d   1      15.320  15.708  -0.621  0.00  0.00     0.105 A 
ATOM      2  C   UNL d   1      16.009  15.266  -0.503  0.00  0.00     0.015 A 
ATOM      3  C   UNL d   1      14.578  15.341  -0.534  0.00  0.00     0.015 A 
ATOM      4  C   UNL d   1      15.231  14.113  -0.219  0.00  0.00     0.100 A 
ATOM      5  C   UNL d   1      14.536  14.544  -0.334  0.00  0.00     0.025 A 
ATOM      6  C   UNL d   1      15.964  14.471  -0.303  0.00  0.00     0.025 A 
ENDROOT
BRANCH   1   7
ATOM      7  S   UNL d   1      15.359  16.507  -0.822  0.00  0.00     0.285 S 
ATOM      8  O   UNL d   1      15.523  16.693  -0.037  0.00  0.00    -0.198 OA
ATOM      9  O   UNL d   1      15.398  17.304  -1.019  0.00  0.00    -0.198 OA
BRANCH   7  10
ATOM     10  N   UNL d   1      15.193  16.319  -1.615  0.00  0.00    -0.155 NA
BRANCH  10  11
ATOM     11  C   UNL d   1      15.194  16.919  -2.187  0.00  0.00     0.137 C 
BRANCH  11  12
ATOM     12  C   UNL d   1      15.027  16.730  -2.977  0.00  0.00     0.120 A 
ATOM     13  O   UNL d   1      14.479  16.173  -3.250  0.00  0.00    -0.304 OA
ATOM     14  C   UNL d   1      14.505  16.176  -4.074  0.00  0.00     0.123 A 
ATOM     15  C   UNL d   1      15.061  16.726  -4.314  0.00  0.00     0.029 A 
ATOM     16  C   UNL d   1      15.386  17.071  -3.639  0.00  0.00     0.028 A 
ENDBRANCH  11  12
ENDBRANCH  10  11
ENDBRANCH   7  10
ENDBRANCH   1   7
BRANCH   4  17
ATOM     17  O   UNL d   1      15.188  13.307  -0.016  0.00  0.00    -0.307 OA
BRANCH  17  18
ATOM     18  C   UNL d   1      14.707  12.797  -0.459  0.00  0.00     0.100 A 
ATOM     19  C   UNL d   1      14.827  12.706  -1.276  0.00  0.00     0.025 A 
ATOM     20  C   UNL d   1      14.345  12.198  -1.711  0.00  0.00     0.002 A 
ATOM     21  C   UNL d   1      13.742  11.780  -1.333  0.00  0.00     0.000 A 
ATOM     22  C   UNL d   1      13.621  11.872  -0.516  0.00  0.00     0.002 A 
ATOM     23  C   UNL d   1      14.104  12.380  -0.081  0.00  0.00     0.025 A 
ENDBRANCH  17  18
ENDBRANCH   4  17
TORSDOF 6
ENDMDL
