MODEL 1
REMARK VINA RESULT:      -2.9      0.000      0.000
REMARK  4 active torsions:
REMARK  status: ('A' for Active; 'I' for Inactive)
REMARK    1  A    between atoms: C_2  and  C_1 
REMARK       I    between atoms: N_3  and  C_1 
REMARK    2  A    between atoms: C_14  and  N_3 
REMARK    3  A    between atoms: C_6  and  S_7 
REMARK    4  A    between atoms: S_7  and  C_15 
ROOT
ATOM      1  C   UNL d   1      32.420  15.853 -24.794  0.00  0.00     0.279 C 
ATOM      2  N   UNL d   1      31.695  15.462 -24.786  0.00  0.00    -0.208 NA
ATOM      3  O   UNL d   1      33.106  15.453 -25.038  0.00  0.00    -0.265 OA
ENDROOT
BRANCH   1   4
ATOM      4  C   UNL d   1      32.468  16.644 -24.558  0.00  0.00     0.059 A 
ATOM      5  C   UNL d   1      32.708  16.831 -23.785  0.00  0.00     0.025 A 
ATOM      6  C   UNL d   1      32.755  17.629 -23.554  0.00  0.00     0.099 A 
ATOM      7  N   UNL d   1      32.996  17.812 -22.779  0.00  0.00    -0.241 NA
ATOM      8  C   UNL d   1      32.565  18.230 -24.084  0.00  0.00     0.099 A 
ATOM      9  C   UNL d   1      33.043  18.607 -22.546  0.00  0.00     0.120 A 
ATOM     10  C   UNL d   1      32.850  19.214 -23.087  0.00  0.00     0.120 A 
ATOM     11  N   UNL d   1      32.613  19.018 -23.852  0.00  0.00    -0.241 NA
ATOM     12  C   UNL d   1      32.327  18.043 -24.852  0.00  0.00     0.021 A 
ATOM     13  C   UNL d   1      32.277  17.251 -25.093  0.00  0.00     0.006 A 
ENDBRANCH   1   4
BRANCH   2  14
ATOM     14  C   UNL d   1      31.016  15.861 -24.543  0.00  0.00     0.085 A 
ATOM     15  C   UNL d   1      30.576  16.287 -25.092  0.00  0.00     0.020 A 
ATOM     16  C   UNL d   1      29.898  16.686 -24.853  0.00  0.00     0.008 A 
ATOM     17  C   UNL d   1      29.661  16.657 -24.063  0.00  0.00     0.034 A 
ATOM     18  C   UNL d   1      30.106  16.229 -23.519  0.00  0.00     0.008 A 
ATOM     19  C   UNL d   1      30.783  15.831 -23.759  0.00  0.00     0.020 A 
BRANCH  17  20
ATOM     20  S   UNL d   1      28.984  17.055 -23.823  0.00  0.00    -0.028 SA
BRANCH  20  21
ATOM     21  C   UNL d   1      28.307  17.454 -23.584  0.00  0.00     0.309 C 
ATOM     22  F   UNL d   1      27.714  17.048 -23.181  0.00  0.00    -0.165 F 
ATOM     23  F   UNL d   1      28.224  18.255 -23.747  0.00  0.00    -0.165 F 
ENDBRANCH  20  21
ENDBRANCH  17  20
ENDBRANCH   2  14
TORSDOF 4
ENDMDL
MODEL 2
REMARK VINA RESULT:      -0.6      2.316      3.621
REMARK  4 active torsions:
REMARK  status: ('A' for Active; 'I' for Inactive)
REMARK    1  A    between atoms: C_2  and  C_1 
REMARK       I    between atoms: N_3  and  C_1 
REMARK    2  A    between atoms: C_14  and  N_3 
REMARK    3  A    between atoms: C_6  and  S_7 
REMARK    4  A    between atoms: S_7  and  C_15 
ROOT
ATOM      1  C   UNL d   1      32.189  16.255 -23.440  0.00  0.00     0.279 C 
ATOM      2  N   UNL d   1      32.838  16.722 -23.241  0.00  0.00    -0.208 NA
ATOM      3  O   UNL d   1      32.173  15.453 -23.226  0.00  0.00    -0.265 OA
ENDROOT
BRANCH   1   4
ATOM      4  C   UNL d   1      31.552  16.583 -23.852  0.00  0.00     0.059 A 
ATOM      5  C   UNL d   1      30.848  16.763 -23.449  0.00  0.00     0.025 A 
ATOM      6  C   UNL d   1      30.210  17.093 -23.869  0.00  0.00     0.099 A 
ATOM      7  N   UNL d   1      29.507  17.272 -23.462  0.00  0.00    -0.241 NA
ATOM      8  C   UNL d   1      30.272  17.241 -24.676  0.00  0.00     0.099 A 
ATOM      9  C   UNL d   1      28.869  17.601 -23.878  0.00  0.00     0.120 A 
ATOM     10  C   UNL d   1      28.937  17.750 -24.698  0.00  0.00     0.120 A 
ATOM     11  N   UNL d   1      29.639  17.567 -25.089  0.00  0.00    -0.241 NA
ATOM     12  C   UNL d   1      30.972  17.061 -25.076  0.00  0.00     0.021 A 
ATOM     13  C   UNL d   1      31.614  16.733 -24.667  0.00  0.00     0.006 A 
ENDBRANCH   1   4
BRANCH   2  14
ATOM     14  C   UNL d   1      32.852  17.518 -23.454  0.00  0.00     0.085 A 
ATOM     15  C   UNL d   1      33.139  17.736 -24.194  0.00  0.00     0.020 A 
ATOM     16  C   UNL d   1      33.154  18.529 -24.409  0.00  0.00     0.008 A 
ATOM     17  C   UNL d   1      32.881  19.104 -23.883  0.00  0.00     0.034 A 
ATOM     18  C   UNL d   1      32.596  18.878 -23.145  0.00  0.00     0.008 A 
ATOM     19  C   UNL d   1      32.581  18.085 -22.931  0.00  0.00     0.020 A 
BRANCH  17  20
ATOM     20  S   UNL d   1      32.897  19.897 -24.098  0.00  0.00    -0.028 SA
BRANCH  20  21
ATOM     21  C   UNL d   1      32.911  20.689 -24.313  0.00  0.00     0.309 C 
ATOM     22  F   UNL d   1      33.141  20.902 -25.075  0.00  0.00    -0.165 F 
ATOM     23  F   UNL d   1      32.697  21.266 -23.769  0.00  0.00    -0.165 F 
ENDBRANCH  20  21
ENDBRANCH  17  20
ENDBRANCH   2  14
TORSDOF 4
ENDMDL
