MODEL 1
REMARK VINA RESULT:      12.6      0.000      0.000
REMARK  6 active torsions:
REMARK  status: ('A' for Active; 'I' for Inactive)
REMARK    1  A    between atoms: N_2  and  S_1 
REMARK    2  A    between atoms: C_7  and  S_1 
REMARK    3  A    between atoms: C_8  and  N_2 
REMARK    4  A    between atoms: N_3  and  C_9 
REMARK    5  A    between atoms: N_4  and  N_3 
REMARK    6  A    between atoms: C_10  and  N_4 
ROOT
ATOM      1  C   UNL d   1      45.510 -15.418  44.682  0.00  0.00     0.094 A 
ATOM      2  C   UNL d   1      46.143 -16.836  44.138  0.00  0.00     0.103 A 
ATOM      3  C   UNL d   1      46.331 -15.527  44.662  0.00  0.00     0.021 A 
ATOM      4  C   UNL d   1      45.009 -16.023  44.428  0.00  0.00     0.021 A 
ATOM      5  C   UNL d   1      45.320 -16.740  44.152  0.00  0.00     0.022 A 
ATOM      6  C   UNL d   1      46.643 -16.231  44.392  0.00  0.00     0.022 A 
ENDROOT
BRANCH   1   7
ATOM      7  N   UNL d   1      45.190 -14.709  44.955  0.00  0.00    -0.158 NA
BRANCH   7   8
ATOM      8  S   UNL d   1      45.170 -14.054  44.453  0.00  0.00     0.285 S 
ATOM      9  O   UNL d   1      45.888 -13.800  44.771  0.00  0.00    -0.198 OA
ATOM     10  O   UNL d   1      44.452 -14.308  44.136  0.00  0.00    -0.198 OA
BRANCH   8  11
ATOM     11  C   UNL d   1      45.165 -13.394  43.959  0.00  0.00     0.105 A 
ATOM     12  C   UNL d   1      44.552 -13.307  43.406  0.00  0.00     0.013 A 
ATOM     13  C   UNL d   1      44.539 -12.650  42.908  0.00  0.00     0.001 A 
ATOM     14  C   UNL d   1      45.133 -12.082  42.959  0.00  0.00     0.000 A 
ATOM     15  C   UNL d   1      45.747 -12.169  43.512  0.00  0.00     0.001 A 
ATOM     16  C   UNL d   1      45.759 -12.827  44.010  0.00  0.00     0.013 A 
ENDBRANCH   8  11
ENDBRANCH   7   8
ENDBRANCH   1   7
BRANCH   2  17
ATOM     17  N   UNL d   1      46.465 -17.546  43.865  0.00  0.00    -0.148 NA
BRANCH  17  18
ATOM     18  N   UNL d   1      45.983 -18.213  43.794  0.00  0.00    -0.148 NA
BRANCH  18  19
ATOM     19  C   UNL d   1      46.205 -18.825  43.285  0.00  0.00     0.103 A 
ATOM     20  C   UNL d   1      46.362 -18.674  42.494  0.00  0.00     0.021 A 
ATOM     21  C   UNL d   1      46.581 -19.276  41.991  0.00  0.00     0.002 A 
ATOM     22  C   UNL d   1      46.647 -20.047  42.279  0.00  0.00     0.000 A 
ATOM     23  C   UNL d   1      46.493 -20.215  43.070  0.00  0.00     0.002 A 
ATOM     24  C   UNL d   1      46.270 -19.595  43.572  0.00  0.00     0.021 A 
ENDBRANCH  18  19
ENDBRANCH  17  18
ENDBRANCH   2  17
TORSDOF 6
ENDMDL
MODEL 2
REMARK VINA RESULT:      14.5      1.765      5.403
REMARK  6 active torsions:
REMARK  status: ('A' for Active; 'I' for Inactive)
REMARK    1  A    between atoms: N_2  and  S_1 
REMARK    2  A    between atoms: C_7  and  S_1 
REMARK    3  A    between atoms: C_8  and  N_2 
REMARK    4  A    between atoms: N_3  and  C_9 
REMARK    5  A    between atoms: N_4  and  N_3 
REMARK    6  A    between atoms: C_10  and  N_4 
ROOT
ATOM      1  C   UNL d   1      46.053 -17.332  44.830  0.00  0.00     0.094 A 
ATOM      2  C   UNL d   1      45.633 -15.743  44.774  0.00  0.00     0.103 A 
ATOM      3  C   UNL d   1      45.268 -17.114  44.677  0.00  0.00     0.021 A 
ATOM      4  C   UNL d   1      46.624 -16.751  44.955  0.00  0.00     0.021 A 
ATOM      5  C   UNL d   1      46.421 -15.947  44.928  0.00  0.00     0.022 A 
ATOM      6  C   UNL d   1      45.062 -16.325  44.650  0.00  0.00     0.022 A 
ENDROOT
BRANCH   1   7
ATOM      7  N   UNL d   1      46.265 -18.128  44.859  0.00  0.00    -0.158 NA
BRANCH   7   8
ATOM      8  S   UNL d   1      46.356 -18.549  44.156  0.00  0.00     0.285 S 
ATOM      9  O   UNL d   1      46.265 -19.253  44.576  0.00  0.00    -0.198 OA
ATOM     10  O   UNL d   1      46.447 -17.845  43.735  0.00  0.00    -0.198 OA
BRANCH   8  11
ATOM     11  C   UNL d   1      46.445 -18.986  43.461  0.00  0.00     0.105 A 
ATOM     12  C   UNL d   1      46.418 -19.815  43.499  0.00  0.00     0.013 A 
ATOM     13  C   UNL d   1      46.505 -20.260  42.810  0.00  0.00     0.001 A 
ATOM     14  C   UNL d   1      46.620 -19.882  42.087  0.00  0.00     0.000 A 
ATOM     15  C   UNL d   1      46.647 -19.053  42.050  0.00  0.00     0.001 A 
ATOM     16  C   UNL d   1      46.559 -18.608  42.740  0.00  0.00     0.013 A 
ENDBRANCH   8  11
ENDBRANCH   7   8
ENDBRANCH   1   7
BRANCH   2  17
ATOM     17  N   UNL d   1      45.418 -14.946  44.745  0.00  0.00    -0.148 NA
BRANCH  17  18
ATOM     18  N   UNL d   1      45.998 -14.370  44.625  0.00  0.00    -0.148 NA
BRANCH  18  19
ATOM     19  C   UNL d   1      45.775 -13.604  44.406  0.00  0.00     0.103 A 
ATOM     20  C   UNL d   1      45.354 -13.474  43.716  0.00  0.00     0.021 A 
ATOM     21  C   UNL d   1      45.133 -12.721  43.498  0.00  0.00     0.002 A 
ATOM     22  C   UNL d   1      45.335 -12.081  43.977  0.00  0.00     0.000 A 
ATOM     23  C   UNL d   1      45.758 -12.194  44.675  0.00  0.00     0.002 A 
ATOM     24  C   UNL d   1      45.977 -12.964  44.886  0.00  0.00     0.021 A 
ENDBRANCH  18  19
ENDBRANCH  17  18
ENDBRANCH   2  17
TORSDOF 6
ENDMDL
