MODEL 1
REMARK VINA RESULT:      45.8      0.000      0.000
REMARK  7 active torsions:
REMARK  status: ('A' for Active; 'I' for Inactive)
REMARK    1  A    between atoms: C_11  and  C_1 
REMARK    2  A    between atoms: C_12  and  C_3 
REMARK    3  A    between atoms: C_10  and  C_5 
REMARK    4  A    between atoms: O_21  and  C_11 
REMARK    5  A    between atoms: O_22  and  C_12 
REMARK    6  A    between atoms: O_23  and  C_14 
REMARK    7  A    between atoms: O_24  and  C_17 
ROOT
ATOM      1  C   UNL d   1      46.105 -18.148  42.215  0.00  0.00     0.075 A 
ATOM      2  C   UNL d   1      46.400 -19.580  42.968  0.00  0.00     0.121 A 
ATOM      3  C   UNL d   1      46.205 -18.843  41.774  0.00  0.00     0.099 A 
ATOM      4  C   UNL d   1      46.300 -18.892  43.416  0.00  0.00     0.058 A 
ATOM      5  C   UNL d   1      46.152 -18.173  43.031  0.00  0.00     0.014 A 
ATOM      6  S   UNL d   1      46.352 -19.555  42.152  0.00  0.00    -0.062 SA
ATOM      7  N   UNL d   1      46.537 -20.198  43.494  0.00  0.00    -0.195 NA
ATOM      8  C   UNL d   1      46.524 -19.901  44.258  0.00  0.00     0.311 A 
ATOM      9  S   UNL d   1      46.377 -19.089  44.212  0.00  0.00    -0.024 SA
ATOM     10  O   UNL d   1      46.637 -20.328  44.955  0.00  0.00    -0.258 OA
ENDROOT
BRANCH   5  11
ATOM     11  C   UNL d   1      46.053 -17.489  43.478  0.00  0.00     0.003 A 
ATOM     12  C   UNL d   1      45.375 -17.383  43.920  0.00  0.00     0.026 A 
ATOM     13  C   UNL d   1      45.281 -16.695  44.367  0.00  0.00     0.116 A 
ATOM     14  C   UNL d   1      45.871 -16.117  44.364  0.00  0.00     0.116 A 
ATOM     15  C   UNL d   1      46.555 -16.230  43.914  0.00  0.00     0.026 A 
ATOM     16  C   UNL d   1      46.647 -16.911  43.473  0.00  0.00     0.002 A 
BRANCH  13  17
ATOM     17  O   UNL d   1      44.597 -16.586  44.814  0.00  0.00    -0.326 OA
ATOM     18  C   UNL d   1      44.252 -15.836  44.863  0.00  0.00     0.181 C 
ENDBRANCH  13  17
BRANCH  14  19
ATOM     19  O   UNL d   1      45.777 -15.428  44.811  0.00  0.00    -0.326 OA
ATOM     20  C   UNL d   1      45.948 -14.694  44.477  0.00  0.00     0.181 C 
ENDBRANCH  14  19
ENDBRANCH   5  11
BRANCH   1  21
ATOM     21  C   UNL d   1      45.958 -17.435  41.833  0.00  0.00     0.296 C 
ATOM     22  O   UNL d   1      46.562 -16.879  41.746  0.00  0.00    -0.259 OA
BRANCH  21  23
ATOM     23  O   UNL d   1      45.205 -17.273  41.536  0.00  0.00    -0.296 OA
ATOM     24  C   UNL d   1      45.068 -17.321  40.728  0.00  0.00     0.185 C 
ENDBRANCH  21  23
ENDBRANCH   1  21
BRANCH   3  25
ATOM     25  C   UNL d   1      46.158 -18.818  40.957  0.00  0.00     0.302 C 
ATOM     26  O   UNL d   1      45.931 -18.126  40.571  0.00  0.00    -0.259 OA
BRANCH  25  27
ATOM     27  O   UNL d   1      46.339 -19.490  40.514  0.00  0.00    -0.295 OA
ATOM     28  C   UNL d   1      46.495 -19.418  39.705  0.00  0.00     0.185 C 
ENDBRANCH  25  27
ENDBRANCH   3  25
TORSDOF 7
ENDMDL
