MODEL 1
REMARK VINA RESULT:      62.3      0.000      0.000
REMARK  5 active torsions:
REMARK  status: ('A' for Active; 'I' for Inactive)
REMARK    1  A    between atoms: C_12  and  C_3 
REMARK    2  A    between atoms: C_14  and  N_5 
REMARK    3  A    between atoms: C_11  and  C_6 
REMARK    4  A    between atoms: O_25  and  C_12 
REMARK    5  A    between atoms: C_24  and  C_14 
ROOT
ATOM      1  C   UNL d   1      14.021  14.401  -2.621  0.00  0.00     0.080 A 
ATOM      2  C   UNL d   1      13.681  13.684  -2.858  0.00  0.00     0.267 A 
ATOM      3  C   UNL d   1      14.779  15.170  -1.675  0.00  0.00     0.106 A 
ATOM      4  C   UNL d   1      13.943  15.079  -3.098  0.00  0.00     0.108 A 
ATOM      5  N   UNL d   1      13.261  13.643  -3.575  0.00  0.00    -0.271 N 
ATOM      6  C   UNL d   1      14.439  14.453  -1.913  0.00  0.00     0.015 A 
ATOM      7  C   UNL d   1      14.700  15.838  -2.150  0.00  0.00     0.208 A 
ATOM      8  O   UNL d   1      14.279  15.800  -2.869  0.00  0.00    -0.288 OA
ATOM      9  C   UNL d   1      13.526  15.036  -3.809  0.00  0.00     0.043 A 
ATOM     10  C   UNL d   1      13.183  14.320  -4.051  0.00  0.00     0.069 A 
ATOM     11  O   UNL d   1      13.759  13.013  -2.386  0.00  0.00    -0.267 OA
ATOM     12  N   UNL d   1      15.039  16.558  -1.916  0.00  0.00    -0.121 N 
ATOM     13  C   UNL d   1      12.769  14.280  -4.760  0.00  0.00     0.019 C 
ENDROOT
BRANCH   6  14
ATOM     14  C   UNL d   1      14.519  13.785  -1.437  0.00  0.00     0.001 A 
ATOM     15  C   UNL d   1      15.134  13.253  -1.581  0.00  0.00     0.012 A 
ATOM     16  C   UNL d   1      15.215  12.584  -1.107  0.00  0.00     0.068 A 
ATOM     17 CL   UNL d   1      15.826  12.054  -1.248  0.00  0.00    -0.082 Cl
ATOM     18  C   UNL d   1      14.687  12.446  -0.491  0.00  0.00     0.068 A 
ATOM     19  C   UNL d   1      14.068  12.989  -0.353  0.00  0.00     0.012 A 
ATOM     20 CL   UNL d   1      14.764  11.779  -0.015  0.00  0.00    -0.082 Cl
ATOM     21  C   UNL d   1      13.990  13.656  -0.830  0.00  0.00     0.001 A 
ENDBRANCH   6  14
BRANCH   3  22
ATOM     22  C   UNL d   1      15.193  15.217  -0.972  0.00  0.00     0.299 C 
ATOM     23  O   UNL d   1      14.789  15.260  -0.255  0.00  0.00    -0.259 OA
BRANCH  22  24
ATOM     24  O   UNL d   1      16.016  15.221  -0.973  0.00  0.00    -0.296 OA
ATOM     25  C   UNL d   1      16.435  15.365  -0.274  0.00  0.00     0.185 C 
ENDBRANCH  22  24
ENDBRANCH   3  22
BRANCH   5  26
ATOM     26  C   UNL d   1      12.923  12.939  -3.816  0.00  0.00     0.108 C 
BRANCH  26  27
ATOM     27  C   UNL d   1      13.225  12.533  -4.463  0.00  0.00     0.118 A 
ATOM     28  O   UNL d   1      13.906  12.084  -4.477  0.00  0.00    -0.304 OA
ATOM     29  C   UNL d   1      14.000  11.779  -5.234  0.00  0.00     0.123 A 
ATOM     30  C   UNL d   1      13.370  12.040  -5.700  0.00  0.00     0.029 A 
ATOM     31  C   UNL d   1      12.890  12.509  -5.217  0.00  0.00     0.028 A 
ENDBRANCH  26  27
ENDBRANCH   5  26
TORSDOF 5
ENDMDL
