MODEL 1
REMARK VINA RESULT:      96.9      0.000      0.000
REMARK  6 active torsions:
REMARK  status: ('A' for Active; 'I' for Inactive)
REMARK       I    between atoms: C_2  and  N_1 
REMARK    1  A    between atoms: C_8  and  C_2 
REMARK    2  A    between atoms: C_11  and  C_3 
REMARK       I    between atoms: C_4  and  N_6 
REMARK    3  A    between atoms: C_5  and  C_4 
REMARK       I    between atoms: N_7  and  C_5 
REMARK    4  A    between atoms: N_6  and  C_11 
REMARK    5  A    between atoms: C_17  and  N_7 
REMARK    6  A    between atoms: C_20  and  C_17 
ROOT
ATOM      1  C   UNL d   1      61.048  48.460  50.342  0.00  0.00     0.146 C 
ENDROOT
BRANCH   1   2
ATOM      2  N   UNL d   1      61.870  48.399  50.338  0.00  0.00    -0.199 NA
ATOM      3  C   UNL d   1      62.228  47.747  49.991  0.00  0.00     0.337 C 
ATOM      4  O   UNL d   1      63.051  47.685  49.987  0.00  0.00    -0.260 OA
BRANCH   3   5
ATOM      5  C   UNL d   1      61.772  47.150  49.643  0.00  0.00     0.337 C 
ATOM      6  N   UNL d   1      62.094  46.416  49.503  0.00  0.00    -0.202 NA
ATOM      7  O   UNL d   1      60.989  47.304  49.439  0.00  0.00    -0.260 OA
BRANCH   6   8
ATOM      8  C   UNL d   1      61.638  45.819  49.155  0.00  0.00     0.102 C 
BRANCH   8   9
ATOM      9  C   UNL d   1      61.832  45.029  49.262  0.00  0.00     0.019 A 
ATOM     10  C   UNL d   1      62.417  44.802  49.787  0.00  0.00     0.002 A 
ATOM     11  C   UNL d   1      62.617  44.021  49.901  0.00  0.00     0.011 A 
ATOM     12  C   UNL d   1      62.211  43.431  49.468  0.00  0.00     0.058 A 
ATOM     13  C   UNL d   1      61.620  43.643  48.936  0.00  0.00     0.011 A 
ATOM     14 CL   UNL d   1      62.410  42.629  49.579  0.00  0.00    -0.082 Cl
ATOM     15  C   UNL d   1      61.426  44.439  48.829  0.00  0.00     0.002 A 
ENDBRANCH   8   9
ENDBRANCH   6   8
ENDBRANCH   3   5
ENDBRANCH   1   2
BRANCH   1  16
ATOM     16  C   UNL d   1      60.672  48.924  50.909  0.00  0.00     0.190 A 
ATOM     17  N   UNL d   1      59.865  49.087  50.936  0.00  0.00    -0.250 N 
ATOM     18  C   UNL d   1      59.290  48.818  50.403  0.00  0.00     0.266 C 
ATOM     19  C   UNL d   1      59.736  49.569  51.591  0.00  0.00     0.112 A 
ATOM     20  O   UNL d   1      59.503  48.338  49.771  0.00  0.00    -0.267 OA
ATOM     21  C   UNL d   1      60.459  49.707  51.974  0.00  0.00     0.144 A 
ATOM     22  O   UNL d   1      61.039  49.307  51.551  0.00  0.00    -0.285 OA
BRANCH  18  23
ATOM     23  C   UNL d   1      58.488  49.036  50.509  0.00  0.00     0.057 A 
ATOM     24  C   UNL d   1      57.993  49.107  49.861  0.00  0.00     0.006 A 
ATOM     25  C   UNL d   1      57.202  49.322  49.967  0.00  0.00     0.012 A 
ATOM     26  C   UNL d   1      56.913  49.464  50.723  0.00  0.00     0.058 A 
ATOM     27  C   UNL d   1      57.415  49.392  51.378  0.00  0.00     0.012 A 
ATOM     28 CL   UNL d   1      56.113  49.682  50.828  0.00  0.00    -0.082 Cl
ATOM     29  C   UNL d   1      58.194  49.180  51.267  0.00  0.00     0.006 A 
ENDBRANCH  18  23
ENDBRANCH   1  16
TORSDOF 6
ENDMDL
