MODEL 1
REMARK VINA RESULT:      69.9      0.000      0.000
REMARK  4 active torsions:
REMARK  status: ('A' for Active; 'I' for Inactive)
REMARK    1  A    between atoms: C_11  and  N_2 
REMARK    2  A    between atoms: N_3  and  C_14 
REMARK    3  A    between atoms: C_16  and  C_11 
REMARK    4  A    between atoms: C_14  and  C_16 
ROOT
ATOM      1  C   UNL d   1     -49.007  28.492  34.028  0.00  0.00     0.231 C 
ATOM      2  O   UNL d   1     -48.492  27.955  34.387  0.00  0.00    -0.283 OA
ENDROOT
BRANCH   1   3
ATOM      3  C   UNL d   1     -49.119  29.243  34.356  0.00  0.00     0.124 C 
BRANCH   3   4
ATOM      4  N   UNL d   1     -48.498  29.614  34.757  0.00  0.00    -0.303 N 
ATOM      5  C   UNL d   1     -48.029  29.275  35.360  0.00  0.00     0.064 A 
ATOM      6  C   UNL d   1     -47.478  29.845  35.600  0.00  0.00     0.018 A 
ATOM      7  C   UNL d   1     -48.104  28.510  35.661  0.00  0.00     0.019 C 
ATOM      8  C   UNL d   1     -46.906  29.745  36.184  0.00  0.00     0.002 C 
ATOM      9  C   UNL d   1     -47.600  30.532  35.153  0.00  0.00     0.018 A 
ATOM     10  C   UNL d   1     -48.233  30.388  34.630  0.00  0.00     0.064 A 
ATOM     11  C   UNL d   1     -47.221  31.272  35.149  0.00  0.00     0.002 A 
ATOM     12  C   UNL d   1     -48.481  30.987  34.109  0.00  0.00     0.018 A 
ATOM     13  C   UNL d   1     -48.103  31.718  34.108  0.00  0.00     0.002 A 
ATOM     14  C   UNL d   1     -47.476  31.860  34.626  0.00  0.00     0.000 A 
ENDBRANCH   3   4
ENDBRANCH   1   3
BRANCH   1  15
ATOM     15  C   UNL d   1     -49.406  28.279  33.345  0.00  0.00     0.138 C 
BRANCH  15  16
ATOM     16  N   UNL d   1     -49.900  27.613  33.338  0.00  0.00    -0.194 N 
ATOM     17  S   UNL d   1     -50.723  27.618  33.322  0.00  0.00     0.274 S 
ATOM     18  C   UNL d   1     -50.980  26.835  33.320  0.00  0.00     0.109 A 
ATOM     19  O   UNL d   1     -50.676  28.441  33.321  0.00  0.00    -0.200 OA
ATOM     20  O   UNL d   1     -51.530  27.443  33.308  0.00  0.00    -0.200 OA
ATOM     21  C   UNL d   1     -50.314  26.349  33.333  0.00  0.00     0.069 A 
ATOM     22  C   UNL d   1     -51.726  26.498  33.307  0.00  0.00     0.013 A 
ATOM     23  C   UNL d   1     -50.398  25.534  33.334  0.00  0.00     0.005 A 
ATOM     24  C   UNL d   1     -49.646  26.831  33.345  0.00  0.00     0.275 A 
ATOM     25  C   UNL d   1     -51.146  25.202  33.321  0.00  0.00     0.000 A 
ATOM     26  C   UNL d   1     -51.810  25.687  33.308  0.00  0.00     0.001 A 
ATOM     27  O   UNL d   1     -48.863  26.575  33.360  0.00  0.00    -0.266 OA
ENDBRANCH  15  16
ENDBRANCH   1  15
TORSDOF 4
ENDMDL
