MODEL 1
REMARK VINA RESULT:      59.6      0.000      0.000
REMARK  5 active torsions:
REMARK  status: ('A' for Active; 'I' for Inactive)
REMARK    1  A    between atoms: O_8  and  S_1 
REMARK    2  A    between atoms: C_9  and  S_1 
REMARK    3  A    between atoms: C_7  and  C_2 
REMARK    4  A    between atoms: C_20  and  C_7 
REMARK    5  A    between atoms: C_14  and  O_8 
ROOT
ATOM      1  C   UNL d   1     -51.363  24.446  33.535  0.00  0.00     0.139 A 
ATOM      2  C   UNL d   1     -50.302  25.236  33.405  0.00  0.00     0.064 A 
ATOM      3  C   UNL d   1     -50.544  24.451  33.432  0.00  0.00     0.220 A 
ATOM      4  C   UNL d   1     -50.965  25.719  33.490  0.00  0.00     0.105 A 
ATOM      5  O   UNL d   1     -51.623  25.228  33.570  0.00  0.00    -0.304 OA
ATOM      6  C   UNL d   1     -50.878  26.530  33.482  0.00  0.00     0.050 A 
ATOM      7  C   UNL d   1     -49.556  25.573  33.313  0.00  0.00     0.007 A 
ATOM      8  C   UNL d   1     -50.132  26.866  33.390  0.00  0.00     0.116 A 
ATOM      9  O   UNL d   1     -50.064  23.784  33.370  0.00  0.00    -0.284 OA
ATOM     10  C   UNL d   1     -49.475  26.388  33.306  0.00  0.00     0.026 A 
ENDROOT
BRANCH   8  11
ATOM     11  O   UNL d   1     -50.049  27.685  33.382  0.00  0.00    -0.227 OA
BRANCH  11  12
ATOM     12  S   UNL d   1     -49.510  28.050  33.889  0.00  0.00     0.304 S 
ATOM     13  O   UNL d   1     -50.076  28.075  34.473  0.00  0.00    -0.193 OA
ATOM     14  O   UNL d   1     -48.931  28.031  33.308  0.00  0.00    -0.193 OA
BRANCH  12  15
ATOM     15  C   UNL d   1     -48.969  28.420  34.405  0.00  0.00     0.111 A 
ATOM     16  C   UNL d   1     -48.846  28.106  35.160  0.00  0.00     0.016 A 
ATOM     17  C   UNL d   1     -48.311  28.471  35.671  0.00  0.00     0.030 A 
ATOM     18  C   UNL d   1     -47.899  29.149  35.427  0.00  0.00     0.140 A 
ATOM     19  C   UNL d   1     -48.031  29.454  34.667  0.00  0.00     0.030 A 
ATOM     20  F   UNL d   1     -47.372  29.508  35.930  0.00  0.00    -0.204 F 
ATOM     21  C   UNL d   1     -48.567  29.087  34.159  0.00  0.00     0.016 A 
ENDBRANCH  12  15
ENDBRANCH  11  12
ENDBRANCH   8  11
BRANCH   1  22
ATOM     22  C   UNL d   1     -51.843  23.777  33.592  0.00  0.00     0.029 C 
BRANCH  22  23
ATOM     23  C   UNL d   1     -52.667  23.845  33.550  0.00  0.00     0.021 A 
ATOM     24  C   UNL d   1     -53.131  23.189  33.711  0.00  0.00     0.099 A 
ATOM     25  N   UNL d   1     -53.948  23.243  33.672  0.00  0.00    -0.242 NA
ATOM     26  C   UNL d   1     -54.307  23.967  33.468  0.00  0.00     0.099 A 
ATOM     27  C   UNL d   1     -53.834  24.626  33.306  0.00  0.00     0.021 A 
ATOM     28  C   UNL d   1     -53.011  24.558  33.349  0.00  0.00     0.003 A 
ENDBRANCH  22  23
ENDBRANCH   1  22
TORSDOF 5
ENDMDL
