MODEL 1
REMARK VINA RESULT:      50.6      0.000      0.000
REMARK  7 active torsions:
REMARK  status: ('A' for Active; 'I' for Inactive)
REMARK    1  A    between atoms: C_6  and  C_1 
REMARK    2  A    between atoms: C_7  and  C_3 
REMARK    3  A    between atoms: O_14  and  C_6 
REMARK    4  A    between atoms: C_8  and  C_7 
REMARK    5  A    between atoms: S_10  and  C_8 
REMARK    6  A    between atoms: C_13  and  S_10 
REMARK    7  A    between atoms: C_22  and  O_14 
ROOT
ATOM      1  C   UNL d   1     -51.167  25.725  33.735  0.00  0.00     0.083 A 
ATOM      2  C   UNL d   1     -51.030  26.527  33.858  0.00  0.00     0.028 A 
ATOM      3  C   UNL d   1     -50.272  26.668  33.688  0.00  0.00     0.121 A 
ATOM      4  N   UNL d   1     -49.916  25.957  33.453  0.00  0.00    -0.242 NA
ATOM      5  C   UNL d   1     -50.483  25.409  33.493  0.00  0.00     0.087 A 
ATOM      6  C   UNL d   1     -51.604  27.045  34.112  0.00  0.00     0.002 C 
ATOM      7  C   UNL d   1     -50.403  24.575  33.306  0.00  0.00     0.021 C 
ENDROOT
BRANCH   3   8
ATOM      8  C   UNL d   1     -49.974  27.444  33.764  0.00  0.00     0.220 C 
ATOM      9  O   UNL d   1     -50.263  28.045  33.306  0.00  0.00    -0.284 OA
BRANCH   8  10
ATOM     10  C   UNL d   1     -49.375  27.597  34.318  0.00  0.00     0.079 C 
BRANCH  10  11
ATOM     11  S   UNL d   1     -48.757  28.086  34.128  0.00  0.00    -0.083 SA
BRANCH  11  12
ATOM     12  C   UNL d   1     -48.403  28.545  34.736  0.00  0.00     0.030 A 
ATOM     13  C   UNL d   1     -47.905  29.180  34.542  0.00  0.00     0.007 A 
ATOM     14  C   UNL d   1     -47.577  29.606  35.138  0.00  0.00     0.012 A 
ATOM     15  C   UNL d   1     -47.712  29.440  35.936  0.00  0.00     0.058 A 
ATOM     16  C   UNL d   1     -48.192  28.827  36.103  0.00  0.00     0.012 A 
ATOM     17 CL   UNL d   1     -47.380  29.871  36.569  0.00  0.00    -0.082 Cl
ATOM     18  C   UNL d   1     -48.545  28.370  35.530  0.00  0.00     0.007 A 
ENDBRANCH  11  12
ENDBRANCH  10  11
ENDBRANCH   8  10
ENDBRANCH   3   8
BRANCH   1  19
ATOM     19  C   UNL d   1     -51.902  25.327  33.848  0.00  0.00     0.302 C 
ATOM     20  O   UNL d   1     -52.529  25.719  34.246  0.00  0.00    -0.259 OA
BRANCH  19  21
ATOM     21  O   UNL d   1     -52.029  24.548  33.576  0.00  0.00    -0.271 OA
BRANCH  21  22
ATOM     22  C   UNL d   1     -52.740  24.178  33.781  0.00  0.00     0.126 C 
ATOM     23  C   UNL d   1     -53.039  23.543  33.314  0.00  0.00     0.029 C 
ENDBRANCH  21  22
ENDBRANCH  19  21
ENDBRANCH   1  19
TORSDOF 7
ENDMDL
