MODEL 1
REMARK VINA RESULT:      50.6      0.000      0.000
REMARK  3 active torsions:
REMARK  status: ('A' for Active; 'I' for Inactive)
REMARK    1  A    between atoms: C_8  and  C_3 
REMARK    2  A    between atoms: O_18  and  C_12 
REMARK    3  A    between atoms: O_19  and  C_13 
ROOT
ATOM      1  S   UNL d   1     -51.547  25.087  33.407  0.00  0.00     0.211 S 
ATOM      2  C   UNL d   1     -52.240  24.556  33.374  0.00  0.00     0.103 A 
ATOM      3  C   UNL d   1     -51.540  25.940  33.405  0.00  0.00     0.093 A 
ATOM      4  N   UNL d   1     -53.254  25.484  33.324  0.00  0.00    -0.321 N 
ATOM      5  C   UNL d   1     -52.865  26.230  33.341  0.00  0.00     0.258 A 
ATOM      6  C   UNL d   1     -53.021  24.795  33.336  0.00  0.00     0.070 A 
ATOM      7  C   UNL d   1     -52.187  26.431  33.373  0.00  0.00     0.072 A 
ATOM      8  O   UNL d   1     -50.745  24.984  33.445  0.00  0.00    -0.217 OA
ATOM      9  O   UNL d   1     -51.519  24.221  33.409  0.00  0.00    -0.217 OA
ATOM     10  O   UNL d   1     -53.449  26.941  33.312  0.00  0.00    -0.267 OA
ATOM     11  C   UNL d   1     -52.050  23.757  33.385  0.00  0.00     0.013 A 
ATOM     12  C   UNL d   1     -53.616  24.239  33.309  0.00  0.00     0.018 A 
ATOM     13  C   UNL d   1     -52.652  23.188  33.357  0.00  0.00     0.001 A 
ATOM     14  C   UNL d   1     -53.435  23.445  33.319  0.00  0.00     0.002 A 
ATOM     15  H   UNL d   1     -54.077  25.556  33.284  0.00  0.00     0.169 HD
ENDROOT
BRANCH   3  16
ATOM     16  C   UNL d   1     -50.796  26.307  33.440  0.00  0.00     0.013 A 
ATOM     17  C   UNL d   1     -50.116  25.857  33.582  0.00  0.00     0.027 A 
ATOM     18  C   UNL d   1     -49.380  26.231  33.615  0.00  0.00     0.116 A 
ATOM     19  C   UNL d   1     -49.320  27.034  33.510  0.00  0.00     0.116 A 
ATOM     20  C   UNL d   1     -49.999  27.493  33.368  0.00  0.00     0.026 A 
ATOM     21  C   UNL d   1     -50.742  27.130  33.332  0.00  0.00     0.003 A 
BRANCH  18  22
ATOM     22  O   UNL d   1     -48.700  25.780  33.757  0.00  0.00    -0.326 OA
ATOM     23  C   UNL d   1     -47.986  25.971  33.392  0.00  0.00     0.181 C 
ENDBRANCH  18  22
BRANCH  19  24
ATOM     24  O   UNL d   1     -48.577  27.406  33.545  0.00  0.00    -0.326 OA
ATOM     25  C   UNL d   1     -48.475  28.080  33.994  0.00  0.00     0.181 C 
ENDBRANCH  19  24
ENDBRANCH   3  16
TORSDOF 3
ENDMDL
