MODEL 1
REMARK VINA RESULT:     209.5      0.000      0.000
REMARK  8 active torsions:
REMARK  status: ('A' for Active; 'I' for Inactive)
REMARK    1  A    between atoms: C_2  and  C_1 
REMARK    2  A    between atoms: C_12  and  C_5 
REMARK    3  A    between atoms: C_14  and  C_6 
REMARK    4  A    between atoms: O_20  and  C_13 
REMARK    5  A    between atoms: O_21  and  C_14 
REMARK    6  A    between atoms: O_23  and  C_15 
REMARK    7  A    between atoms: O_22  and  C_16 
REMARK    8  A    between atoms: C_26  and  O_21 
ROOT
ATOM      1  C   UNL d   1     -56.649-101.010 -43.283  0.00  0.00     0.206 A 
ATOM      2  O   UNL d   1     -56.831-101.057 -42.441  0.00  0.00    -0.268 OA
ATOM      3  N   UNL d   1     -55.861-101.345 -43.401  0.00  0.00    -0.121 NA
ATOM      4  C   UNL d   1     -56.158-101.420 -42.036  0.00  0.00     0.205 A 
ATOM      5  N   UNL d   1     -55.550-101.600 -42.637  0.00  0.00    -0.121 NA
ENDROOT
BRANCH   1   6
ATOM      6  C   UNL d   1     -57.142-100.701 -43.859  0.00  0.00     0.061 A 
ATOM      7  C   UNL d   1     -57.460-101.198 -44.421  0.00  0.00     0.012 A 
ATOM      8  C   UNL d   1     -57.949-100.907 -44.997  0.00  0.00     0.081 A 
ATOM      9  C   UNL d   1     -58.127-100.108 -45.015  0.00  0.00     0.086 A 
ATOM     10  N   UNL d   1     -57.813 -99.611 -44.457  0.00  0.00    -0.245 NA
ATOM     11  C   UNL d   1     -58.616 -99.816 -45.590  0.00  0.00     0.021 C 
ATOM     12  C   UNL d   1     -57.320 -99.902 -43.877  0.00  0.00     0.085 A 
ATOM     13  C   UNL d   1     -57.007 -99.400 -43.319  0.00  0.00     0.021 C 
BRANCH   8  14
ATOM     14  C   UNL d   1     -58.260-101.402 -45.549  0.00  0.00     0.302 C 
ATOM     15  O   UNL d   1     -58.845-101.138 -46.050  0.00  0.00    -0.259 OA
BRANCH  14  16
ATOM     16  O   UNL d   1     -57.996-102.166 -45.616  0.00  0.00    -0.271 OA
BRANCH  16  17
ATOM     17  C   UNL d   1     -57.879-102.491 -46.349  0.00  0.00     0.126 C 
ATOM     18  C   UNL d   1     -58.007-102.036 -47.026  0.00  0.00     0.029 C 
ENDBRANCH  16  17
ENDBRANCH  14  16
ENDBRANCH   8  14
ENDBRANCH   1   6
BRANCH   4  19
ATOM     19  C   UNL d   1     -56.095-101.580 -41.178  0.00  0.00     0.047 A 
ATOM     20  C   UNL d   1     -55.359-101.407 -40.767  0.00  0.00     0.030 A 
ATOM     21  C   UNL d   1     -55.293-101.563 -39.920  0.00  0.00     0.118 A 
ATOM     22  C   UNL d   1     -55.973-101.896 -39.483  0.00  0.00     0.138 A 
ATOM     23  C   UNL d   1     -56.711-102.067 -39.905  0.00  0.00     0.118 A 
ATOM     24  C   UNL d   1     -56.772-101.909 -40.753  0.00  0.00     0.030 A 
BRANCH  21  25
ATOM     25  O   UNL d   1     -54.760-101.521 -39.230  0.00  0.00    -0.326 OA
ATOM     26  C   UNL d   1     -54.728-102.175 -38.660  0.00  0.00     0.181 C 
ENDBRANCH  21  25
BRANCH  22  27
ATOM     27  O   UNL d   1     -55.907-102.052 -38.635  0.00  0.00    -0.324 OA
ATOM     28  C   UNL d   1     -56.010-102.859 -38.337  0.00  0.00     0.182 C 
ENDBRANCH  22  27
BRANCH  23  29
ATOM     29  O   UNL d   1     -57.387-102.397 -39.474  0.00  0.00    -0.326 OA
ATOM     30  C   UNL d   1     -58.175-102.386 -39.829  0.00  0.00     0.181 C 
ENDBRANCH  23  29
ENDBRANCH   4  19
TORSDOF 8
ENDMDL
