MODEL 1
REMARK VINA RESULT:     152.9      0.000      0.000
REMARK  5 active torsions:
REMARK  status: ('A' for Active; 'I' for Inactive)
REMARK    1  A    between atoms: N_4  and  S_1 
REMARK    2  A    between atoms: C_10  and  S_1 
REMARK    3  A    between atoms: C_2  and  N_9 
REMARK    4  A    between atoms: C_13  and  C_3 
REMARK    5  A    between atoms: C_11  and  C_8 
REMARK       I    between atoms: N_9  and  C_11 
REMARK       I    between atoms: C_15  and  N_12 
ROOT
ATOM      1  N   UNL d   1     -55.976 -98.772 -41.390  0.00  0.00    -0.200 NA
ATOM      2  C   UNL d   1     -55.857 -99.460 -40.945  0.00  0.00     0.296 C 
ATOM      3  O   UNL d   1     -56.179-100.174 -41.207  0.00  0.00    -0.264 OA
ENDROOT
BRANCH   1   4
ATOM      4  C   UNL d   1     -56.412 -98.797 -42.090  0.00  0.00     0.119 A 
ATOM      5  C   UNL d   1     -56.117 -98.859 -42.851  0.00  0.00     0.084 A 
ATOM      6  C   UNL d   1     -56.752 -98.864 -43.384  0.00  0.00     0.016 A 
ATOM      7  C   UNL d   1     -56.788 -98.915 -44.204  0.00  0.00     0.020 A 
ATOM      8  C   UNL d   1     -57.444 -98.804 -42.941  0.00  0.00     0.049 A 
ATOM      9  C   UNL d   1     -57.513 -98.906 -44.580  0.00  0.00     0.083 A 
ATOM     10  N   UNL d   1     -58.217 -98.845 -44.136  0.00  0.00    -0.272 N 
ATOM     11  C   UNL d   1     -58.177 -98.794 -43.317  0.00  0.00     0.089 A 
ATOM     12  C   UNL d   1     -58.957 -98.835 -44.526  0.00  0.00     0.265 C 
ATOM     13  O   UNL d   1     -59.650 -98.775 -44.083  0.00  0.00    -0.267 OA
ATOM     14  C   UNL d   1     -58.990 -98.887 -45.350  0.00  0.00     0.066 C 
ATOM     15  S   UNL d   1     -57.241 -98.762 -42.143  0.00  0.00    -0.066 SA
BRANCH   5  16
ATOM     16  C   UNL d   1     -55.315 -98.910 -43.060  0.00  0.00     0.299 C 
ATOM     17  O   UNL d   1     -54.755 -99.110 -42.498  0.00  0.00    -0.264 OA
ATOM     18  N   UNL d   1     -55.098 -98.757 -43.832  0.00  0.00    -0.102 N 
ENDBRANCH   5  16
ENDBRANCH   1   4
BRANCH   2  19
ATOM     19  C   UNL d   1     -55.424 -99.434 -40.253  0.00  0.00     0.133 A 
ATOM     20  N   UNL d   1     -55.217-100.089 -39.783  0.00  0.00    -0.226 N 
ATOM     21  C   UNL d   1     -54.777 -99.803 -39.132  0.00  0.00     0.092 A 
ATOM     22  C   UNL d   1     -54.719 -98.987 -39.208  0.00  0.00     0.021 A 
ATOM     23  C   UNL d   1     -55.115 -98.756 -39.895  0.00  0.00     0.025 A 
BRANCH  20  24
ATOM     24  S   UNL d   1     -55.411-100.880 -39.931  0.00  0.00     0.277 S 
ATOM     25  O   UNL d   1     -56.089-100.771 -39.479  0.00  0.00    -0.199 OA
ATOM     26  O   UNL d   1     -54.725-100.985 -40.386  0.00  0.00    -0.199 OA
BRANCH  24  27
ATOM     27  C   UNL d   1     -55.637-101.660 -40.056  0.00  0.00     0.133 A 
ATOM     28  S   UNL d   1     -55.488-102.109 -40.731  0.00  0.00    -0.074 SA
ATOM     29  C   UNL d   1     -55.813-102.862 -40.618  0.00  0.00     0.036 A 
ATOM     30  C   UNL d   1     -56.165-102.874 -39.868  0.00  0.00     0.008 A 
ATOM     31  C   UNL d   1     -56.056-102.133 -39.522  0.00  0.00     0.020 A 
ENDBRANCH  24  27
ENDBRANCH  20  24
ENDBRANCH   2  19
TORSDOF 5
ENDMDL
