MODEL 1
REMARK VINA RESULT:      12.8      0.000      0.000
REMARK  3 active torsions:
REMARK  status: ('A' for Active; 'I' for Inactive)
REMARK    1  A    between atoms: N_5  and  C_1 
REMARK    2  A    between atoms: N_8  and  N_5 
REMARK    3  A    between atoms: C_7  and  N_8 
ROOT
ATOM      1  C   UNL d   1      23.547  12.390  -2.391  0.00  0.00     0.162 A 
ATOM      2  C   UNL d   1      22.818  12.764  -2.314  0.00  0.00     0.299 A 
ATOM      3  N   UNL d   1      22.683  12.893  -1.509  0.00  0.00    -0.207 NA
ATOM      4  C   UNL d   1      23.867  12.285  -1.633  0.00  0.00     0.042 A 
ATOM      5  C   UNL d   1      23.333  12.596  -1.087  0.00  0.00     0.086 A 
ATOM      6  O   UNL d   1      22.310  12.975  -2.932  0.00  0.00    -0.263 OA
ATOM      7  C   UNL d   1      24.577  11.946  -1.375  0.00  0.00     0.003 A 
ATOM      8  C   UNL d   1      23.509  12.567  -0.285  0.00  0.00     0.019 A 
ATOM      9  C   UNL d   1      24.741  11.923  -0.570  0.00  0.00     0.000 A 
ATOM     10  C   UNL d   1      24.204  12.236  -0.023  0.00  0.00     0.002 A 
ENDROOT
BRANCH   1  11
ATOM     11  N   UNL d   1      23.905  12.156  -3.101  0.00  0.00    -0.141 NA
BRANCH  11  12
ATOM     12  N   UNL d   1      24.472  12.651  -3.459  0.00  0.00    -0.115 NA
BRANCH  12  13
ATOM     13  C   UNL d   1      24.653  12.553  -4.262  0.00  0.00     0.260 C 
ATOM     14  S   UNL d   1      24.764  13.213  -4.749  0.00  0.00    -0.034 SA
ATOM     15  N   UNL d   1      24.723  11.785  -4.573  0.00  0.00    -0.113 N 
ENDBRANCH  12  13
ENDBRANCH  11  12
ENDBRANCH   1  11
TORSDOF 3
ENDMDL
MODEL 2
REMARK VINA RESULT:      13.8      9.720     10.597
REMARK  3 active torsions:
REMARK  status: ('A' for Active; 'I' for Inactive)
REMARK    1  A    between atoms: N_5  and  C_1 
REMARK    2  A    between atoms: N_8  and  N_5 
REMARK    3  A    between atoms: C_7  and  N_8 
ROOT
ATOM      1  C   UNL d   1      13.937  12.657  -2.619  0.00  0.00     0.162 A 
ATOM      2  C   UNL d   1      14.140  13.455  -2.631  0.00  0.00     0.299 A 
ATOM      3  N   UNL d   1      13.858  13.778  -3.337  0.00  0.00    -0.207 NA
ATOM      4  C   UNL d   1      13.528  12.483  -3.320  0.00  0.00     0.042 A 
ATOM      5  C   UNL d   1      13.479  13.175  -3.764  0.00  0.00     0.086 A 
ATOM      6  O   UNL d   1      14.553  13.862  -2.041  0.00  0.00    -0.263 OA
ATOM      7  C   UNL d   1      13.196  11.779  -3.605  0.00  0.00     0.003 A 
ATOM      8  C   UNL d   1      13.098  13.165  -4.492  0.00  0.00     0.019 A 
ATOM      9  C   UNL d   1      12.818  11.783  -4.334  0.00  0.00     0.000 A 
ATOM     10  C   UNL d   1      12.769  12.479  -4.780  0.00  0.00     0.002 A 
ENDROOT
BRANCH   1  11
ATOM     11  N   UNL d   1      14.110  12.116  -2.015  0.00  0.00    -0.141 NA
BRANCH  11  12
ATOM     12  N   UNL d   1      14.460  12.387  -1.310  0.00  0.00    -0.115 NA
BRANCH  12  13
ATOM     13  C   UNL d   1      14.297  11.998  -0.596  0.00  0.00     0.260 C 
ATOM     14  S   UNL d   1      14.913  11.779  -0.089  0.00  0.00    -0.034 SA
ATOM     15  N   UNL d   1      13.507  11.831  -0.394  0.00  0.00    -0.113 N 
ENDBRANCH  12  13
ENDBRANCH  11  12
ENDBRANCH   1  11
TORSDOF 3
ENDMDL
