MODEL 1
REMARK VINA RESULT:      -0.8      0.000      0.000
REMARK  5 active torsions:
REMARK  status: ('A' for Active; 'I' for Inactive)
REMARK    1  A    between atoms: C_10  and  C_3 
REMARK    2  A    between atoms: N_12  and  C_4 
REMARK    3  A    between atoms: N_11  and  C_21 
REMARK    4  A    between atoms: C_20  and  N_12 
REMARK    5  A    between atoms: C_21  and  C_20 
ROOT
ATOM      1  C   UNL d   1      32.789  18.851 -23.216  0.00  0.00     0.168 A 
ATOM      2  N   UNL d   1      33.015  19.496 -22.709  0.00  0.00    -0.184 N 
ATOM      3  C   UNL d   1      32.794  18.091 -22.933  0.00  0.00     0.057 A 
ATOM      4  C   UNL d   1      33.003  20.246 -23.007  0.00  0.00     0.218 A 
ATOM      5  N   UNL d   1      33.241  18.570 -21.653  0.00  0.00    -0.160 NA
ATOM      6  N   UNL d   1      32.566  18.999 -23.988  0.00  0.00    -0.227 NA
ATOM      7  C   UNL d   1      32.780  20.406 -23.785  0.00  0.00     0.071 A 
ATOM      8  C   UNL d   1      33.022  17.945 -22.144  0.00  0.00     0.124 A 
ATOM      9  C   UNL d   1      32.558  19.771 -24.284  0.00  0.00     0.087 A 
ATOM     10  C   UNL d   1      32.324  19.927 -25.097  0.00  0.00     0.021 C 
ENDROOT
BRANCH   4  11
ATOM     11  N   UNL d   1      33.231  20.901 -22.498  0.00  0.00    -0.379 NA
BRANCH  11  12
ATOM     12  C   UNL d   1      33.240  21.587 -21.986  0.00  0.00     0.182 C 
BRANCH  12  13
ATOM     13  C   UNL d   1      32.905  21.528 -21.220  0.00  0.00     0.116 C 
BRANCH  13  14
ATOM     14  N   UNL d   1      32.784  22.244 -20.753  0.00  0.00    -0.297 N 
ATOM     15  C   UNL d   1      32.889  22.223 -19.915  0.00  0.00     0.107 A 
ATOM     16  C   UNL d   1      32.768  22.943 -19.442  0.00  0.00     0.142 A 
ATOM     17  O   UNL d   1      32.547  23.661 -19.810  0.00  0.00    -0.300 OA
ATOM     18  C   UNL d   1      32.436  23.697 -20.670  0.00  0.00     0.142 A 
ATOM     19  C   UNL d   1      32.555  22.983 -21.145  0.00  0.00     0.107 A 
ENDBRANCH  13  14
ENDBRANCH  12  13
ENDBRANCH  11  12
ENDBRANCH   4  11
BRANCH   3  20
ATOM     20  C   UNL d   1      32.575  17.465 -23.425  0.00  0.00     0.005 A 
ATOM     21  C   UNL d   1      33.148  17.036 -23.814  0.00  0.00     0.001 A 
ATOM     22  C   UNL d   1      32.933  16.421 -24.298  0.00  0.00     0.011 A 
ATOM     23  C   UNL d   1      32.141  16.225 -24.399  0.00  0.00     0.058 A 
ATOM     24  C   UNL d   1      31.568  16.654 -24.009  0.00  0.00     0.011 A 
ATOM     25 CL   UNL d   1      31.912  15.569 -24.915  0.00  0.00    -0.082 Cl
ATOM     26  C   UNL d   1      31.787  17.280 -23.518  0.00  0.00     0.001 A 
ENDBRANCH   3  20
TORSDOF 5
ENDMDL
MODEL 2
REMARK VINA RESULT:       0.5      2.508      4.106
REMARK  5 active torsions:
REMARK  status: ('A' for Active; 'I' for Inactive)
REMARK    1  A    between atoms: C_10  and  C_3 
REMARK    2  A    between atoms: N_12  and  C_4 
REMARK    3  A    between atoms: N_11  and  C_21 
REMARK    4  A    between atoms: C_20  and  N_12 
REMARK    5  A    between atoms: C_21  and  C_20 
ROOT
ATOM      1  C   UNL d   1      30.522  17.144 -24.248  0.00  0.00     0.168 A 
ATOM      2  N   UNL d   1      31.190  17.629 -24.453  0.00  0.00    -0.184 N 
ATOM      3  C   UNL d   1      29.773  17.367 -24.469  0.00  0.00     0.057 A 
ATOM      4  C   UNL d   1      31.927  17.391 -24.225  0.00  0.00     0.218 A 
ATOM      5  N   UNL d   1      30.310  18.544 -25.097  0.00  0.00    -0.160 NA
ATOM      6  N   UNL d   1      30.635  16.452 -23.828  0.00  0.00    -0.227 NA
ATOM      7  C   UNL d   1      32.052  16.696 -23.801  0.00  0.00     0.071 A 
ATOM      8  C   UNL d   1      29.663  18.074 -24.898  0.00  0.00     0.124 A 
ATOM      9  C   UNL d   1      31.394  16.218 -23.599  0.00  0.00     0.087 A 
ATOM     10  C   UNL d   1      31.514  15.490 -23.157  0.00  0.00     0.021 C 
ENDROOT
BRANCH   4  11
ATOM     11  N   UNL d   1      32.604  17.879 -24.431  0.00  0.00    -0.379 NA
BRANCH  11  12
ATOM     12  C   UNL d   1      33.189  18.502 -24.490  0.00  0.00     0.182 C 
BRANCH  12  13
ATOM     13  C   UNL d   1      32.990  19.211 -24.890  0.00  0.00     0.116 C 
BRANCH  13  14
ATOM     14  N   UNL d   1      33.074  19.968 -24.482  0.00  0.00    -0.297 N 
ATOM     15  C   UNL d   1      33.088  20.686 -24.926  0.00  0.00     0.107 A 
ATOM     16  C   UNL d   1      33.173  21.449 -24.517  0.00  0.00     0.142 A 
ATOM     17  O   UNL d   1      33.240  21.480 -23.684  0.00  0.00    -0.300 OA
ATOM     18  C   UNL d   1      33.227  20.750 -23.216  0.00  0.00     0.142 A 
ATOM     19  C   UNL d   1      33.143  19.988 -23.618  0.00  0.00     0.107 A 
ENDBRANCH  13  14
ENDBRANCH  12  13
ENDBRANCH  11  12
ENDBRANCH   4  11
BRANCH   3  20
ATOM     20  C   UNL d   1      29.126  16.896 -24.270  0.00  0.00     0.005 A 
ATOM     21  C   UNL d   1      28.871  16.319 -24.786  0.00  0.00     0.001 A 
ATOM     22  C   UNL d   1      28.233  15.856 -24.590  0.00  0.00     0.011 A 
ATOM     23  C   UNL d   1      27.841  15.963 -23.875  0.00  0.00     0.058 A 
ATOM     24  C   UNL d   1      28.097  16.540 -23.360  0.00  0.00     0.011 A 
ATOM     25 CL   UNL d   1      27.162  15.469 -23.667  0.00  0.00    -0.082 Cl
ATOM     26  C   UNL d   1      28.745  17.011 -23.559  0.00  0.00     0.001 A 
ENDBRANCH   3  20
TORSDOF 5
ENDMDL
MODEL 3
REMARK VINA RESULT:       1.6      3.372      4.794
REMARK  5 active torsions:
REMARK  status: ('A' for Active; 'I' for Inactive)
REMARK    1  A    between atoms: C_10  and  C_3 
REMARK    2  A    between atoms: N_12  and  C_4 
REMARK    3  A    between atoms: N_11  and  C_21 
REMARK    4  A    between atoms: C_20  and  N_12 
REMARK    5  A    between atoms: C_21  and  C_20 
ROOT
ATOM      1  C   UNL d   1      29.152  16.685 -23.953  0.00  0.00     0.168 A 
ATOM      2  N   UNL d   1      29.994  16.802 -23.990  0.00  0.00    -0.184 N 
ATOM      3  C   UNL d   1      28.848  16.036 -23.572  0.00  0.00     0.057 A 
ATOM      4  C   UNL d   1      30.278  17.453 -24.374  0.00  0.00     0.218 A 
ATOM      5  N   UNL d   1      30.181  15.599 -23.254  0.00  0.00    -0.160 NA
ATOM      6  N   UNL d   1      28.650  17.226 -24.301  0.00  0.00    -0.227 NA
ATOM      7  C   UNL d   1      29.780  18.006 -24.729  0.00  0.00     0.071 A 
ATOM      8  C   UNL d   1      29.365  15.486 -23.217  0.00  0.00     0.124 A 
ATOM      9  C   UNL d   1      28.951  17.890 -24.692  0.00  0.00     0.087 A 
ATOM     10  C   UNL d   1      28.423  18.461 -25.059  0.00  0.00     0.021 C 
ENDROOT
BRANCH   4  11
ATOM     11  N   UNL d   1      31.129  17.576 -24.414  0.00  0.00    -0.379 NA
BRANCH  11  12
ATOM     12  C   UNL d   1      31.915  17.894 -24.530  0.00  0.00     0.182 C 
BRANCH  12  13
ATOM     13  C   UNL d   1      32.419  17.986 -23.867  0.00  0.00     0.116 C 
BRANCH  13  14
ATOM     14  N   UNL d   1      32.686  18.776 -23.642  0.00  0.00    -0.297 N 
ATOM     15  C   UNL d   1      32.859  19.348 -24.239  0.00  0.00     0.107 A 
ATOM     16  C   UNL d   1      33.129  20.144 -24.015  0.00  0.00     0.142 A 
ATOM     17  O   UNL d   1      33.220  20.351 -23.210  0.00  0.00    -0.300 OA
ATOM     18  C   UNL d   1      33.046  19.773 -22.587  0.00  0.00     0.142 A 
ATOM     19  C   UNL d   1      32.777  18.979 -22.804  0.00  0.00     0.107 A 
ENDBRANCH  13  14
ENDBRANCH  12  13
ENDBRANCH  11  12
ENDBRANCH   4  11
BRANCH   3  20
ATOM     20  C   UNL d   1      28.032  15.922 -23.535  0.00  0.00     0.005 A 
ATOM     21  C   UNL d   1      27.618  16.165 -22.877  0.00  0.00     0.001 A 
ATOM     22  C   UNL d   1      26.815  16.053 -22.841  0.00  0.00     0.011 A 
ATOM     23  C   UNL d   1      26.413  15.697 -23.463  0.00  0.00     0.058 A 
ATOM     24  C   UNL d   1      26.828  15.454 -24.122  0.00  0.00     0.011 A 
ATOM     25 CL   UNL d   1      25.557  15.577 -23.425  0.00  0.00    -0.082 Cl
ATOM     26  C   UNL d   1      27.644  15.568 -24.158  0.00  0.00     0.001 A 
ENDBRANCH   3  20
TORSDOF 5
ENDMDL
MODEL 4
REMARK VINA RESULT:       1.9      2.790      5.405
REMARK  5 active torsions:
REMARK  status: ('A' for Active; 'I' for Inactive)
REMARK    1  A    between atoms: C_10  and  C_3 
REMARK    2  A    between atoms: N_12  and  C_4 
REMARK    3  A    between atoms: N_11  and  C_21 
REMARK    4  A    between atoms: C_20  and  N_12 
REMARK    5  A    between atoms: C_21  and  C_20 
ROOT
ATOM      1  C   UNL d   1      32.962  19.952 -23.153  0.00  0.00     0.168 A 
ATOM      2  N   UNL d   1      32.954  19.141 -23.409  0.00  0.00    -0.184 N 
ATOM      3  C   UNL d   1      32.985  20.129 -22.361  0.00  0.00     0.057 A 
ATOM      4  C   UNL d   1      32.930  18.984 -24.200  0.00  0.00     0.218 A 
ATOM      5  N   UNL d   1      32.993  18.725 -22.048  0.00  0.00    -0.160 NA
ATOM      6  N   UNL d   1      32.946  20.554 -23.705  0.00  0.00    -0.227 NA
ATOM      7  C   UNL d   1      32.914  19.583 -24.766  0.00  0.00     0.071 A 
ATOM      8  C   UNL d   1      33.001  19.512 -21.800  0.00  0.00     0.124 A 
ATOM      9  C   UNL d   1      32.922  20.382 -24.514  0.00  0.00     0.087 A 
ATOM     10  C   UNL d   1      32.905  21.014 -25.097  0.00  0.00     0.021 C 
ENDROOT
BRANCH   4  11
ATOM     11  N   UNL d   1      32.921  18.165 -24.462  0.00  0.00    -0.379 NA
BRANCH  11  12
ATOM     12  C   UNL d   1      32.738  17.417 -24.838  0.00  0.00     0.182 C 
BRANCH  12  13
ATOM     13  C   UNL d   1      32.662  16.731 -24.363  0.00  0.00     0.116 C 
BRANCH  13  14
ATOM     14  N   UNL d   1      31.911  16.304 -24.351  0.00  0.00    -0.297 N 
ATOM     15  C   UNL d   1      31.584  16.048 -23.616  0.00  0.00     0.107 A 
ATOM     16  C   UNL d   1      30.829  15.617 -23.601  0.00  0.00     0.142 A 
ATOM     17  O   UNL d   1      30.419  15.453 -24.311  0.00  0.00    -0.300 OA
ATOM     18  C   UNL d   1      30.743  15.711 -25.073  0.00  0.00     0.142 A 
ATOM     19  C   UNL d   1      31.495  16.140 -25.094  0.00  0.00     0.107 A 
ENDBRANCH  13  14
ENDBRANCH  12  13
ENDBRANCH  11  12
ENDBRANCH   4  11
BRANCH   3  20
ATOM     20  C   UNL d   1      32.994  20.916 -22.113  0.00  0.00     0.005 A 
ATOM     21  C   UNL d   1      33.232  21.501 -22.628  0.00  0.00     0.001 A 
ATOM     22  C   UNL d   1      33.240  22.275 -22.384  0.00  0.00     0.011 A 
ATOM     23  C   UNL d   1      33.010  22.477 -21.621  0.00  0.00     0.058 A 
ATOM     24  C   UNL d   1      32.771  21.891 -21.107  0.00  0.00     0.011 A 
ATOM     25 CL   UNL d   1      33.018  23.301 -21.361  0.00  0.00    -0.082 Cl
ATOM     26  C   UNL d   1      32.763  21.104 -21.355  0.00  0.00     0.001 A 
ENDBRANCH   3  20
TORSDOF 5
ENDMDL
