MODEL 1
REMARK VINA RESULT:      40.7      0.000      0.000
REMARK  5 active torsions:
REMARK  status: ('A' for Active; 'I' for Inactive)
REMARK    1  A    between atoms: C_2  and  C_1 
REMARK       I    between atoms: N_3  and  C_1 
REMARK    2  A    between atoms: C_9  and  N_3 
REMARK    3  A    between atoms: N_8  and  C_6 
REMARK    4  A    between atoms: C_18  and  N_8 
REMARK    5  A    between atoms: C_19  and  N_8 
ROOT
ATOM      1  C   UNL d   1      57.512  49.461  50.429  0.00  0.00     0.064 A 
ATOM      2  C   UNL d   1      59.159  49.524  50.455  0.00  0.00     0.135 A 
ATOM      3  C   UNL d   1      57.930  49.656  49.740  0.00  0.00     0.020 A 
ATOM      4  C   UNL d   1      57.909  49.300  51.121  0.00  0.00     0.020 A 
ATOM      5  C   UNL d   1      58.762  49.685  49.763  0.00  0.00     0.034 A 
ATOM      6  C   UNL d   1      58.734  49.330  51.139  0.00  0.00     0.034 A 
ENDROOT
BRANCH   2   7
ATOM      7  N   UNL d   1      59.974  49.555  50.463  0.00  0.00    -0.365 NA
ATOM      8  C   UNL d   1      60.788  49.589  50.457  0.00  0.00     0.330 C 
ATOM      9  O   UNL d   1      61.203  49.681  49.757  0.00  0.00    -0.251 OA
BRANCH   8  10
ATOM     10  C   UNL d   1      61.206  49.528  51.172  0.00  0.00     0.090 A 
ATOM     11  C   UNL d   1      60.813  49.575  51.899  0.00  0.00     0.016 A 
ATOM     12  C   UNL d   1      61.218  49.516  52.598  0.00  0.00     0.054 A 
ATOM     13 BR   UNL d   1      60.825  49.563  53.313  0.00  0.00    -0.048 Br
ATOM     14  C   UNL d   1      62.021  49.410  52.590  0.00  0.00     0.106 A 
ATOM     15  N   UNL d   1      62.432  49.361  51.883  0.00  0.00    -0.242 NA
ATOM     16  C   UNL d   1      62.009  49.422  51.164  0.00  0.00     0.105 A 
ENDBRANCH   8  10
ENDBRANCH   2   7
BRANCH   1  17
ATOM     17  N   UNL d   1      56.687  49.433  50.402  0.00  0.00    -0.304 N 
BRANCH  17  18
ATOM     18  C   UNL d   1      56.246  49.546  51.079  0.00  0.00     0.080 C 
ATOM     19  C   UNL d   1      56.114  48.920  51.593  0.00  0.00     0.021 C 
ENDBRANCH  17  18
BRANCH  17  20
ATOM     20  C   UNL d   1      56.309  49.289  49.674  0.00  0.00     0.080 C 
ATOM     21  C   UNL d   1      56.674  49.536  48.976  0.00  0.00     0.021 C 
ENDBRANCH  17  20
ENDBRANCH   1  17
TORSDOF 5
ENDMDL
