MODEL 1
REMARK VINA RESULT:      -7.6      0.000      0.000
REMARK  5 active torsions:
REMARK  status: ('A' for Active; 'I' for Inactive)
REMARK    1  A    between atoms: C_10  and  C_3 
REMARK    2  A    between atoms: N_12  and  C_4 
REMARK    3  A    between atoms: N_11  and  C_15 
REMARK    4  A    between atoms: C_14  and  N_12 
REMARK    5  A    between atoms: C_15  and  C_14 
ROOT
ATOM      1  C   UNL d   1     -48.571  12.769  22.870  0.00  0.00     0.167 A 
ATOM      2  N   UNL d   1     -48.143  12.128  23.177  0.00  0.00    -0.195 N 
ATOM      3  C   UNL d   1     -49.327  12.505  22.710  0.00  0.00     0.057 A 
ATOM      4  C   UNL d   1     -47.357  12.229  23.391  0.00  0.00     0.167 A 
ATOM      5  N   UNL d   1     -48.646  11.485  23.200  0.00  0.00    -0.161 NA
ATOM      6  N   UNL d   1     -48.205  13.498  22.782  0.00  0.00    -0.227 NA
ATOM      7  C   UNL d   1     -46.993  12.967  23.300  0.00  0.00     0.058 A 
ATOM      8  C   UNL d   1     -49.368  11.707  22.917  0.00  0.00     0.124 A 
ATOM      9  C   UNL d   1     -47.412  13.593  22.999  0.00  0.00     0.086 A 
ATOM     10  C   UNL d   1     -47.033  14.327  22.914  0.00  0.00     0.021 C 
ENDROOT
BRANCH   4  11
ATOM     11  N   UNL d   1     -46.930  11.589  23.698  0.00  0.00    -0.224 NA
BRANCH  11  12
ATOM     12  C   UNL d   1     -46.142  11.489  23.493  0.00  0.00     0.120 C 
BRANCH  12  13
ATOM     13  C   UNL d   1     -45.751  10.787  23.692  0.00  0.00     0.101 C 
BRANCH  13  14
ATOM     14  N   UNL d   1     -44.951  10.691  23.515  0.00  0.00    -0.298 N 
ATOM     15  C   UNL d   1     -44.580   9.976  23.697  0.00  0.00     0.107 A 
ATOM     16  C   UNL d   1     -43.773   9.875  23.520  0.00  0.00     0.142 A 
ATOM     17  O   UNL d   1     -43.351  10.482  23.168  0.00  0.00    -0.300 OA
ATOM     18  C   UNL d   1     -43.728  11.202  22.987  0.00  0.00     0.142 A 
ATOM     19  C   UNL d   1     -44.526  11.302  23.161  0.00  0.00     0.107 A 
ENDBRANCH  13  14
ENDBRANCH  12  13
ENDBRANCH  11  12
ENDBRANCH   4  11
BRANCH   3  20
ATOM     20  C   UNL d   1     -49.892  13.021  22.395  0.00  0.00     0.004 A 
ATOM     21  C   UNL d   1     -50.415  13.416  22.905  0.00  0.00     0.000 A 
ATOM     22  C   UNL d   1     -50.974  13.926  22.601  0.00  0.00     0.000 A 
ATOM     23  C   UNL d   1     -51.023  14.052  21.780  0.00  0.00     0.000 A 
ATOM     24  C   UNL d   1     -50.508  13.663  21.277  0.00  0.00     0.000 A 
ATOM     25  C   UNL d   1     -49.943  13.147  21.587  0.00  0.00     0.000 A 
ENDBRANCH   3  20
TORSDOF 5
ENDMDL
MODEL 2
REMARK VINA RESULT:      -6.9      0.905      1.609
REMARK  5 active torsions:
REMARK  status: ('A' for Active; 'I' for Inactive)
REMARK    1  A    between atoms: C_10  and  C_3 
REMARK    2  A    between atoms: N_12  and  C_4 
REMARK    3  A    between atoms: N_11  and  C_15 
REMARK    4  A    between atoms: C_14  and  N_12 
REMARK    5  A    between atoms: C_15  and  C_14 
ROOT
ATOM      1  C   UNL d   1     -48.340  13.368  22.987  0.00  0.00     0.167 A 
ATOM      2  N   UNL d   1     -47.512  13.338  23.001  0.00  0.00    -0.195 N 
ATOM      3  C   UNL d   1     -48.555  14.110  22.723  0.00  0.00     0.057 A 
ATOM      4  C   UNL d   1     -47.133  12.653  23.246  0.00  0.00     0.167 A 
ATOM      5  N   UNL d   1     -47.235  14.063  22.746  0.00  0.00    -0.161 NA
ATOM      6  N   UNL d   1     -48.774  12.711  23.217  0.00  0.00    -0.227 NA
ATOM      7  C   UNL d   1     -47.576  11.993  23.477  0.00  0.00     0.058 A 
ATOM      8  C   UNL d   1     -47.865  14.538  22.575  0.00  0.00     0.124 A 
ATOM      9  C   UNL d   1     -48.387  12.022  23.463  0.00  0.00     0.086 A 
ATOM     10  C   UNL d   1     -48.818  11.352  23.698  0.00  0.00     0.021 C 
ENDROOT
BRANCH   4  11
ATOM     11  N   UNL d   1     -46.305  12.624  23.260  0.00  0.00    -0.224 NA
BRANCH  11  12
ATOM     12  C   UNL d   1     -45.921  11.903  23.178  0.00  0.00     0.120 C 
BRANCH  12  13
ATOM     13  C   UNL d   1     -45.109  11.886  23.018  0.00  0.00     0.101 C 
BRANCH  13  14
ATOM     14  N   UNL d   1     -44.665  11.211  23.186  0.00  0.00    -0.298 N 
ATOM     15  C   UNL d   1     -43.860  11.202  23.007  0.00  0.00     0.107 A 
ATOM     16  C   UNL d   1     -43.408  10.523  23.175  0.00  0.00     0.142 A 
ATOM     17  O   UNL d   1     -43.763   9.869  23.517  0.00  0.00    -0.300 OA
ATOM     18  C   UNL d   1     -44.577   9.882  23.696  0.00  0.00     0.142 A 
ATOM     19  C   UNL d   1     -45.023  10.553  23.529  0.00  0.00     0.107 A 
ENDBRANCH  13  14
ENDBRANCH  12  13
ENDBRANCH  11  12
ENDBRANCH   4  11
BRANCH   3  20
ATOM     20  C   UNL d   1     -49.353  14.312  22.648  0.00  0.00     0.004 A 
ATOM     21  C   UNL d   1     -49.745  14.677  23.284  0.00  0.00     0.000 A 
ATOM     22  C   UNL d   1     -50.533  14.879  23.216  0.00  0.00     0.000 A 
ATOM     23  C   UNL d   1     -50.946  14.720  22.511  0.00  0.00     0.000 A 
ATOM     24  C   UNL d   1     -50.561  14.361  21.885  0.00  0.00     0.000 A 
ATOM     25  C   UNL d   1     -49.764  14.158  21.955  0.00  0.00     0.000 A 
ENDBRANCH   3  20
TORSDOF 5
ENDMDL
MODEL 3
REMARK VINA RESULT:      -6.6      1.582      2.293
REMARK  5 active torsions:
REMARK  status: ('A' for Active; 'I' for Inactive)
REMARK    1  A    between atoms: C_10  and  C_3 
REMARK    2  A    between atoms: N_12  and  C_4 
REMARK    3  A    between atoms: N_11  and  C_15 
REMARK    4  A    between atoms: C_14  and  N_12 
REMARK    5  A    between atoms: C_15  and  C_14 
ROOT
ATOM      1  C   UNL d   1     -48.249  14.097  22.933  0.00  0.00     0.167 A 
ATOM      2  N   UNL d   1     -47.434  14.194  22.815  0.00  0.00    -0.195 N 
ATOM      3  C   UNL d   1     -48.608  14.811  22.763  0.00  0.00     0.057 A 
ATOM      4  C   UNL d   1     -46.926  13.563  22.945  0.00  0.00     0.167 A 
ATOM      5  N   UNL d   1     -47.309  14.965  22.575  0.00  0.00    -0.161 NA
ATOM      6  N   UNL d   1     -48.541  13.372  23.179  0.00  0.00    -0.227 NA
ATOM      7  C   UNL d   1     -47.227  12.832  23.193  0.00  0.00     0.058 A 
ATOM      8  C   UNL d   1     -48.020  15.345  22.541  0.00  0.00     0.124 A 
ATOM      9  C   UNL d   1     -48.024  12.738  23.308  0.00  0.00     0.086 A 
ATOM     10  C   UNL d   1     -48.311  11.999  23.557  0.00  0.00     0.021 C 
ENDROOT
BRANCH   4  11
ATOM     11  N   UNL d   1     -46.112  13.659  22.827  0.00  0.00    -0.224 NA
BRANCH  11  12
ATOM     12  C   UNL d   1     -45.675  13.054  22.486  0.00  0.00     0.120 C 
BRANCH  12  13
ATOM     13  C   UNL d   1     -45.081  13.234  21.938  0.00  0.00     0.101 C 
BRANCH  13  14
ATOM     14  N   UNL d   1     -44.374  12.809  21.934  0.00  0.00    -0.298 N 
ATOM     15  C   UNL d   1     -43.768  13.039  21.424  0.00  0.00     0.107 A 
ATOM     16  C   UNL d   1     -43.052  12.613  21.417  0.00  0.00     0.142 A 
ATOM     17  O   UNL d   1     -42.953  11.970  21.915  0.00  0.00    -0.300 OA
ATOM     18  C   UNL d   1     -43.568  11.741  22.428  0.00  0.00     0.142 A 
ATOM     19  C   UNL d   1     -44.274  12.163  22.435  0.00  0.00     0.107 A 
ENDBRANCH  13  14
ENDBRANCH  12  13
ENDBRANCH  11  12
ENDBRANCH   4  11
BRANCH   3  20
ATOM     20  C   UNL d   1     -49.428  14.892  22.829  0.00  0.00     0.004 A 
ATOM     21  C   UNL d   1     -49.753  15.213  23.524  0.00  0.00     0.000 A 
ATOM     22  C   UNL d   1     -50.561  15.296  23.595  0.00  0.00     0.000 A 
ATOM     23  C   UNL d   1     -51.063  15.061  22.974  0.00  0.00     0.000 A 
ATOM     24  C   UNL d   1     -50.744  14.745  22.290  0.00  0.00     0.000 A 
ATOM     25  C   UNL d   1     -49.925  14.662  22.220  0.00  0.00     0.000 A 
ENDBRANCH   3  20
TORSDOF 5
ENDMDL
