MODEL 1
REMARK VINA RESULT:      -9.3      0.000      0.000
REMARK  2 active torsions:
REMARK  status: ('A' for Active; 'I' for Inactive)
REMARK    1  A    between atoms: C_5  and  C_1 
REMARK       I    between atoms: N_7  and  C_5 
REMARK    2  A    between atoms: C_9  and  N_7 
ROOT
ATOM      1  C   UNL d   1     -48.198  14.075  22.455  0.00  0.00     0.161 A 
ATOM      2  C   UNL d   1     -48.210  13.769  21.716  0.00  0.00     0.072 A 
ATOM      3  O   UNL d   1     -48.783  13.832  23.037  0.00  0.00    -0.302 OA
ATOM      4  C   UNL d   1     -48.774  13.222  21.493  0.00  0.00     0.200 A 
ATOM      5  C   UNL d   1     -49.352  12.971  22.038  0.00  0.00     0.062 A 
ATOM      6  C   UNL d   1     -49.347  13.275  22.789  0.00  0.00     0.103 A 
ATOM      7  O   UNL d   1     -48.758  12.922  20.712  0.00  0.00    -0.286 OA
ATOM      8  C   UNL d   1     -49.935  12.411  21.823  0.00  0.00     0.005 A 
ATOM      9  C   UNL d   1     -49.934  13.020  23.343  0.00  0.00     0.025 A 
ATOM     10  C   UNL d   1     -50.502  12.173  22.378  0.00  0.00     0.000 A 
ATOM     11  C   UNL d   1     -50.498  12.472  23.120  0.00  0.00     0.002 A 
ENDROOT
BRANCH   1  12
ATOM     12  C   UNL d   1     -47.586  14.647  22.644  0.00  0.00     0.302 C 
ATOM     13  N   UNL d   1     -46.860  14.401  22.947  0.00  0.00    -0.206 NA
ATOM     14  O   UNL d   1     -47.743  15.458  22.513  0.00  0.00    -0.263 OA
BRANCH  13  15
ATOM     15  C   UNL d   1     -46.727  13.601  23.068  0.00  0.00     0.085 A 
ATOM     16  C   UNL d   1     -46.116  13.222  22.663  0.00  0.00     0.018 A 
ATOM     17  C   UNL d   1     -45.969  12.428  22.770  0.00  0.00     0.002 A 
ATOM     18  C   UNL d   1     -45.631  13.669  22.125  0.00  0.00     0.002 C 
ATOM     19  C   UNL d   1     -46.438  11.999  23.290  0.00  0.00     0.000 A 
ATOM     20  C   UNL d   1     -47.050  12.371  23.698  0.00  0.00     0.002 A 
ATOM     21  C   UNL d   1     -46.298  11.174  23.412  0.00  0.00     0.000 C 
ATOM     22  C   UNL d   1     -47.184  13.171  23.578  0.00  0.00     0.019 A 
ENDBRANCH  13  15
ENDBRANCH   1  12
TORSDOF 2
ENDMDL
MODEL 2
REMARK VINA RESULT:      -9.1      1.521      3.618
REMARK  2 active torsions:
REMARK  status: ('A' for Active; 'I' for Inactive)
REMARK    1  A    between atoms: C_5  and  C_1 
REMARK       I    between atoms: N_7  and  C_5 
REMARK    2  A    between atoms: C_9  and  N_7 
ROOT
ATOM      1  C   UNL d   1     -48.783  12.237  22.932  0.00  0.00     0.161 A 
ATOM      2  C   UNL d   1     -48.688  12.277  22.138  0.00  0.00     0.072 A 
ATOM      3  O   UNL d   1     -48.175  12.542  23.459  0.00  0.00    -0.302 OA
ATOM      4  C   UNL d   1     -48.017  12.606  21.807  0.00  0.00     0.200 A 
ATOM      5  C   UNL d   1     -47.414  12.908  22.296  0.00  0.00     0.062 A 
ATOM      6  C   UNL d   1     -47.502  12.871  23.101  0.00  0.00     0.103 A 
ATOM      7  O   UNL d   1     -47.951  12.632  20.974  0.00  0.00    -0.286 OA
ATOM      8  C   UNL d   1     -46.723  13.247  21.971  0.00  0.00     0.005 A 
ATOM      9  C   UNL d   1     -46.889  13.178  23.599  0.00  0.00     0.025 A 
ATOM     10  C   UNL d   1     -46.133  13.543  22.473  0.00  0.00     0.000 A 
ATOM     11  C   UNL d   1     -46.219  13.507  23.267  0.00  0.00     0.002 A 
ENDROOT
BRANCH   1  12
ATOM     12  C   UNL d   1     -49.504  11.883  23.233  0.00  0.00     0.302 C 
ATOM     13  N   UNL d   1     -50.169  12.348  23.385  0.00  0.00    -0.206 NA
ATOM     14  O   UNL d   1     -49.518  11.058  23.369  0.00  0.00    -0.263 OA
BRANCH  13  15
ATOM     15  C   UNL d   1     -50.133  13.154  23.245  0.00  0.00     0.085 A 
ATOM     16  C   UNL d   1     -50.576  13.483  22.631  0.00  0.00     0.018 A 
ATOM     17  C   UNL d   1     -50.553  14.283  22.477  0.00  0.00     0.002 A 
ATOM     18  C   UNL d   1     -51.064  12.977  22.152  0.00  0.00     0.002 C 
ATOM     19  C   UNL d   1     -50.081  14.769  22.941  0.00  0.00     0.000 A 
ATOM     20  C   UNL d   1     -49.636  14.447  23.556  0.00  0.00     0.002 A 
ATOM     21  C   UNL d   1     -50.046  15.600  22.794  0.00  0.00     0.000 C 
ATOM     22  C   UNL d   1     -49.671  13.640  23.697  0.00  0.00     0.019 A 
ENDBRANCH  13  15
ENDBRANCH   1  12
TORSDOF 2
ENDMDL
MODEL 3
REMARK VINA RESULT:      -8.7      1.271      2.025
REMARK  2 active torsions:
REMARK  status: ('A' for Active; 'I' for Inactive)
REMARK    1  A    between atoms: C_5  and  C_1 
REMARK       I    between atoms: N_7  and  C_5 
REMARK    2  A    between atoms: C_9  and  N_7 
ROOT
ATOM      1  C   UNL d   1     -48.540  11.917  22.957  0.00  0.00     0.161 A 
ATOM      2  C   UNL d   1     -48.481  11.853  22.161  0.00  0.00     0.072 A 
ATOM      3  O   UNL d   1     -49.216  12.312  23.313  0.00  0.00    -0.302 OA
ATOM      4  C   UNL d   1     -49.056  12.159  21.667  0.00  0.00     0.200 A 
ATOM      5  C   UNL d   1     -49.721  12.546  21.988  0.00  0.00     0.062 A 
ATOM      6  C   UNL d   1     -49.788  12.615  22.793  0.00  0.00     0.103 A 
ATOM      7  O   UNL d   1     -48.963  12.074  20.840  0.00  0.00    -0.286 OA
ATOM      8  C   UNL d   1     -50.316  12.863  21.494  0.00  0.00     0.005 A 
ATOM      9  C   UNL d   1     -50.464  13.008  23.119  0.00  0.00     0.025 A 
ATOM     10  C   UNL d   1     -50.971  13.245  21.831  0.00  0.00     0.000 A 
ATOM     11  C   UNL d   1     -51.039  13.314  22.625  0.00  0.00     0.002 A 
ENDROOT
BRANCH   1  12
ATOM     12  C   UNL d   1     -47.911  11.581  23.435  0.00  0.00     0.302 C 
ATOM     13  N   UNL d   1     -47.247  12.029  23.630  0.00  0.00    -0.206 NA
ATOM     14  O   UNL d   1     -47.988  10.792  23.698  0.00  0.00    -0.263 OA
BRANCH  13  15
ATOM     15  C   UNL d   1     -47.192  12.802  23.362  0.00  0.00     0.085 A 
ATOM     16  C   UNL d   1     -46.570  13.020  22.865  0.00  0.00     0.018 A 
ATOM     17  C   UNL d   1     -46.500  13.783  22.588  0.00  0.00     0.002 A 
ATOM     18  C   UNL d   1     -45.993  12.437  22.638  0.00  0.00     0.002 C 
ATOM     19  C   UNL d   1     -47.058  14.343  22.808  0.00  0.00     0.000 A 
ATOM     20  C   UNL d   1     -47.682  14.133  23.305  0.00  0.00     0.002 A 
ATOM     21  C   UNL d   1     -46.999  15.139  22.530  0.00  0.00     0.000 C 
ATOM     22  C   UNL d   1     -47.738  13.360  23.573  0.00  0.00     0.019 A 
ENDBRANCH  13  15
ENDBRANCH   1  12
TORSDOF 2
ENDMDL
MODEL 4
REMARK VINA RESULT:      -8.6      1.244      3.233
REMARK  2 active torsions:
REMARK  status: ('A' for Active; 'I' for Inactive)
REMARK    1  A    between atoms: C_5  and  C_1 
REMARK       I    between atoms: N_7  and  C_5 
REMARK    2  A    between atoms: C_9  and  N_7 
ROOT
ATOM      1  C   UNL d   1     -48.988  14.144  21.929  0.00  0.00     0.161 A 
ATOM      2  C   UNL d   1     -48.792  13.602  21.373  0.00  0.00     0.072 A 
ATOM      3  O   UNL d   1     -48.484  14.266  22.615  0.00  0.00    -0.302 OA
ATOM      4  C   UNL d   1     -48.113  13.152  21.440  0.00  0.00     0.200 A 
ATOM      5  C   UNL d   1     -47.608  13.252  22.095  0.00  0.00     0.062 A 
ATOM      6  C   UNL d   1     -47.799  13.798  22.662  0.00  0.00     0.103 A 
ATOM      7  O   UNL d   1     -47.939  12.595  20.841  0.00  0.00    -0.286 OA
ATOM      8  C   UNL d   1     -46.910  12.798  22.175  0.00  0.00     0.005 A 
ATOM      9  C   UNL d   1     -47.286  13.899  23.328  0.00  0.00     0.025 A 
ATOM     10  C   UNL d   1     -46.419  12.911  22.834  0.00  0.00     0.000 A 
ATOM     11  C   UNL d   1     -46.606  13.450  23.395  0.00  0.00     0.002 A 
ENDROOT
BRANCH   1  12
ATOM     12  C   UNL d   1     -49.711  14.592  21.817  0.00  0.00     0.302 C 
ATOM     13  N   UNL d   1     -50.432  14.305  22.098  0.00  0.00    -0.206 NA
ATOM     14  O   UNL d   1     -49.669  15.325  21.417  0.00  0.00    -0.263 OA
BRANCH  13  15
ATOM     15  C   UNL d   1     -50.451  13.584  22.487  0.00  0.00     0.085 A 
ATOM     16  C   UNL d   1     -50.653  13.556  23.287  0.00  0.00     0.018 A 
ATOM     17  C   UNL d   1     -50.677  12.849  23.690  0.00  0.00     0.002 A 
ATOM     18  C   UNL d   1     -50.839  14.279  23.696  0.00  0.00     0.002 C 
ATOM     19  C   UNL d   1     -50.497  12.153  23.294  0.00  0.00     0.000 A 
ATOM     20  C   UNL d   1     -50.294  12.174  22.494  0.00  0.00     0.002 A 
ATOM     21  C   UNL d   1     -50.517  11.411  23.698  0.00  0.00     0.000 C 
ATOM     22  C   UNL d   1     -50.275  12.894  22.104  0.00  0.00     0.019 A 
ENDBRANCH  13  15
ENDBRANCH   1  12
TORSDOF 2
ENDMDL
MODEL 5
REMARK VINA RESULT:      -8.2      1.326      3.356
REMARK  2 active torsions:
REMARK  status: ('A' for Active; 'I' for Inactive)
REMARK    1  A    between atoms: C_5  and  C_1 
REMARK       I    between atoms: N_7  and  C_5 
REMARK    2  A    between atoms: C_9  and  N_7 
ROOT
ATOM      1  C   UNL d   1     -48.931  14.766  23.068  0.00  0.00     0.161 A 
ATOM      2  C   UNL d   1     -48.507  15.202  22.548  0.00  0.00     0.072 A 
ATOM      3  O   UNL d   1     -48.571  14.095  23.468  0.00  0.00    -0.302 OA
ATOM      4  C   UNL d   1     -47.727  15.025  22.381  0.00  0.00     0.200 A 
ATOM      5  C   UNL d   1     -47.356  14.379  22.755  0.00  0.00     0.062 A 
ATOM      6  C   UNL d   1     -47.778  13.933  23.284  0.00  0.00     0.103 A 
ATOM      7  O   UNL d   1     -47.314  15.501  21.832  0.00  0.00    -0.286 OA
ATOM      8  C   UNL d   1     -46.559  14.187  22.594  0.00  0.00     0.005 A 
ATOM      9  C   UNL d   1     -47.400  13.277  23.665  0.00  0.00     0.025 A 
ATOM     10  C   UNL d   1     -46.205  13.541  22.976  0.00  0.00     0.000 A 
ATOM     11  C   UNL d   1     -46.620  13.099  23.498  0.00  0.00     0.002 A 
ENDROOT
BRANCH   1  12
ATOM     12  C   UNL d   1     -49.747  14.990  23.211  0.00  0.00     0.302 C 
ATOM     13  N   UNL d   1     -50.366  14.561  22.874  0.00  0.00    -0.206 NA
ATOM     14  O   UNL d   1     -49.900  15.652  23.698  0.00  0.00    -0.263 OA
BRANCH  13  15
ATOM     15  C   UNL d   1     -50.193  13.916  22.400  0.00  0.00     0.085 A 
ATOM     16  C   UNL d   1     -50.423  13.159  22.637  0.00  0.00     0.018 A 
ATOM     17  C   UNL d   1     -50.260  12.506  22.179  0.00  0.00     0.002 A 
ATOM     18  C   UNL d   1     -50.838  13.062  23.374  0.00  0.00     0.002 C 
ATOM     19  C   UNL d   1     -49.860  12.603  21.469  0.00  0.00     0.000 A 
ATOM     20  C   UNL d   1     -49.627  13.356  21.225  0.00  0.00     0.002 A 
ATOM     21  C   UNL d   1     -49.683  11.935  20.981  0.00  0.00     0.000 C 
ATOM     22  C   UNL d   1     -49.799  14.002  21.699  0.00  0.00     0.019 A 
ENDBRANCH  13  15
ENDBRANCH   1  12
TORSDOF 2
ENDMDL
MODEL 6
REMARK VINA RESULT:      -8.1      1.601      2.739
REMARK  2 active torsions:
REMARK  status: ('A' for Active; 'I' for Inactive)
REMARK    1  A    between atoms: C_5  and  C_1 
REMARK       I    between atoms: N_7  and  C_5 
REMARK    2  A    between atoms: C_9  and  N_7 
ROOT
ATOM      1  C   UNL d   1     -48.698  13.710  21.837  0.00  0.00     0.161 A 
ATOM      2  C   UNL d   1     -49.345  13.802  21.375  0.00  0.00     0.072 A 
ATOM      3  O   UNL d   1     -48.607  14.174  22.557  0.00  0.00    -0.302 OA
ATOM      4  C   UNL d   1     -49.934  14.334  21.570  0.00  0.00     0.200 A 
ATOM      5  C   UNL d   1     -49.869  14.795  22.261  0.00  0.00     0.062 A 
ATOM      6  C   UNL d   1     -49.218  14.708  22.735  0.00  0.00     0.103 A 
ATOM      7  O   UNL d   1     -50.596  14.405  21.064  0.00  0.00    -0.286 OA
ATOM      8  C   UNL d   1     -50.465  15.343  22.472  0.00  0.00     0.005 A 
ATOM      9  C   UNL d   1     -49.152  15.176  23.438  0.00  0.00     0.025 A 
ATOM     10  C   UNL d   1     -50.384  15.793  23.164  0.00  0.00     0.000 A 
ATOM     11  C   UNL d   1     -49.741  15.708  23.633  0.00  0.00     0.002 A 
ENDROOT
BRANCH   1  12
ATOM     12  C   UNL d   1     -48.106  13.140  21.592  0.00  0.00     0.302 C 
ATOM     13  N   UNL d   1     -48.168  12.348  21.815  0.00  0.00    -0.206 NA
ATOM     14  O   UNL d   1     -47.466  13.404  21.123  0.00  0.00    -0.263 OA
BRANCH  13  15
ATOM     15  C   UNL d   1     -48.802  12.111  22.276  0.00  0.00     0.085 A 
ATOM     16  C   UNL d   1     -48.672  11.827  23.039  0.00  0.00     0.018 A 
ATOM     17  C   UNL d   1     -49.291  11.586  23.511  0.00  0.00     0.002 A 
ATOM     18  C   UNL d   1     -47.876  11.785  23.338  0.00  0.00     0.002 C 
ATOM     19  C   UNL d   1     -50.057  11.628  23.221  0.00  0.00     0.000 A 
ATOM     20  C   UNL d   1     -50.196  11.910  22.458  0.00  0.00     0.002 A 
ATOM     21  C   UNL d   1     -50.711  11.382  23.698  0.00  0.00     0.000 C 
ATOM     22  C   UNL d   1     -49.561  12.148  21.997  0.00  0.00     0.019 A 
ENDBRANCH  13  15
ENDBRANCH   1  12
TORSDOF 2
ENDMDL
MODEL 7
REMARK VINA RESULT:      -7.3      1.460      3.411
REMARK  2 active torsions:
REMARK  status: ('A' for Active; 'I' for Inactive)
REMARK    1  A    between atoms: C_5  and  C_1 
REMARK       I    between atoms: N_7  and  C_5 
REMARK    2  A    between atoms: C_9  and  N_7 
ROOT
ATOM      1  C   UNL d   1     -47.571  12.394  22.978  0.00  0.00     0.161 A 
ATOM      2  C   UNL d   1     -46.965  12.491  22.463  0.00  0.00     0.072 A 
ATOM      3  O   UNL d   1     -48.000  13.076  23.278  0.00  0.00    -0.302 OA
ATOM      4  C   UNL d   1     -46.738  13.234  22.210  0.00  0.00     0.200 A 
ATOM      5  C   UNL d   1     -47.137  13.910  22.487  0.00  0.00     0.062 A 
ATOM      6  C   UNL d   1     -47.752  13.821  23.008  0.00  0.00     0.103 A 
ATOM      7  O   UNL d   1     -46.101  13.298  21.672  0.00  0.00    -0.286 OA
ATOM      8  C   UNL d   1     -46.915  14.676  22.236  0.00  0.00     0.005 A 
ATOM      9  C   UNL d   1     -48.158  14.509  23.290  0.00  0.00     0.025 A 
ATOM     10  C   UNL d   1     -47.324  15.338  22.522  0.00  0.00     0.000 A 
ATOM     11  C   UNL d   1     -47.931  15.252  23.037  0.00  0.00     0.002 A 
ENDROOT
BRANCH   1  12
ATOM     12  C   UNL d   1     -47.773  11.594  23.215  0.00  0.00     0.302 C 
ATOM     13  N   UNL d   1     -48.482  11.250  22.970  0.00  0.00    -0.206 NA
ATOM     14  O   UNL d   1     -47.237  11.173  23.698  0.00  0.00    -0.263 OA
BRANCH  13  15
ATOM     15  C   UNL d   1     -48.993  11.682  22.497  0.00  0.00     0.085 A 
ATOM     16  C   UNL d   1     -49.743  11.882  22.779  0.00  0.00     0.018 A 
ATOM     17  C   UNL d   1     -50.264  12.310  22.322  0.00  0.00     0.002 A 
ATOM     18  C   UNL d   1     -49.973  11.637  23.560  0.00  0.00     0.002 C 
ATOM     19  C   UNL d   1     -50.039  12.546  21.569  0.00  0.00     0.000 A 
ATOM     20  C   UNL d   1     -49.292  12.349  21.280  0.00  0.00     0.002 A 
ATOM     21  C   UNL d   1     -50.568  12.990  21.082  0.00  0.00     0.000 C 
ATOM     22  C   UNL d   1     -48.780  11.918  21.753  0.00  0.00     0.019 A 
ENDBRANCH  13  15
ENDBRANCH   1  12
TORSDOF 2
ENDMDL
MODEL 8
REMARK VINA RESULT:      -6.9      1.405      2.530
REMARK  2 active torsions:
REMARK  status: ('A' for Active; 'I' for Inactive)
REMARK    1  A    between atoms: C_5  and  C_1 
REMARK       I    between atoms: N_7  and  C_5 
REMARK    2  A    between atoms: C_9  and  N_7 
ROOT
ATOM      1  C   UNL d   1     -47.646  13.365  22.603  0.00  0.00     0.161 A 
ATOM      2  C   UNL d   1     -47.874  13.207  21.852  0.00  0.00     0.072 A 
ATOM      3  O   UNL d   1     -47.959  12.905  23.259  0.00  0.00    -0.302 OA
ATOM      4  C   UNL d   1     -48.407  12.610  21.687  0.00  0.00     0.200 A 
ATOM      5  C   UNL d   1     -48.725  12.151  22.305  0.00  0.00     0.062 A 
ATOM      6  C   UNL d   1     -48.499  12.304  23.068  0.00  0.00     0.103 A 
ATOM      7  O   UNL d   1     -48.624  12.472  20.891  0.00  0.00    -0.286 OA
ATOM      8  C   UNL d   1     -49.271  11.537  22.150  0.00  0.00     0.005 A 
ATOM      9  C   UNL d   1     -48.822  11.837  23.696  0.00  0.00     0.025 A 
ATOM     10  C   UNL d   1     -49.577  11.090  22.778  0.00  0.00     0.000 A 
ATOM     11  C   UNL d   1     -49.355  11.239  23.531  0.00  0.00     0.002 A 
ENDROOT
BRANCH   1  12
ATOM     12  C   UNL d   1     -47.084  14.002  22.727  0.00  0.00     0.302 C 
ATOM     13  N   UNL d   1     -47.346  14.770  22.877  0.00  0.00    -0.206 NA
ATOM     14  O   UNL d   1     -46.268  13.827  22.693  0.00  0.00    -0.263 OA
BRANCH  13  15
ATOM     15  C   UNL d   1     -48.151  14.919  22.906  0.00  0.00     0.085 A 
ATOM     16  C   UNL d   1     -48.499  15.400  22.333  0.00  0.00     0.018 A 
ATOM     17  C   UNL d   1     -49.298  15.560  22.346  0.00  0.00     0.002 A 
ATOM     18  C   UNL d   1     -48.015  15.734  21.718  0.00  0.00     0.002 C 
ATOM     19  C   UNL d   1     -49.763  15.236  22.940  0.00  0.00     0.000 A 
ATOM     20  C   UNL d   1     -49.422  14.755  23.516  0.00  0.00     0.002 A 
ATOM     21  C   UNL d   1     -50.594  15.392  22.968  0.00  0.00     0.000 C 
ATOM     22  C   UNL d   1     -48.617  14.605  23.488  0.00  0.00     0.019 A 
ENDBRANCH  13  15
ENDBRANCH   1  12
TORSDOF 2
ENDMDL
MODEL 9
REMARK VINA RESULT:      -6.7      7.139      9.132
REMARK  2 active torsions:
REMARK  status: ('A' for Active; 'I' for Inactive)
REMARK    1  A    between atoms: C_5  and  C_1 
REMARK       I    between atoms: N_7  and  C_5 
REMARK    2  A    between atoms: C_9  and  N_7 
ROOT
ATOM      1  C   UNL d   1     -39.097  15.286  19.380  0.00  0.00     0.161 A 
ATOM      2  C   UNL d   1     -38.936  14.547  19.117  0.00  0.00     0.072 A 
ATOM      3  O   UNL d   1     -39.665  15.782  18.964  0.00  0.00    -0.302 OA
ATOM      4  C   UNL d   1     -39.303  14.244  18.452  0.00  0.00     0.200 A 
ATOM      5  C   UNL d   1     -39.856  14.705  18.033  0.00  0.00     0.062 A 
ATOM      6  C   UNL d   1     -40.025  15.454  18.292  0.00  0.00     0.103 A 
ATOM      7  O   UNL d   1     -39.111  13.468  18.206  0.00  0.00    -0.286 OA
ATOM      8  C   UNL d   1     -40.238  14.407  17.351  0.00  0.00     0.005 A 
ATOM      9  C   UNL d   1     -40.587  15.922  17.865  0.00  0.00     0.025 A 
ATOM     10  C   UNL d   1     -40.785  14.879  16.946  0.00  0.00     0.000 A 
ATOM     11  C   UNL d   1     -40.953  15.619  17.201  0.00  0.00     0.002 A 
ENDROOT
BRANCH   1  12
ATOM     12  C   UNL d   1     -38.688  15.561  20.082  0.00  0.00     0.302 C 
ATOM     13  N   UNL d   1     -39.028  15.471  20.829  0.00  0.00    -0.206 NA
ATOM     14  O   UNL d   1     -37.940  15.922  19.993  0.00  0.00    -0.263 OA
BRANCH  13  15
ATOM     15  C   UNL d   1     -39.763  15.115  20.893  0.00  0.00     0.085 A 
ATOM     16  C   UNL d   1     -39.830  14.378  21.258  0.00  0.00     0.018 A 
ATOM     17  C   UNL d   1     -40.553  14.009  21.332  0.00  0.00     0.002 A 
ATOM     18  C   UNL d   1     -39.132  13.998  21.563  0.00  0.00     0.002 C 
ATOM     19  C   UNL d   1     -41.224  14.377  21.037  0.00  0.00     0.000 A 
ATOM     20  C   UNL d   1     -41.165  15.114  20.671  0.00  0.00     0.002 A 
ATOM     21  C   UNL d   1     -41.981  14.007  21.105  0.00  0.00     0.000 C 
ATOM     22  C   UNL d   1     -40.430  15.471  20.605  0.00  0.00     0.019 A 
ENDBRANCH  13  15
ENDBRANCH   1  12
TORSDOF 2
ENDMDL
