MODEL 1
REMARK VINA RESULT:      50.2      0.000      0.000
REMARK  9 active torsions:
REMARK  status: ('A' for Active; 'I' for Inactive)
REMARK    1  A    between atoms: C_14  and  N_1 
REMARK    2  A    between atoms: C_8  and  C_2 
REMARK    3  A    between atoms: C_3  and  N_11 
REMARK    4  A    between atoms: S_16  and  C_4 
REMARK    5  A    between atoms: C_10  and  C_8 
REMARK       I    between atoms: N_11  and  C_17 
REMARK    6  A    between atoms: C_23  and  C_14 
REMARK    7  A    between atoms: C_22  and  S_16 
REMARK    8  A    between atoms: C_17  and  C_22 
REMARK    9  A    between atoms: C_25  and  C_23 
ROOT
ATOM      1  N   UNL d   1      46.287 -18.021  42.301  0.00  0.00    -0.268 N 
ATOM      2  C   UNL d   1      46.472 -18.655  42.797  0.00  0.00     0.172 A 
ATOM      3  C   UNL d   1      46.345 -18.277  41.520  0.00  0.00     0.201 A 
ATOM      4  N   UNL d   1      46.645 -19.304  42.324  0.00  0.00    -0.128 NA
ATOM      5  N   UNL d   1      46.569 -19.078  41.534  0.00  0.00    -0.121 NA
ENDROOT
BRANCH   3   6
ATOM      6  S   UNL d   1      46.209 -17.828  40.848  0.00  0.00    -0.043 SA
BRANCH   6   7
ATOM      7  C   UNL d   1      45.705 -18.107  40.257  0.00  0.00     0.101 C 
BRANCH   7   8
ATOM      8  C   UNL d   1      45.374 -17.579  39.714  0.00  0.00     0.288 C 
ATOM      9  N   UNL d   1      45.748 -17.448  38.996  0.00  0.00    -0.182 NA
ATOM     10  O   UNL d   1      44.671 -17.188  39.895  0.00  0.00    -0.265 OA
BRANCH   9  11
ATOM     11  C   UNL d   1      45.424 -16.925  38.454  0.00  0.00     0.197 A 
ATOM     12  N   UNL d   1      44.632 -16.900  38.213  0.00  0.00    -0.221 NA
ATOM     13  C   UNL d   1      44.552 -16.294  37.665  0.00  0.00     0.090 A 
ATOM     14  C   UNL d   1      43.906 -16.016  37.245  0.00  0.00     0.020 A 
ATOM     15  C   UNL d   1      45.290 -15.937  37.560  0.00  0.00     0.050 A 
ATOM     16  C   UNL d   1      43.988 -15.385  36.721  0.00  0.00     0.002 A 
ATOM     17  C   UNL d   1      44.730 -15.033  36.621  0.00  0.00     0.001 A 
ATOM     18  C   UNL d   1      45.371 -15.306  37.036  0.00  0.00     0.008 A 
ATOM     19  S   UNL d   1      45.840 -16.321  38.046  0.00  0.00    -0.047 SA
ENDBRANCH   9  11
ENDBRANCH   7   8
ENDBRANCH   6   7
ENDBRANCH   3   6
BRANCH   1  20
ATOM     20  C   UNL d   1      46.080 -17.261  42.547  0.00  0.00     0.084 C 
BRANCH  20  21
ATOM     21  C   UNL d   1      46.152 -17.051  43.351  0.00  0.00     0.019 C 
BRANCH  21  22
ATOM     22  C   UNL d   1      45.945 -16.288  43.603  0.00  0.00     0.002 A 
ATOM     23  C   UNL d   1      45.436 -15.839  43.146  0.00  0.00     0.000 A 
ATOM     24  C   UNL d   1      45.232 -15.080  43.400  0.00  0.00     0.000 A 
ATOM     25  C   UNL d   1      45.543 -14.783  44.109  0.00  0.00     0.000 A 
ATOM     26  C   UNL d   1      46.058 -15.245  44.565  0.00  0.00     0.000 A 
ATOM     27  C   UNL d   1      46.254 -16.001  44.301  0.00  0.00     0.000 A 
ENDBRANCH  21  22
ENDBRANCH  20  21
ENDBRANCH   1  20
BRANCH   2  28
ATOM     28  C   UNL d   1      46.483 -18.641  43.623  0.00  0.00     0.057 C 
BRANCH  28  29
ATOM     29  C   UNL d   1      46.230 -19.296  44.051  0.00  0.00     0.067 A 
ATOM     30  N   UNL d   1      45.524 -19.713  43.940  0.00  0.00    -0.303 N 
ATOM     31  C   UNL d   1      45.499 -20.327  44.491  0.00  0.00     0.080 A 
ATOM     32  C   UNL d   1      44.951 -19.540  43.375  0.00  0.00     0.100 C 
ATOM     33  C   UNL d   1      46.184 -20.295  44.945  0.00  0.00     0.021 A 
ATOM     34  C   UNL d   1      46.637 -19.661  44.677  0.00  0.00     0.019 A 
ENDBRANCH  28  29
ENDBRANCH   2  28
TORSDOF 9
ENDMDL
