MODEL 1
REMARK VINA RESULT:      -9.7      0.000      0.000
REMARK  2 active torsions:
REMARK  status: ('A' for Active; 'I' for Inactive)
REMARK    1  A    between atoms: N_14  and  C_4 
REMARK    2  A    between atoms: C_9  and  C_5 
ROOT
ATOM      1  C   UNL d   1     -48.658  13.643  22.987  0.00  0.00     0.060 A 
ATOM      2  C   UNL d   1     -48.638  12.855  23.229  0.00  0.00     0.197 A 
ATOM      3  C   UNL d   1     -47.960  14.065  22.857  0.00  0.00     0.043 A 
ATOM      4  C   UNL d   1     -49.383  14.031  22.867  0.00  0.00     0.090 A 
ATOM      5  C   UNL d   1     -49.403  14.820  22.624  0.00  0.00     0.082 A 
ATOM      6  C   UNL d   1     -47.224  13.712  22.967  0.00  0.00     0.196 A 
ATOM      7  C   UNL d   1     -47.901  12.500  23.338  0.00  0.00     0.042 A 
ATOM      8  C   UNL d   1     -47.203  12.923  23.209  0.00  0.00     0.042 A 
ATOM      9  C   UNL d   1     -47.993  14.873  22.609  0.00  0.00     0.004 A 
ATOM     10  C   UNL d   1     -48.756  15.212  22.504  0.00  0.00     0.008 A 
ATOM     11  O   UNL d   1     -49.342  12.454  23.351  0.00  0.00    -0.286 OA
ATOM     12  O   UNL d   1     -46.519  14.165  22.828  0.00  0.00    -0.287 OA
ATOM     13  C   UNL d   1     -47.865  11.689  23.588  0.00  0.00     0.003 A 
ATOM     14  C   UNL d   1     -46.451  12.546  23.326  0.00  0.00     0.003 A 
ATOM     15  C   UNL d   1     -46.430  11.757  23.568  0.00  0.00     0.000 A 
ATOM     16  C   UNL d   1     -47.128  11.334  23.697  0.00  0.00     0.000 A 
ENDROOT
BRANCH   5  17
ATOM     17  C   UNL d   1     -50.096  15.234  22.496  0.00  0.00     0.212 C 
ATOM     18  O   UNL d   1     -50.364  15.811  23.028  0.00  0.00    -0.644 OA
ATOM     19  O   UNL d   1     -50.567  15.100  21.833  0.00  0.00    -0.644 OA
ENDBRANCH   5  17
BRANCH   4  20
ATOM     20  N   UNL d   1     -50.115  13.621  22.992  0.00  0.00    -0.242 NA
ATOM     21  C   UNL d   1     -50.516  13.671  23.697  0.00  0.00     0.119 C 
ENDBRANCH   4  20
TORSDOF 2
ENDMDL
MODEL 2
REMARK VINA RESULT:      -9.7      1.264      3.321
REMARK  2 active torsions:
REMARK  status: ('A' for Active; 'I' for Inactive)
REMARK    1  A    between atoms: N_14  and  C_4 
REMARK    2  A    between atoms: C_9  and  C_5 
ROOT
ATOM      1  C   UNL d   1     -48.228  13.017  23.256  0.00  0.00     0.060 A 
ATOM      2  C   UNL d   1     -48.972  13.371  23.246  0.00  0.00     0.197 A 
ATOM      3  C   UNL d   1     -48.144  12.208  23.404  0.00  0.00     0.043 A 
ATOM      4  C   UNL d   1     -47.543  13.466  23.116  0.00  0.00     0.090 A 
ATOM      5  C   UNL d   1     -46.798  13.111  23.125  0.00  0.00     0.082 A 
ATOM      6  C   UNL d   1     -48.802  11.733  23.547  0.00  0.00     0.196 A 
ATOM      7  C   UNL d   1     -49.632  12.895  23.389  0.00  0.00     0.042 A 
ATOM      8  C   UNL d   1     -49.548  12.087  23.538  0.00  0.00     0.042 A 
ATOM      9  C   UNL d   1     -47.376  11.856  23.412  0.00  0.00     0.004 A 
ATOM     10  C   UNL d   1     -46.720  12.361  23.263  0.00  0.00     0.008 A 
ATOM     11  O   UNL d   1     -49.033  14.174  23.096  0.00  0.00    -0.286 OA
ATOM     12  O   UNL d   1     -48.693  10.904  23.698  0.00  0.00    -0.287 OA
ATOM     13  C   UNL d   1     -50.405  13.247  23.382  0.00  0.00     0.003 A 
ATOM     14  C   UNL d   1     -50.235  11.609  23.684  0.00  0.00     0.003 A 
ATOM     15  C   UNL d   1     -50.980  11.964  23.674  0.00  0.00     0.000 A 
ATOM     16  C   UNL d   1     -51.064  12.772  23.525  0.00  0.00     0.000 A 
ENDROOT
BRANCH   5  17
ATOM     17  C   UNL d   1     -46.103  13.520  22.992  0.00  0.00     0.212 C 
ATOM     18  O   UNL d   1     -45.669  13.427  22.291  0.00  0.00    -0.644 OA
ATOM     19  O   UNL d   1     -45.795  14.047  23.546  0.00  0.00    -0.644 OA
ENDBRANCH   5  17
BRANCH   4  20
ATOM     20  N   UNL d   1     -47.600  14.298  22.960  0.00  0.00    -0.242 NA
ATOM     21  C   UNL d   1     -47.669  14.586  22.203  0.00  0.00     0.119 C 
ENDBRANCH   4  20
TORSDOF 2
ENDMDL
MODEL 3
REMARK VINA RESULT:      -9.5      1.241      3.305
REMARK  2 active torsions:
REMARK  status: ('A' for Active; 'I' for Inactive)
REMARK    1  A    between atoms: N_14  and  C_4 
REMARK    2  A    between atoms: C_9  and  C_5 
ROOT
ATOM      1  C   UNL d   1     -48.213  13.446  22.534  0.00  0.00     0.060 A 
ATOM      2  C   UNL d   1     -48.879  12.985  22.385  0.00  0.00     0.197 A 
ATOM      3  C   UNL d   1     -48.264  14.270  22.558  0.00  0.00     0.043 A 
ATOM      4  C   UNL d   1     -47.473  13.092  22.664  0.00  0.00     0.090 A 
ATOM      5  C   UNL d   1     -46.805  13.555  22.814  0.00  0.00     0.082 A 
ATOM      6  C   UNL d   1     -48.982  14.655  22.434  0.00  0.00     0.196 A 
ATOM      7  C   UNL d   1     -49.599  13.369  22.260  0.00  0.00     0.042 A 
ATOM      8  C   UNL d   1     -49.650  14.193  22.284  0.00  0.00     0.042 A 
ATOM      9  C   UNL d   1     -47.574  14.733  22.712  0.00  0.00     0.004 A 
ATOM     10  C   UNL d   1     -46.852  14.319  22.836  0.00  0.00     0.008 A 
ATOM     11  O   UNL d   1     -48.807  12.169  22.365  0.00  0.00    -0.286 OA
ATOM     12  O   UNL d   1     -49.012  15.503  22.463  0.00  0.00    -0.287 OA
ATOM     13  C   UNL d   1     -50.294  12.906  22.105  0.00  0.00     0.003 A 
ATOM     14  C   UNL d   1     -50.397  14.576  22.154  0.00  0.00     0.003 A 
ATOM     15  C   UNL d   1     -51.064  14.114  22.005  0.00  0.00     0.000 A 
ATOM     16  C   UNL d   1     -51.014  13.290  21.980  0.00  0.00     0.000 A 
ENDROOT
BRANCH   5  17
ATOM     17  C   UNL d   1     -46.062  13.242  22.946  0.00  0.00     0.212 C 
ATOM     18  O   UNL d   1     -45.824  12.984  23.698  0.00  0.00    -0.644 OA
ATOM     19  O   UNL d   1     -45.508  13.165  22.341  0.00  0.00    -0.644 OA
ENDBRANCH   5  17
BRANCH   4  20
ATOM     20  N   UNL d   1     -47.391  12.248  22.645  0.00  0.00    -0.242 NA
ATOM     21  C   UNL d   1     -47.497  11.795  23.311  0.00  0.00     0.119 C 
ENDBRANCH   4  20
TORSDOF 2
ENDMDL
MODEL 4
REMARK VINA RESULT:      -9.3      0.942      1.957
REMARK  2 active torsions:
REMARK  status: ('A' for Active; 'I' for Inactive)
REMARK    1  A    between atoms: N_14  and  C_4 
REMARK    2  A    between atoms: C_9  and  C_5 
ROOT
ATOM      1  C   UNL d   1     -48.875  13.121  22.760  0.00  0.00     0.060 A 
ATOM      2  C   UNL d   1     -48.060  13.245  22.770  0.00  0.00     0.197 A 
ATOM      3  C   UNL d   1     -49.202  12.421  23.052  0.00  0.00     0.043 A 
ATOM      4  C   UNL d   1     -49.388  13.699  22.455  0.00  0.00     0.090 A 
ATOM      5  C   UNL d   1     -50.204  13.575  22.445  0.00  0.00     0.082 A 
ATOM      6  C   UNL d   1     -48.722  11.826  23.362  0.00  0.00     0.196 A 
ATOM      7  C   UNL d   1     -47.580  12.650  23.080  0.00  0.00     0.042 A 
ATOM      8  C   UNL d   1     -47.907  11.950  23.372  0.00  0.00     0.042 A 
ATOM      9  C   UNL d   1     -50.039  12.305  23.037  0.00  0.00     0.004 A 
ATOM     10  C   UNL d   1     -50.507  12.925  22.716  0.00  0.00     0.008 A 
ATOM     11  O   UNL d   1     -47.757  13.947  22.475  0.00  0.00    -0.286 OA
ATOM     12  O   UNL d   1     -49.079  11.114  23.657  0.00  0.00    -0.287 OA
ATOM     13  C   UNL d   1     -46.738  12.764  23.096  0.00  0.00     0.003 A 
ATOM     14  C   UNL d   1     -47.400  11.345  23.688  0.00  0.00     0.003 A 
ATOM     15  C   UNL d   1     -46.585  11.469  23.698  0.00  0.00     0.000 A 
ATOM     16  C   UNL d   1     -46.258  12.169  23.406  0.00  0.00     0.000 A 
ENDROOT
BRANCH   5  17
ATOM     17  C   UNL d   1     -50.739  14.120  22.154  0.00  0.00     0.212 C 
ATOM     18  O   UNL d   1     -50.986  14.109  21.362  0.00  0.00    -0.644 OA
ATOM     19  O   UNL d   1     -51.062  14.710  22.629  0.00  0.00    -0.644 OA
ENDBRANCH   5  17
BRANCH   4  20
ATOM     20  N   UNL d   1     -49.080  14.428  22.148  0.00  0.00    -0.242 NA
ATOM     21  C   UNL d   1     -48.983  15.082  22.622  0.00  0.00     0.119 C 
ENDBRANCH   4  20
TORSDOF 2
ENDMDL
MODEL 5
REMARK VINA RESULT:      -8.3      1.288      3.357
REMARK  2 active torsions:
REMARK  status: ('A' for Active; 'I' for Inactive)
REMARK    1  A    between atoms: N_14  and  C_4 
REMARK    2  A    between atoms: C_9  and  C_5 
ROOT
ATOM      1  C   UNL d   1     -49.220  13.199  22.994  0.00  0.00     0.060 A 
ATOM      2  C   UNL d   1     -49.989  13.471  23.116  0.00  0.00     0.197 A 
ATOM      3  C   UNL d   1     -48.587  13.726  22.935  0.00  0.00     0.043 A 
ATOM      4  C   UNL d   1     -49.065  12.385  22.927  0.00  0.00     0.090 A 
ATOM      5  C   UNL d   1     -48.295  12.113  22.805  0.00  0.00     0.082 A 
ATOM      6  C   UNL d   1     -48.705  14.540  22.996  0.00  0.00     0.196 A 
ATOM      7  C   UNL d   1     -50.108  14.286  23.178  0.00  0.00     0.042 A 
ATOM      8  C   UNL d   1     -49.474  14.813  23.118  0.00  0.00     0.042 A 
ATOM      9  C   UNL d   1     -47.804  13.435  22.809  0.00  0.00     0.004 A 
ATOM     10  C   UNL d   1     -47.708  12.602  22.750  0.00  0.00     0.008 A 
ATOM     11  O   UNL d   1     -50.602  12.931  23.172  0.00  0.00    -0.286 OA
ATOM     12  O   UNL d   1     -48.040  15.064  22.932  0.00  0.00    -0.287 OA
ATOM     13  C   UNL d   1     -50.894  14.580  23.304  0.00  0.00     0.003 A 
ATOM     14  C   UNL d   1     -49.611  15.649  23.184  0.00  0.00     0.003 A 
ATOM     15  C   UNL d   1     -50.380  15.922  23.306  0.00  0.00     0.000 A 
ATOM     16  C   UNL d   1     -51.013  15.395  23.365  0.00  0.00     0.000 A 
ENDROOT
BRANCH   5  17
ATOM     17  C   UNL d   1     -48.104  11.321  22.734  0.00  0.00     0.212 C 
ATOM     18  O   UNL d   1     -48.258  10.895  22.039  0.00  0.00    -0.644 OA
ATOM     19  O   UNL d   1     -47.749  10.903  23.349  0.00  0.00    -0.644 OA
ENDBRANCH   5  17
BRANCH   4  20
ATOM     20  N   UNL d   1     -49.696  11.821  22.984  0.00  0.00    -0.242 NA
ATOM     21  C   UNL d   1     -49.921  11.505  23.698  0.00  0.00     0.119 C 
ENDBRANCH   4  20
TORSDOF 2
ENDMDL
