MODEL 1
REMARK VINA RESULT:      20.9      0.000      0.000
REMARK  1 active torsions:
REMARK  status: ('A' for Active; 'I' for Inactive)
REMARK    1  A    between atoms: N_3  and  C_1 
ROOT
ATOM      1  C   UNL d   1      59.234  49.704  50.434  0.00  0.00     0.158 A 
ATOM      2  C   UNL d   1      59.520  49.705  51.211  0.00  0.00     0.103 A 
ATOM      3  C   UNL d   1      58.998  49.706  51.851  0.00  0.00     0.104 C 
ATOM      4  N   UNL d   1      58.473  49.707  52.484  0.00  0.00    -0.191 NA
ATOM      5  N   UNL d   1      59.762  49.703  49.800  0.00  0.00    -0.226 NA
ATOM      6  C   UNL d   1      60.334  49.705  51.350  0.00  0.00     0.015 A 
ATOM      7  C   UNL d   1      60.572  49.704  49.940  0.00  0.00     0.101 A 
ATOM      8  C   UNL d   1      60.859  49.705  50.717  0.00  0.00     0.021 A 
ENDROOT
BRANCH   1   9
ATOM      9  N   UNL d   1      58.424  49.704  50.298  0.00  0.00    -0.286 N 
ATOM     10  C   UNL d   1      58.138  49.708  49.521  0.00  0.00     0.102 A 
ATOM     11  C   UNL d   1      57.330  49.707  49.385  0.00  0.00     0.118 A 
ATOM     12  N   UNL d   1      56.803  49.703  50.013  0.00  0.00    -0.239 NA
ATOM     13  C   UNL d   1      57.088  49.699  50.786  0.00  0.00     0.118 A 
ATOM     14  C   UNL d   1      57.900  49.699  50.930  0.00  0.00     0.102 A 
ENDBRANCH   1   9
TORSDOF 1
ENDMDL
MODEL 2
REMARK VINA RESULT:      20.9      0.756      2.630
REMARK  1 active torsions:
REMARK  status: ('A' for Active; 'I' for Inactive)
REMARK    1  A    between atoms: N_3  and  C_1 
ROOT
ATOM      1  C   UNL d   1      57.884  49.663  50.043  0.00  0.00     0.158 A 
ATOM      2  C   UNL d   1      57.253  49.650  50.579  0.00  0.00     0.103 A 
ATOM      3  C   UNL d   1      57.393  49.638  51.393  0.00  0.00     0.104 C 
ATOM      4  N   UNL d   1      57.540  49.625  52.202  0.00  0.00    -0.191 NA
ATOM      5  N   UNL d   1      57.735  49.676  49.231  0.00  0.00    -0.226 NA
ATOM      6  C   UNL d   1      56.476  49.651  50.300  0.00  0.00     0.015 A 
ATOM      7  C   UNL d   1      56.960  49.676  48.955  0.00  0.00     0.101 A 
ATOM      8  C   UNL d   1      56.329  49.663  49.491  0.00  0.00     0.021 A 
ENDROOT
BRANCH   1   9
ATOM      9  N   UNL d   1      58.656  49.663  50.321  0.00  0.00    -0.286 N 
ATOM     10  C   UNL d   1      59.286  49.628  49.786  0.00  0.00     0.102 A 
ATOM     11  C   UNL d   1      60.057  49.628  50.065  0.00  0.00     0.118 A 
ATOM     12  N   UNL d   1      60.208  49.661  50.870  0.00  0.00    -0.239 NA
ATOM     13  C   UNL d   1      59.580  49.696  51.403  0.00  0.00     0.118 A 
ATOM     14  C   UNL d   1      58.802  49.697  51.129  0.00  0.00     0.102 A 
ENDBRANCH   1   9
TORSDOF 1
ENDMDL
MODEL 3
REMARK VINA RESULT:      21.5      1.176      3.046
REMARK  1 active torsions:
REMARK  status: ('A' for Active; 'I' for Inactive)
REMARK    1  A    between atoms: N_3  and  C_1 
ROOT
ATOM      1  C   UNL d   1      59.380  49.697  50.983  0.00  0.00     0.158 A 
ATOM      2  C   UNL d   1      59.545  49.699  50.171  0.00  0.00     0.103 A 
ATOM      3  C   UNL d   1      60.326  49.702  49.902  0.00  0.00     0.104 C 
ATOM      4  N   UNL d   1      61.105  49.705  49.640  0.00  0.00    -0.191 NA
ATOM      5  N   UNL d   1      58.597  49.694  51.244  0.00  0.00    -0.226 NA
ATOM      6  C   UNL d   1      58.926  49.697  49.625  0.00  0.00     0.015 A 
ATOM      7  C   UNL d   1      57.981  49.692  50.698  0.00  0.00     0.101 A 
ATOM      8  C   UNL d   1      58.146  49.694  49.887  0.00  0.00     0.021 A 
ENDROOT
BRANCH   1   9
ATOM      9  N   UNL d   1      59.996  49.699  51.524  0.00  0.00    -0.286 N 
ATOM     10  C   UNL d   1      60.780  49.692  51.257  0.00  0.00     0.102 A 
ATOM     11  C   UNL d   1      61.395  49.694  51.798  0.00  0.00     0.118 A 
ATOM     12  N   UNL d   1      61.240  49.702  52.603  0.00  0.00    -0.239 NA
ATOM     13  C   UNL d   1      60.460  49.708  52.870  0.00  0.00     0.118 A 
ATOM     14  C   UNL d   1      59.836  49.706  52.331  0.00  0.00     0.102 A 
ENDBRANCH   1   9
TORSDOF 1
ENDMDL
