MODEL 1
REMARK VINA RESULT:      -9.1      0.000      0.000
REMARK  2 active torsions:
REMARK  status: ('A' for Active; 'I' for Inactive)
REMARK       I    between atoms: N_2  and  C_1 
REMARK    1  A    between atoms: C_4  and  C_1 
REMARK    2  A    between atoms: C_3  and  N_2 
ROOT
ATOM      1  C   UNL d   1     -48.077  13.565  22.968  0.00  0.00     0.085 A 
ATOM      2  C   UNL d   1     -47.086  12.569  23.173  0.00  0.00     0.002 A 
ATOM      3  C   UNL d   1     -47.874  12.816  23.198  0.00  0.00     0.018 A 
ATOM      4  C   UNL d   1     -46.499  13.075  22.915  0.00  0.00     0.000 A 
ATOM      5  C   UNL d   1     -46.878  11.813  23.405  0.00  0.00     0.000 A 
ATOM      6  C   UNL d   1     -47.487  14.090  22.704  0.00  0.00     0.019 A 
ATOM      7  C   UNL d   1     -46.697  13.842  22.678  0.00  0.00     0.002 A 
ATOM      8  C   UNL d   1     -45.778  12.679  22.951  0.00  0.00     0.000 A 
ATOM      9  C   UNL d   1     -46.066  11.729  23.320  0.00  0.00     0.000 A 
ATOM     10  C   UNL d   1     -48.462  12.308  23.456  0.00  0.00     0.002 A 
ATOM     11  C   UNL d   1     -48.261  11.526  23.698  0.00  0.00     0.000 A 
ATOM     12  C   UNL d   1     -47.473  11.280  23.672  0.00  0.00     0.000 A 
ENDROOT
BRANCH   1  13
ATOM     13  N   UNL d   1     -48.858  13.809  22.993  0.00  0.00    -0.206 NA
ATOM     14  C   UNL d   1     -49.021  14.600  22.959  0.00  0.00     0.302 C 
ATOM     15  O   UNL d   1     -48.432  15.076  22.905  0.00  0.00    -0.263 OA
BRANCH  14  16
ATOM     16  C   UNL d   1     -49.787  14.913  22.980  0.00  0.00     0.158 A 
ATOM     17  O   UNL d   1     -50.368  14.744  22.428  0.00  0.00    -0.300 OA
ATOM     18  C   UNL d   1     -51.063  15.172  22.648  0.00  0.00     0.123 A 
ATOM     19  C   UNL d   1     -50.901  15.591  23.323  0.00  0.00     0.029 A 
ATOM     20  C   UNL d   1     -50.118  15.449  23.549  0.00  0.00     0.032 A 
ENDBRANCH  14  16
ENDBRANCH   1  13
TORSDOF 2
ENDMDL
MODEL 2
REMARK VINA RESULT:      -8.9      2.265      4.783
REMARK  2 active torsions:
REMARK  status: ('A' for Active; 'I' for Inactive)
REMARK       I    between atoms: N_2  and  C_1 
REMARK    1  A    between atoms: C_4  and  C_1 
REMARK    2  A    between atoms: C_3  and  N_2 
ROOT
ATOM      1  C   UNL d   1     -46.560  12.086  23.321  0.00  0.00     0.085 A 
ATOM      2  C   UNL d   1     -47.477  13.140  23.073  0.00  0.00     0.002 A 
ATOM      3  C   UNL d   1     -46.704  12.851  23.097  0.00  0.00     0.018 A 
ATOM      4  C   UNL d   1     -48.108  12.662  23.274  0.00  0.00     0.000 A 
ATOM      5  C   UNL d   1     -47.627  13.912  22.848  0.00  0.00     0.000 A 
ATOM      6  C   UNL d   1     -47.194  11.589  23.528  0.00  0.00     0.019 A 
ATOM      7  C   UNL d   1     -47.969  11.880  23.504  0.00  0.00     0.002 A 
ATOM      8  C   UNL d   1     -48.802  13.099  23.198  0.00  0.00     0.000 A 
ATOM      9  C   UNL d   1     -48.437  14.040  22.877  0.00  0.00     0.000 A 
ATOM     10  C   UNL d   1     -46.073  13.330  22.896  0.00  0.00     0.002 A 
ATOM     11  C   UNL d   1     -46.212  14.128  22.662  0.00  0.00     0.000 A 
ATOM     12  C   UNL d   1     -46.986  14.417  22.638  0.00  0.00     0.000 A 
ENDROOT
BRANCH   1  13
ATOM     13  N   UNL d   1     -45.793  11.799  23.345  0.00  0.00    -0.206 NA
ATOM     14  C   UNL d   1     -45.673  11.022  23.534  0.00  0.00     0.302 C 
ATOM     15  O   UNL d   1     -46.286  10.600  23.681  0.00  0.00    -0.263 OA
BRANCH  14  16
ATOM     16  C   UNL d   1     -44.925  10.670  23.576  0.00  0.00     0.158 A 
ATOM     17  O   UNL d   1     -44.219  11.081  23.514  0.00  0.00    -0.300 OA
ATOM     18  C   UNL d   1     -43.589  10.521  23.585  0.00  0.00     0.123 A 
ATOM     19  C   UNL d   1     -43.913   9.785  23.688  0.00  0.00     0.029 A 
ATOM     20  C   UNL d   1     -44.738   9.850  23.686  0.00  0.00     0.032 A 
ENDBRANCH  14  16
ENDBRANCH   1  13
TORSDOF 2
ENDMDL
MODEL 3
REMARK VINA RESULT:      -8.7      0.775      1.644
REMARK  2 active torsions:
REMARK  status: ('A' for Active; 'I' for Inactive)
REMARK       I    between atoms: N_2  and  C_1 
REMARK    1  A    between atoms: C_4  and  C_1 
REMARK    2  A    between atoms: C_3  and  N_2 
ROOT
ATOM      1  C   UNL d   1     -48.278  12.956  23.227  0.00  0.00     0.085 A 
ATOM      2  C   UNL d   1     -46.978  12.388  23.263  0.00  0.00     0.002 A 
ATOM      3  C   UNL d   1     -47.482  13.021  23.096  0.00  0.00     0.018 A 
ATOM      4  C   UNL d   1     -47.273  11.688  23.562  0.00  0.00     0.000 A 
ATOM      5  C   UNL d   1     -46.173  12.451  23.133  0.00  0.00     0.000 A 
ATOM      6  C   UNL d   1     -48.591  12.247  23.531  0.00  0.00     0.019 A 
ATOM      7  C   UNL d   1     -48.085  11.613  23.698  0.00  0.00     0.002 A 
ATOM      8  C   UNL d   1     -46.645  11.165  23.671  0.00  0.00     0.000 A 
ATOM      9  C   UNL d   1     -45.819  11.743  23.348  0.00  0.00     0.000 A 
ATOM     10  C   UNL d   1     -47.186  13.722  22.797  0.00  0.00     0.002 A 
ATOM     11  C   UNL d   1     -46.358  13.800  22.658  0.00  0.00     0.000 A 
ATOM     12  C   UNL d   1     -45.854  13.168  22.825  0.00  0.00     0.000 A 
ENDROOT
BRANCH   1  13
ATOM     13  N   UNL d   1     -48.778  13.583  23.061  0.00  0.00    -0.206 NA
ATOM     14  C   UNL d   1     -49.577  13.460  23.075  0.00  0.00     0.302 C 
ATOM     15  O   UNL d   1     -49.820  12.761  23.242  0.00  0.00    -0.263 OA
BRANCH  14  16
ATOM     16  C   UNL d   1     -50.136  14.050  22.917  0.00  0.00     0.158 A 
ATOM     17  O   UNL d   1     -50.556  14.110  22.216  0.00  0.00    -0.300 OA
ATOM     18  C   UNL d   1     -51.064  14.783  22.279  0.00  0.00     0.123 A 
ATOM     19  C   UNL d   1     -50.950  15.121  23.007  0.00  0.00     0.029 A 
ATOM     20  C   UNL d   1     -50.381  14.687  23.421  0.00  0.00     0.032 A 
ENDBRANCH  14  16
ENDBRANCH   1  13
TORSDOF 2
ENDMDL
MODEL 4
REMARK VINA RESULT:      -8.6      1.591      3.946
REMARK  2 active torsions:
REMARK  status: ('A' for Active; 'I' for Inactive)
REMARK       I    between atoms: N_2  and  C_1 
REMARK    1  A    between atoms: C_4  and  C_1 
REMARK    2  A    between atoms: C_3  and  N_2 
ROOT
ATOM      1  C   UNL d   1     -47.621  13.277  22.759  0.00  0.00     0.085 A 
ATOM      2  C   UNL d   1     -48.799  14.005  22.448  0.00  0.00     0.002 A 
ATOM      3  C   UNL d   1     -48.392  13.289  22.513  0.00  0.00     0.018 A 
ATOM      4  C   UNL d   1     -48.432  14.711  22.631  0.00  0.00     0.000 A 
ATOM      5  C   UNL d   1     -49.578  14.020  22.199  0.00  0.00     0.000 A 
ATOM      6  C   UNL d   1     -47.236  13.991  22.948  0.00  0.00     0.019 A 
ATOM      7  C   UNL d   1     -47.644  14.708  22.883  0.00  0.00     0.002 A 
ATOM      8  C   UNL d   1     -48.971  15.324  22.514  0.00  0.00     0.000 A 
ATOM      9  C   UNL d   1     -49.833  14.800  22.189  0.00  0.00     0.000 A 
ATOM     10  C   UNL d   1     -48.760  12.582  22.330  0.00  0.00     0.002 A 
ATOM     11  C   UNL d   1     -49.562  12.584  22.072  0.00  0.00     0.000 A 
ATOM     12  C   UNL d   1     -49.969  13.299  22.007  0.00  0.00     0.000 A 
ENDROOT
BRANCH   1  13
ATOM     13  N   UNL d   1     -47.217  12.567  22.824  0.00  0.00    -0.206 NA
ATOM     14  C   UNL d   1     -46.560  12.534  23.293  0.00  0.00     0.302 C 
ATOM     15  O   UNL d   1     -46.353  13.170  23.651  0.00  0.00    -0.263 OA
BRANCH  14  16
ATOM     16  C   UNL d   1     -46.107  11.849  23.401  0.00  0.00     0.158 A 
ATOM     17  O   UNL d   1     -45.308  11.794  23.230  0.00  0.00    -0.300 OA
ATOM     18  C   UNL d   1     -45.059  11.008  23.418  0.00  0.00     0.123 A 
ATOM     19  C   UNL d   1     -45.699  10.598  23.698  0.00  0.00     0.029 A 
ATOM     20  C   UNL d   1     -46.361  11.095  23.698  0.00  0.00     0.032 A 
ENDBRANCH  14  16
ENDBRANCH   1  13
TORSDOF 2
ENDMDL
MODEL 5
REMARK VINA RESULT:      -8.4      1.834      3.876
REMARK  2 active torsions:
REMARK  status: ('A' for Active; 'I' for Inactive)
REMARK       I    between atoms: N_2  and  C_1 
REMARK    1  A    between atoms: C_4  and  C_1 
REMARK    2  A    between atoms: C_3  and  N_2 
ROOT
ATOM      1  C   UNL d   1     -48.325  12.479  22.761  0.00  0.00     0.085 A 
ATOM      2  C   UNL d   1     -49.744  12.455  22.772  0.00  0.00     0.002 A 
ATOM      3  C   UNL d   1     -49.032  12.735  22.461  0.00  0.00     0.018 A 
ATOM      4  C   UNL d   1     -49.748  11.916  23.386  0.00  0.00     0.000 A 
ATOM      5  C   UNL d   1     -50.461  12.712  22.471  0.00  0.00     0.000 A 
ATOM      6  C   UNL d   1     -48.316  11.930  23.386  0.00  0.00     0.019 A 
ATOM      7  C   UNL d   1     -49.030  11.649  23.698  0.00  0.00     0.002 A 
ATOM      8  C   UNL d   1     -50.530  11.741  23.576  0.00  0.00     0.000 A 
ATOM      9  C   UNL d   1     -51.064  12.342  22.886  0.00  0.00     0.000 A 
ATOM     10  C   UNL d   1     -49.030  13.275  21.846  0.00  0.00     0.002 A 
ATOM     11  C   UNL d   1     -49.760  13.548  21.527  0.00  0.00     0.000 A 
ATOM     12  C   UNL d   1     -50.472  13.268  21.838  0.00  0.00     0.000 A 
ENDROOT
BRANCH   1  13
ATOM     13  N   UNL d   1     -47.619  12.757  22.452  0.00  0.00    -0.206 NA
ATOM     14  C   UNL d   1     -46.955  12.729  22.912  0.00  0.00     0.302 C 
ATOM     15  O   UNL d   1     -47.026  12.444  23.611  0.00  0.00    -0.263 OA
BRANCH  14  16
ATOM     16  C   UNL d   1     -46.211  12.994  22.662  0.00  0.00     0.158 A 
ATOM     17  O   UNL d   1     -45.567  12.502  22.535  0.00  0.00    -0.300 OA
ATOM     18  C   UNL d   1     -44.921  12.987  22.285  0.00  0.00     0.123 A 
ATOM     19  C   UNL d   1     -45.174  13.757  22.262  0.00  0.00     0.029 A 
ATOM     20  C   UNL d   1     -45.969  13.788  22.491  0.00  0.00     0.032 A 
ENDBRANCH  14  16
ENDBRANCH   1  13
TORSDOF 2
ENDMDL
