MODEL 1
REMARK VINA RESULT:      26.9      0.000      0.000
REMARK  4 active torsions:
REMARK  status: ('A' for Active; 'I' for Inactive)
REMARK    1  A    between atoms: N_2  and  C_1 
REMARK       I    between atoms: C_4  and  N_2 
REMARK    2  A    between atoms: C_11  and  C_4 
REMARK    3  A    between atoms: C_7  and  C_5 
REMARK    4  A    between atoms: C_9  and  C_7 
REMARK       I    between atoms: N_13  and  C_9 
ROOT
ATOM      1  C   UNL d   1     -58.226 -98.756 -45.505  0.00  0.00     0.197 A 
ATOM      2  N   UNL d   1     -58.581 -98.755 -46.241  0.00  0.00    -0.220 NA
ATOM      3  C   UNL d   1     -59.389 -98.756 -46.133  0.00  0.00     0.095 A 
ATOM      4  S   UNL d   1     -58.818 -98.758 -44.933  0.00  0.00    -0.046 SA
ATOM      5  C   UNL d   1     -59.539 -98.757 -45.320  0.00  0.00     0.058 A 
ENDROOT
BRANCH   1   6
ATOM      6  N   UNL d   1     -57.417 -98.756 -45.356  0.00  0.00    -0.183 NA
ATOM      7  C   UNL d   1     -57.136 -98.769 -44.579  0.00  0.00     0.281 C 
ATOM      8  O   UNL d   1     -57.678 -98.782 -43.952  0.00  0.00    -0.265 OA
BRANCH   7   9
ATOM      9  C   UNL d   1     -56.331 -98.769 -44.431  0.00  0.00     0.058 A 
ATOM     10  C   UNL d   1     -56.063 -98.778 -43.650  0.00  0.00     0.005 A 
ATOM     11  C   UNL d   1     -55.253 -98.778 -43.502  0.00  0.00     0.000 A 
ATOM     12  C   UNL d   1     -54.717 -98.769 -44.121  0.00  0.00     0.000 A 
ATOM     13  C   UNL d   1     -54.988 -98.759 -44.906  0.00  0.00     0.000 A 
ATOM     14  C   UNL d   1     -55.802 -98.759 -45.055  0.00  0.00     0.005 A 
ENDBRANCH   7   9
ENDBRANCH   1   6
BRANCH   3  15
ATOM     15  C   UNL d   1     -59.961 -98.755 -46.730  0.00  0.00     0.084 C 
BRANCH  15  16
ATOM     16  C   UNL d   1     -59.841 -99.201 -47.416  0.00  0.00     0.306 C 
ATOM     17  O   UNL d   1     -59.915-100.021 -47.389  0.00  0.00    -0.263 OA
ATOM     18  N   UNL d   1     -59.651 -98.822 -48.117  0.00  0.00    -0.053 NA
ATOM     19  O   UNL d   1     -59.530 -99.261 -48.808  0.00  0.00    -0.058 OA
ENDBRANCH  15  16
ENDBRANCH   3  15
TORSDOF 4
ENDMDL
MODEL 2
REMARK VINA RESULT:      26.9      4.499      6.380
REMARK  4 active torsions:
REMARK  status: ('A' for Active; 'I' for Inactive)
REMARK    1  A    between atoms: N_2  and  C_1 
REMARK       I    between atoms: C_4  and  N_2 
REMARK    2  A    between atoms: C_11  and  C_4 
REMARK    3  A    between atoms: C_7  and  C_5 
REMARK    4  A    between atoms: C_9  and  C_7 
REMARK       I    between atoms: N_13  and  C_9 
ROOT
ATOM      1  C   UNL d   1     -54.712-101.582 -42.186  0.00  0.00     0.197 A 
ATOM      2  N   UNL d   1     -54.712-101.654 -41.373  0.00  0.00    -0.220 NA
ATOM      3  C   UNL d   1     -54.712-102.448 -41.187  0.00  0.00     0.095 A 
ATOM      4  S   UNL d   1     -54.711-102.339 -42.512  0.00  0.00    -0.046 SA
ATOM      5  C   UNL d   1     -54.712-102.876 -41.894  0.00  0.00     0.058 A 
ENDROOT
BRANCH   1   6
ATOM      6  N   UNL d   1     -54.711-100.878 -42.612  0.00  0.00    -0.183 NA
ATOM      7  C   UNL d   1     -54.782-100.890 -43.436  0.00  0.00     0.281 C 
ATOM      8  O   UNL d   1     -54.853-101.617 -43.827  0.00  0.00    -0.265 OA
BRANCH   7   9
ATOM      9  C   UNL d   1     -54.782-100.189 -43.860  0.00  0.00     0.058 A 
ATOM     10  C   UNL d   1     -54.831-100.215 -44.683  0.00  0.00     0.005 A 
ATOM     11  C   UNL d   1     -54.831 -99.510 -45.108  0.00  0.00     0.000 A 
ATOM     12  C   UNL d   1     -54.782 -98.790 -44.720  0.00  0.00     0.000 A 
ATOM     13  C   UNL d   1     -54.733 -98.766 -43.892  0.00  0.00     0.000 A 
ATOM     14  C   UNL d   1     -54.734 -99.475 -43.464  0.00  0.00     0.005 A 
ENDBRANCH   7   9
ENDBRANCH   1   6
BRANCH   3  15
ATOM     15  C   UNL d   1     -54.713-102.771 -40.427  0.00  0.00     0.084 C 
BRANCH  15  16
ATOM     16  C   UNL d   1     -55.415-102.802 -39.992  0.00  0.00     0.306 C 
ATOM     17  O   UNL d   1     -56.139-102.834 -40.385  0.00  0.00    -0.263 OA
ATOM     18  N   UNL d   1     -55.386-102.800 -39.173  0.00  0.00    -0.053 NA
ATOM     19  O   UNL d   1     -56.085-102.831 -38.731  0.00  0.00    -0.058 OA
ENDBRANCH  15  16
ENDBRANCH   3  15
TORSDOF 4
ENDMDL
