MODEL 1
REMARK VINA RESULT:      23.9      0.000      0.000
REMARK  1 active torsions:
REMARK  status: ('A' for Active; 'I' for Inactive)
REMARK    1  A    between atoms: C_7  and  C_4 
ROOT
ATOM      1  N   UNL d   1      14.252  12.545  -3.631  0.00  0.00    -0.242 NA
ATOM      2  C   UNL d   1      13.150  11.971  -2.910  0.00  0.00     0.156 A 
ATOM      3  N   UNL d   1      12.782  11.786  -3.625  0.00  0.00    -0.231 NA
ATOM      4  C   UNL d   1      13.891  12.353  -2.913  0.00  0.00     0.110 A 
ATOM      5  C   UNL d   1      13.876  12.356  -4.342  0.00  0.00     0.099 A 
ATOM      6  C   UNL d   1      13.143  11.978  -4.334  0.00  0.00     0.100 A 
ATOM      7 CL   UNL d   1      12.792  11.780  -2.192  0.00  0.00    -0.060 Cl
ATOM      8  C   UNL d   1      14.234  12.547  -5.068  0.00  0.00     0.021 A 
ATOM      9  C   UNL d   1      12.769  11.789  -5.050  0.00  0.00     0.021 A 
ATOM     10  C   UNL d   1      13.126  11.979  -5.768  0.00  0.00     0.002 A 
ATOM     11  C   UNL d   1      13.859  12.358  -5.776  0.00  0.00     0.002 A 
ENDROOT
BRANCH   4  12
ATOM     12  C   UNL d   1      14.258  12.538  -2.206  0.00  0.00     0.020 A 
ATOM     13  C   UNL d   1      14.365  13.320  -1.988  0.00  0.00     0.002 A 
ATOM     14  C   UNL d   1      14.733  13.511  -1.280  0.00  0.00     0.000 A 
ATOM     15  C   UNL d   1      15.001  12.904  -0.776  0.00  0.00     0.000 A 
ATOM     16  C   UNL d   1      14.892  12.109  -0.999  0.00  0.00     0.000 A 
ATOM     17  C   UNL d   1      15.373  13.086  -0.061  0.00  0.00     0.000 C 
ATOM     18  C   UNL d   1      14.521  11.930  -1.713  0.00  0.00     0.002 A 
ENDBRANCH   4  12
TORSDOF 1
ENDMDL
