MODEL 1
REMARK VINA RESULT:      41.1      0.000      0.000
REMARK  3 active torsions:
REMARK  status: ('A' for Active; 'I' for Inactive)
REMARK    1  A    between atoms: S_9  and  C_3 
REMARK    2  A    between atoms: C_12  and  S_9 
REMARK    3  A    between atoms: C_14  and  C_12 
ROOT
ATOM      1  C   UNL d   1      13.459  13.948  -4.418  0.00  0.00     0.155 A 
ATOM      2  C   UNL d   1      13.799  14.003  -3.663  0.00  0.00     0.107 A 
ATOM      3  C   UNL d   1      13.570  12.607  -3.465  0.00  0.00     0.182 A 
ATOM      4  N   UNL d   1      13.234  12.550  -4.211  0.00  0.00    -0.250 N 
ATOM      5  N   UNL d   1      13.855  13.326  -3.184  0.00  0.00    -0.220 NA
ATOM      6  C   UNL d   1      13.178  13.226  -4.691  0.00  0.00     0.285 A 
ATOM      7  N   UNL d   1      13.478  14.698  -4.763  0.00  0.00    -0.239 NA
ATOM      8  C   UNL d   1      14.030  14.784  -3.538  0.00  0.00     0.037 A 
ATOM      9  C   UNL d   1      13.831  15.219  -4.222  0.00  0.00     0.083 A 
ATOM     10  O   UNL d   1      12.835  13.163  -5.447  0.00  0.00    -0.265 OA
ATOM     11  C   UNL d   1      12.949  11.819  -4.486  0.00  0.00     0.104 C 
ATOM     12  C   UNL d   1      14.392  15.162  -2.901  0.00  0.00     0.003 A 
ATOM     13  C   UNL d   1      13.997  16.031  -4.261  0.00  0.00     0.019 A 
ATOM     14  C   UNL d   1      14.558  15.973  -2.940  0.00  0.00     0.000 A 
ATOM     15  C   UNL d   1      14.361  16.403  -3.617  0.00  0.00     0.002 A 
ENDROOT
BRANCH   3  16
ATOM     16  S   UNL d   1      13.625  11.931  -2.989  0.00  0.00    -0.050 SA
BRANCH  16  17
ATOM     17  C   UNL d   1      14.225  11.866  -2.424  0.00  0.00     0.032 C 
ATOM     18  C   UNL d   1      15.013  11.818  -2.661  0.00  0.00     0.007 C 
BRANCH  17  19
ATOM     19  C   UNL d   1      14.017  11.849  -1.626  0.00  0.00     0.006 A 
ATOM     20  C   UNL d   1      13.225  11.803  -1.415  0.00  0.00     0.001 A 
ATOM     21  C   UNL d   1      13.000  11.785  -0.614  0.00  0.00     0.000 A 
ATOM     22  C   UNL d   1      13.579  11.814  -0.032  0.00  0.00     0.000 A 
ATOM     23  C   UNL d   1      14.374  11.859  -0.234  0.00  0.00     0.000 A 
ATOM     24  C   UNL d   1      14.592  11.877  -1.036  0.00  0.00     0.001 A 
ENDBRANCH  17  19
ENDBRANCH  16  17
ENDBRANCH   3  16
TORSDOF 3
ENDMDL
