MODEL 1
REMARK VINA RESULT:      24.3      0.000      0.000
REMARK  1 active torsions:
REMARK  status: ('A' for Active; 'I' for Inactive)
REMARK    1  A    between atoms: C_10  and  N_3 
ROOT
ATOM      1  C   UNL d   1      14.191  12.676  -1.710  0.00  0.00     0.166 A 
ATOM      2  C   UNL d   1      14.316  13.446  -1.966  0.00  0.00     0.117 A 
ATOM      3  N   UNL d   1      14.499  12.635  -0.941  0.00  0.00    -0.289 N 
ATOM      4  N   UNL d   1      13.820  12.112  -2.194  0.00  0.00    -0.225 NA
ATOM      5  N   UNL d   1      14.056  13.638  -2.729  0.00  0.00    -0.241 NA
ATOM      6  C   UNL d   1      14.686  13.867  -1.383  0.00  0.00     0.037 A 
ATOM      7  C   UNL d   1      14.800  13.362  -0.744  0.00  0.00     0.067 A 
ATOM      8  C   UNL d   1      13.572  12.317  -2.935  0.00  0.00     0.101 A 
ATOM      9  C   UNL d   1      13.695  13.093  -3.199  0.00  0.00     0.099 A 
ATOM     10  C   UNL d   1      14.941  14.650  -1.335  0.00  0.00     0.003 A 
ATOM     11  C   UNL d   1      15.170  13.639  -0.058  0.00  0.00     0.018 A 
ATOM     12  C   UNL d   1      13.448  13.306  -3.947  0.00  0.00     0.021 A 
ATOM     13  C   UNL d   1      13.212  11.779  -3.410  0.00  0.00     0.021 A 
ATOM     14  C   UNL d   1      15.310  14.931  -0.653  0.00  0.00     0.000 A 
ATOM     15  C   UNL d   1      15.425  14.426  -0.014  0.00  0.00     0.002 A 
ATOM     16  C   UNL d   1      13.072  12.761  -4.454  0.00  0.00     0.002 A 
ATOM     17  C   UNL d   1      12.960  12.008  -4.180  0.00  0.00     0.002 A 
ENDROOT
BRANCH   3  18
ATOM     18  C   UNL d   1      14.498  11.979  -0.471  0.00  0.00     0.082 C 
ATOM     19  C   UNL d   1      13.802  11.804  -0.027  0.00  0.00     0.021 C 
ENDBRANCH   3  18
TORSDOF 1
ENDMDL
