MODEL 1
REMARK VINA RESULT:      10.7      0.000      0.000
REMARK  7 active torsions:
REMARK  status: ('A' for Active; 'I' for Inactive)
REMARK    1  A    between atoms: C_12  and  C_3 
REMARK    2  A    between atoms: N_9  and  C_5 
REMARK    3  A    between atoms: C_17  and  N_9 
REMARK    4  A    between atoms: N_14  and  C_12 
REMARK    5  A    between atoms: C_18  and  N_14 
REMARK    6  A    between atoms: C_16  and  C_18 
REMARK    7  A    between atoms: C_19  and  C_17 
ROOT
ATOM      1  N   UNL d   1     -42.052-122.349 -50.368  0.00  0.00    -0.258 N 
ATOM      2  C   UNL d   1     -41.669-121.662 -50.639  0.00  0.00     0.270 A 
ATOM      3  C   UNL d   1     -41.501-121.559 -51.440  0.00  0.00     0.111 A 
ATOM      4  N   UNL d   1     -42.104-122.847 -51.715  0.00  0.00    -0.209 NA
ATOM      5  C   UNL d   1     -41.719-122.153 -51.979  0.00  0.00     0.170 A 
ATOM      6  C   UNL d   1     -42.266-122.933 -50.898  0.00  0.00     0.152 A 
ATOM      7  C   UNL d   1     -42.210-122.432 -49.572  0.00  0.00     0.084 A 
ATOM      8  C   UNL d   1     -42.645-123.617 -50.647  0.00  0.00     0.038 A 
ATOM      9  C   UNL d   1     -42.585-123.102 -49.302  0.00  0.00     0.018 A 
ATOM     10  C   UNL d   1     -42.802-123.696 -49.841  0.00  0.00     0.005 A 
ATOM     11  O   UNL d   1     -41.455-121.077 -50.109  0.00  0.00    -0.266 OA
ATOM     12  C   UNL d   1     -42.746-123.185 -48.483  0.00  0.00     0.002 C 
ENDROOT
BRANCH   3  13
ATOM     13  C   UNL d   1     -41.123-120.874 -51.684  0.00  0.00     0.107 C 
BRANCH  13  14
ATOM     14  N   UNL d   1     -41.525-120.157 -51.703  0.00  0.00    -0.242 NA
BRANCH  14  15
ATOM     15  C   UNL d   1     -41.123-119.454 -51.545  0.00  0.00     0.101 C 
BRANCH  15  16
ATOM     16  C   UNL d   1     -41.148-118.828 -52.070  0.00  0.00     0.038 A 
ATOM     17  C   UNL d   1     -41.194-118.047 -51.784  0.00  0.00     0.101 A 
ATOM     18  N   UNL d   1     -41.218-117.421 -52.309  0.00  0.00    -0.242 NA
ATOM     19  C   UNL d   1     -41.197-117.564 -53.128  0.00  0.00     0.099 A 
ATOM     20  C   UNL d   1     -41.152-118.321 -53.415  0.00  0.00     0.021 A 
ATOM     21  C   UNL d   1     -41.127-118.959 -52.881  0.00  0.00     0.005 A 
ENDBRANCH  15  16
ENDBRANCH  14  15
ENDBRANCH  13  14
ENDBRANCH   3  13
BRANCH   5  22
ATOM     22  N   UNL d   1     -41.570-122.093 -52.790  0.00  0.00    -0.225 NA
BRANCH  22  23
ATOM     23  C   UNL d   1     -41.641-122.750 -53.296  0.00  0.00     0.101 C 
BRANCH  23  24
ATOM     24  C   UNL d   1     -41.757-122.637 -54.104  0.00  0.00     0.019 A 
ATOM     25  C   UNL d   1     -41.277-123.001 -54.644  0.00  0.00     0.002 A 
ATOM     26  C   UNL d   1     -41.405-122.879 -55.457  0.00  0.00     0.000 A 
ATOM     27  C   UNL d   1     -42.010-122.395 -55.727  0.00  0.00     0.000 A 
ATOM     28  C   UNL d   1     -42.502-122.022 -55.168  0.00  0.00     0.000 A 
ATOM     29  C   UNL d   1     -42.381-122.139 -54.353  0.00  0.00     0.002 A 
ENDBRANCH  23  24
ENDBRANCH  22  23
ENDBRANCH   5  22
TORSDOF 7
ENDMDL
MODEL 2
REMARK VINA RESULT:      10.9      0.898      4.006
REMARK  7 active torsions:
REMARK  status: ('A' for Active; 'I' for Inactive)
REMARK    1  A    between atoms: C_12  and  C_3 
REMARK    2  A    between atoms: N_9  and  C_5 
REMARK    3  A    between atoms: C_17  and  N_9 
REMARK    4  A    between atoms: N_14  and  C_12 
REMARK    5  A    between atoms: C_18  and  N_14 
REMARK    6  A    between atoms: C_16  and  C_18 
REMARK    7  A    between atoms: C_19  and  C_17 
ROOT
ATOM      1  N   UNL d   1     -41.202-120.229 -51.648  0.00  0.00    -0.258 N 
ATOM      2  C   UNL d   1     -41.203-120.980 -51.287  0.00  0.00     0.270 A 
ATOM      3  C   UNL d   1     -41.240-121.667 -51.741  0.00  0.00     0.111 A 
ATOM      4  N   UNL d   1     -41.277-120.855 -52.938  0.00  0.00    -0.209 NA
ATOM      5  C   UNL d   1     -41.277-121.604 -52.568  0.00  0.00     0.170 A 
ATOM      6  C   UNL d   1     -41.239-120.168 -52.462  0.00  0.00     0.152 A 
ATOM      7  C   UNL d   1     -41.165-119.561 -51.181  0.00  0.00     0.084 A 
ATOM      8  C   UNL d   1     -41.239-119.436 -52.833  0.00  0.00     0.038 A 
ATOM      9  C   UNL d   1     -41.164-118.826 -51.529  0.00  0.00     0.018 A 
ATOM     10  C   UNL d   1     -41.201-118.763 -52.357  0.00  0.00     0.005 A 
ATOM     11  O   UNL d   1     -41.166-121.041 -50.472  0.00  0.00    -0.266 OA
ATOM     12  C   UNL d   1     -41.125-118.140 -51.047  0.00  0.00     0.002 C 
ENDROOT
BRANCH   3  13
ATOM     13  C   UNL d   1     -41.240-122.395 -51.364  0.00  0.00     0.107 C 
BRANCH  13  14
ATOM     14  N   UNL d   1     -41.847-122.602 -50.850  0.00  0.00    -0.242 NA
BRANCH  14  15
ATOM     15  C   UNL d   1     -41.883-123.365 -50.538  0.00  0.00     0.101 C 
BRANCH  15  16
ATOM     16  C   UNL d   1     -42.207-123.504 -49.800  0.00  0.00     0.038 A 
ATOM     17  C   UNL d   1     -43.029-123.609 -49.719  0.00  0.00     0.101 A 
ATOM     18  N   UNL d   1     -43.352-123.748 -48.982  0.00  0.00    -0.242 NA
ATOM     19  C   UNL d   1     -42.860-123.784 -48.312  0.00  0.00     0.099 A 
ATOM     20  C   UNL d   1     -42.058-123.683 -48.381  0.00  0.00     0.021 A 
ATOM     21  C   UNL d   1     -41.729-123.541 -49.132  0.00  0.00     0.005 A 
ENDBRANCH  15  16
ENDBRANCH  14  15
ENDBRANCH  13  14
ENDBRANCH   3  13
BRANCH   5  22
ATOM     22  N   UNL d   1     -41.316-122.267 -53.063  0.00  0.00    -0.225 NA
BRANCH  22  23
ATOM     23  C   UNL d   1     -41.126-122.218 -53.871  0.00  0.00     0.101 C 
BRANCH  23  24
ATOM     24  C   UNL d   1     -41.669-122.470 -54.438  0.00  0.00     0.019 A 
ATOM     25  C   UNL d   1     -42.065-123.170 -54.346  0.00  0.00     0.002 A 
ATOM     26  C   UNL d   1     -42.611-123.413 -54.926  0.00  0.00     0.000 A 
ATOM     27  C   UNL d   1     -42.758-122.957 -55.593  0.00  0.00     0.000 A 
ATOM     28  C   UNL d   1     -42.349-122.238 -55.683  0.00  0.00     0.000 A 
ATOM     29  C   UNL d   1     -41.801-121.988 -55.108  0.00  0.00     0.002 A 
ENDBRANCH  23  24
ENDBRANCH  22  23
ENDBRANCH   5  22
TORSDOF 7
ENDMDL
MODEL 3
REMARK VINA RESULT:      12.1      1.121      4.586
REMARK  7 active torsions:
REMARK  status: ('A' for Active; 'I' for Inactive)
REMARK    1  A    between atoms: C_12  and  C_3 
REMARK    2  A    between atoms: N_9  and  C_5 
REMARK    3  A    between atoms: C_17  and  N_9 
REMARK    4  A    between atoms: N_14  and  C_12 
REMARK    5  A    between atoms: C_18  and  N_14 
REMARK    6  A    between atoms: C_16  and  C_18 
REMARK    7  A    between atoms: C_19  and  C_17 
ROOT
ATOM      1  N   UNL d   1     -41.153-120.361 -51.794  0.00  0.00    -0.258 N 
ATOM      2  C   UNL d   1     -41.168-121.050 -52.259  0.00  0.00     0.270 A 
ATOM      3  C   UNL d   1     -41.176-121.797 -51.910  0.00  0.00     0.111 A 
ATOM      4  N   UNL d   1     -41.153-121.168 -50.606  0.00  0.00    -0.209 NA
ATOM      5  C   UNL d   1     -41.168-121.856 -51.081  0.00  0.00     0.170 A 
ATOM      6  C   UNL d   1     -41.145-120.418 -50.979  0.00  0.00     0.152 A 
ATOM      7  C   UNL d   1     -41.146-119.631 -52.159  0.00  0.00     0.084 A 
ATOM      8  C   UNL d   1     -41.130-119.749 -50.505  0.00  0.00     0.038 A 
ATOM      9  C   UNL d   1     -41.131-118.954 -51.708  0.00  0.00     0.018 A 
ATOM     10  C   UNL d   1     -41.123-119.013 -50.879  0.00  0.00     0.005 A 
ATOM     11  O   UNL d   1     -41.176-120.992 -53.075  0.00  0.00    -0.266 OA
ATOM     12  C   UNL d   1     -41.123-118.205 -52.086  0.00  0.00     0.002 C 
ENDROOT
BRANCH   3  13
ATOM     13  C   UNL d   1     -41.191-122.462 -52.388  0.00  0.00     0.107 C 
BRANCH  13  14
ATOM     14  N   UNL d   1     -41.208-122.390 -53.207  0.00  0.00    -0.242 NA
BRANCH  14  15
ATOM     15  C   UNL d   1     -41.495-123.009 -53.670  0.00  0.00     0.101 C 
BRANCH  15  16
ATOM     16  C   UNL d   1     -41.779-122.874 -54.425  0.00  0.00     0.038 A 
ATOM     17  C   UNL d   1     -41.254-122.657 -55.034  0.00  0.00     0.101 A 
ATOM     18  N   UNL d   1     -41.538-122.523 -55.788  0.00  0.00    -0.242 NA
ATOM     19  C   UNL d   1     -42.351-122.602 -55.948  0.00  0.00     0.099 A 
ATOM     20  C   UNL d   1     -42.869-122.813 -55.361  0.00  0.00     0.021 A 
ATOM     21  C   UNL d   1     -42.580-122.951 -54.592  0.00  0.00     0.005 A 
ENDBRANCH  15  16
ENDBRANCH  14  15
ENDBRANCH  13  14
ENDBRANCH   3  13
BRANCH   5  22
ATOM     22  N   UNL d   1     -41.175-122.583 -50.687  0.00  0.00    -0.225 NA
BRANCH  22  23
ATOM     23  C   UNL d   1     -41.874-122.894 -50.361  0.00  0.00     0.101 C 
BRANCH  23  24
ATOM     24  C   UNL d   1     -41.871-123.200 -49.595  0.00  0.00     0.019 A 
ATOM     25  C   UNL d   1     -41.186-123.474 -49.264  0.00  0.00     0.002 A 
ATOM     26  C   UNL d   1     -41.197-123.780 -48.490  0.00  0.00     0.000 A 
ATOM     27  C   UNL d   1     -41.890-123.812 -48.051  0.00  0.00     0.000 A 
ATOM     28  C   UNL d   1     -42.592-123.529 -48.396  0.00  0.00     0.000 A 
ATOM     29  C   UNL d   1     -42.591-123.221 -49.170  0.00  0.00     0.002 A 
ENDBRANCH  23  24
ENDBRANCH  22  23
ENDBRANCH   5  22
TORSDOF 7
ENDMDL
