MODEL 1
REMARK VINA RESULT:      84.7      0.000      0.000
REMARK  5 active torsions:
REMARK  status: ('A' for Active; 'I' for Inactive)
REMARK    1  A    between atoms: N_7  and  C_1 
REMARK    2  A    between atoms: S_6  and  C_2 
REMARK    3  A    between atoms: C_3  and  S_6 
REMARK    4  A    between atoms: C_13  and  N_5 
REMARK    5  A    between atoms: C_18  and  C_13 
ROOT
ATOM      1  C   UNL d   1     -58.137 -99.239 -44.438  0.00  0.00     0.232 A 
ATOM      2  C   UNL d   1     -57.861 -99.115 -43.677  0.00  0.00     0.139 A 
ATOM      3  N   UNL d   1     -58.959 -99.139 -44.441  0.00  0.00    -0.204 NA
ATOM      4  N   UNL d   1     -58.507 -98.937 -43.199  0.00  0.00    -0.282 N 
ATOM      5  C   UNL d   1     -59.188 -98.950 -43.665  0.00  0.00     0.150 A 
ATOM      6  C   UNL d   1     -59.955 -98.805 -43.414  0.00  0.00     0.041 C 
ENDROOT
BRANCH   2   7
ATOM      7  S   UNL d   1     -57.076 -99.159 -43.431  0.00  0.00    -0.029 SA
BRANCH   7   8
ATOM      8  C   UNL d   1     -56.577 -99.737 -43.744  0.00  0.00     0.181 A 
ATOM      9  N   UNL d   1     -56.619-100.551 -43.594  0.00  0.00    -0.221 NA
ATOM     10  C   UNL d   1     -56.022-100.920 -44.014  0.00  0.00     0.100 A 
ATOM     11  C   UNL d   1     -55.789-101.709 -44.086  0.00  0.00     0.021 A 
ATOM     12  C   UNL d   1     -55.601-100.343 -44.430  0.00  0.00     0.084 A 
ATOM     13  C   UNL d   1     -55.159-101.917 -44.554  0.00  0.00     0.002 A 
ATOM     14  C   UNL d   1     -54.744-101.334 -44.967  0.00  0.00     0.002 A 
ATOM     15  C   UNL d   1     -54.959-100.545 -44.909  0.00  0.00     0.019 A 
ATOM     16  N   UNL d   1     -55.948 -99.610 -44.260  0.00  0.00    -0.282 N 
ATOM     17  C   UNL d   1     -55.704 -98.879 -44.558  0.00  0.00     0.101 C 
ENDBRANCH   7   8
ENDBRANCH   2   7
BRANCH   1  18
ATOM     18  N   UNL d   1     -58.295 -99.385 -45.240  0.00  0.00    -0.093 N 
ATOM     19  O   UNL d   1     -58.938 -99.857 -45.453  0.00  0.00    -0.530 OA
ATOM     20  O   UNL d   1     -57.813 -99.063 -45.826  0.00  0.00    -0.530 OA
ENDBRANCH   1  18
BRANCH   4  21
ATOM     21  C   UNL d   1     -58.479 -98.772 -42.387  0.00  0.00     0.082 C 
BRANCH  21  22
ATOM     22  C   UNL d   1     -58.969 -99.190 -41.873  0.00  0.00     0.018 A 
ATOM     23  C   UNL d   1     -59.028-100.016 -41.924  0.00  0.00     0.002 A 
ATOM     24  C   UNL d   1     -59.515-100.429 -41.412  0.00  0.00     0.000 A 
ATOM     25  C   UNL d   1     -59.951-100.016 -40.840  0.00  0.00     0.000 A 
ATOM     26  C   UNL d   1     -59.896 -99.200 -40.786  0.00  0.00     0.000 A 
ATOM     27  C   UNL d   1     -59.403 -98.784 -41.303  0.00  0.00     0.002 A 
ENDBRANCH  21  22
ENDBRANCH   4  21
TORSDOF 5
ENDMDL
