MODEL 1
REMARK VINA RESULT:     127.8      0.000      0.000
REMARK  5 active torsions:
REMARK  status: ('A' for Active; 'I' for Inactive)
REMARK    1  A    between atoms: C_10  and  N_2 
REMARK    2  A    between atoms: C_11  and  N_4 
REMARK    3  A    between atoms: C_12  and  C_11 
REMARK       I    between atoms: N_16  and  C_12 
REMARK       I    between atoms: C_15  and  N_17 
REMARK    4  A    between atoms: C_22  and  N_16 
REMARK    5  A    between atoms: N_17  and  C_23 
ROOT
ATOM      1  C   UNL d   1      59.319  49.585  51.710  0.00  0.00     0.172 A 
ATOM      2  N   UNL d   1      60.713  49.563  52.064  0.00  0.00    -0.226 N 
ATOM      3  C   UNL d   1      60.901  49.472  51.246  0.00  0.00     0.342 A 
ATOM      4  N   UNL d   1      60.306  49.441  50.688  0.00  0.00    -0.252 N 
ATOM      5  C   UNL d   1      59.520  49.496  50.915  0.00  0.00     0.098 A 
ATOM      6  C   UNL d   1      59.921  49.618  52.283  0.00  0.00     0.292 A 
ATOM      7  O   UNL d   1      58.504  49.626  51.778  0.00  0.00    -0.301 OA
ATOM      8  C   UNL d   1      58.808  49.485  50.509  0.00  0.00     0.041 A 
ATOM      9  C   UNL d   1      58.198  49.565  51.047  0.00  0.00     0.102 A 
ATOM     10  O   UNL d   1      61.704  49.414  51.003  0.00  0.00    -0.245 OA
ATOM     11  O   UNL d   1      59.720  49.708  53.090  0.00  0.00    -0.264 OA
ATOM     12  C   UNL d   1      58.642  49.410  49.696  0.00  0.00     0.004 A 
ATOM     13  C   UNL d   1      57.411  49.571  50.786  0.00  0.00     0.025 A 
ATOM     14  C   UNL d   1      57.854  49.416  49.435  0.00  0.00     0.000 A 
ATOM     15  C   UNL d   1      57.256  49.497  49.986  0.00  0.00     0.002 A 
ENDROOT
BRANCH   4  16
ATOM     16  C   UNL d   1      60.495  49.351  49.871  0.00  0.00     0.147 C 
BRANCH  16  17
ATOM     17  C   UNL d   1      60.866  48.633  49.610  0.00  0.00     0.297 C 
ATOM     18  N   UNL d   1      60.959  48.017  50.128  0.00  0.00    -0.207 NA
ATOM     19  O   UNL d   1      61.125  48.579  48.828  0.00  0.00    -0.264 OA
BRANCH  18  20
ATOM     20  C   UNL d   1      61.314  47.332  49.876  0.00  0.00     0.085 A 
ATOM     21  C   UNL d   1      61.981  47.033  50.261  0.00  0.00     0.021 A 
ATOM     22  C   UNL d   1      62.336  46.342  50.004  0.00  0.00     0.021 A 
ATOM     23  C   UNL d   1      62.026  45.935  49.352  0.00  0.00     0.085 A 
ATOM     24  C   UNL d   1      61.354  46.230  48.957  0.00  0.00     0.021 A 
ATOM     25  C   UNL d   1      60.998  46.928  49.220  0.00  0.00     0.021 A 
BRANCH  23  26
ATOM     26  N   UNL d   1      62.383  45.237  49.089  0.00  0.00    -0.208 NA
ATOM     27  C   UNL d   1      61.947  44.527  49.084  0.00  0.00     0.279 C 
ATOM     28  O   UNL d   1      62.295  43.853  48.829  0.00  0.00    -0.265 OA
ATOM     29  C   UNL d   1      61.148  44.539  49.350  0.00  0.00     0.068 C 
ENDBRANCH  23  26
ENDBRANCH  18  20
ENDBRANCH  16  17
ENDBRANCH   4  16
BRANCH   2  30
ATOM     30  C   UNL d   1      61.309  49.597  52.644  0.00  0.00     0.071 A 
ATOM     31  C   UNL d   1      61.113  49.663  53.435  0.00  0.00     0.020 A 
ATOM     32  C   UNL d   1      61.692  49.697  54.009  0.00  0.00     0.031 A 
ATOM     33  C   UNL d   1      62.485  49.663  53.787  0.00  0.00     0.140 A 
ATOM     34  C   UNL d   1      62.692  49.597  53.008  0.00  0.00     0.031 A 
ATOM     35  F   UNL d   1      63.075  49.697  54.373  0.00  0.00    -0.204 F 
ATOM     36  C   UNL d   1      62.101  49.563  52.421  0.00  0.00     0.020 A 
ENDBRANCH   2  30
TORSDOF 5
ENDMDL
