MODEL 1
REMARK VINA RESULT:      61.5      0.000      0.000
REMARK  5 active torsions:
REMARK  status: ('A' for Active; 'I' for Inactive)
REMARK    1  A    between atoms: C_9  and  C_3 
REMARK    2  A    between atoms: C_8  and  C_4 
REMARK    3  A    between atoms: C_11  and  C_8 
REMARK    4  A    between atoms: O_16  and  C_9 
REMARK    5  A    between atoms: C_18  and  C_11 
ROOT
ATOM      1  N   UNL d   1      60.240  49.318  50.254  0.00  0.00    -0.254 N 
ATOM      2  C   UNL d   1      61.042  49.125  50.245  0.00  0.00     0.182 A 
ATOM      3  C   UNL d   1      60.214  49.142  51.668  0.00  0.00     0.097 A 
ATOM      4  C   UNL d   1      59.822  49.328  50.963  0.00  0.00     0.075 A 
ATOM      5  N   UNL d   1      61.426  48.941  50.949  0.00  0.00    -0.222 NA
ATOM      6  C   UNL d   1      61.016  48.949  51.663  0.00  0.00     0.090 A 
ATOM      7  C   UNL d   1      59.856  49.502  49.549  0.00  0.00     0.267 A 
ATOM      8  S   UNL d   1      61.460  49.115  49.539  0.00  0.00    -0.049 SA
ATOM      9  C   UNL d   1      60.274  49.492  48.840  0.00  0.00     0.068 A 
ATOM     10  O   UNL d   1      59.054  49.696  49.553  0.00  0.00    -0.267 OA
ATOM     11  C   UNL d   1      61.076  49.299  48.835  0.00  0.00     0.043 A 
ATOM     12  C   UNL d   1      61.405  48.764  52.363  0.00  0.00     0.021 C 
ENDROOT
BRANCH   4  13
ATOM     13  C   UNL d   1      59.020  49.521  50.967  0.00  0.00     0.018 C 
BRANCH  13  14
ATOM     14  C   UNL d   1      58.633  49.656  50.250  0.00  0.00     0.002 C 
BRANCH  14  15
ATOM     15  C   UNL d   1      57.809  49.623  50.220  0.00  0.00     0.000 A 
ATOM     16  C   UNL d   1      57.420  49.700  49.500  0.00  0.00     0.000 A 
ATOM     17  C   UNL d   1      56.596  49.667  49.474  0.00  0.00     0.000 A 
ATOM     18  C   UNL d   1      56.165  49.555  50.167  0.00  0.00     0.000 A 
ATOM     19  C   UNL d   1      56.559  49.478  50.886  0.00  0.00     0.000 A 
ATOM     20  C   UNL d   1      57.383  49.512  50.912  0.00  0.00     0.000 A 
ENDBRANCH  14  15
ENDBRANCH  13  14
ENDBRANCH   4  13
BRANCH   3  21
ATOM     21  C   UNL d   1      59.801  49.151  52.376  0.00  0.00     0.299 C 
ATOM     22  O   UNL d   1      59.198  48.605  52.516  0.00  0.00    -0.259 OA
BRANCH  21  23
ATOM     23  O   UNL d   1      59.984  49.706  52.956  0.00  0.00    -0.296 OA
ATOM     24  C   UNL d   1      60.155  49.469  53.728  0.00  0.00     0.185 C 
ENDBRANCH  21  23
ENDBRANCH   3  21
TORSDOF 5
ENDMDL
