MODEL 1
REMARK VINA RESULT:       1.7      0.000      0.000
REMARK  5 active torsions:
REMARK  status: ('A' for Active; 'I' for Inactive)
REMARK    1  A    between atoms: C_11  and  N_1 
REMARK    2  A    between atoms: C_15  and  C_3 
REMARK    3  A    between atoms: N_4  and  C_7 
REMARK    4  A    between atoms: C_9  and  C_10 
REMARK       I    between atoms: C_10  and  N_12 
REMARK    5  A    between atoms: N_12  and  C_15 
ROOT
ATOM      1  C   UNL d   1     -41.972-122.468 -51.598  0.00  0.00     0.141 C 
ENDROOT
BRANCH   1   2
ATOM      2  N   UNL d   1     -41.748-122.704 -50.839  0.00  0.00    -0.203 NA
ATOM      3  C   UNL d   1     -42.328-122.956 -50.302  0.00  0.00     0.279 C 
ATOM      4  O   UNL d   1     -43.106-122.968 -50.522  0.00  0.00    -0.265 OA
BRANCH   3   5
ATOM      5  C   UNL d   1     -42.097-123.192 -49.539  0.00  0.00     0.059 A 
ATOM      6  C   UNL d   1     -42.606-123.065 -48.900  0.00  0.00     0.027 A 
ATOM      7  C   UNL d   1     -42.378-123.297 -48.157  0.00  0.00     0.127 A 
ATOM      8  C   UNL d   1     -43.334-122.705 -49.036  0.00  0.00     0.002 C 
ATOM      9  C   UNL d   1     -41.639-123.661 -48.026  0.00  0.00     0.024 A 
ATOM     10  C   UNL d   1     -41.126-123.791 -48.655  0.00  0.00     0.002 A 
ATOM     11  C   UNL d   1     -41.353-123.560 -49.402  0.00  0.00     0.005 A 
BRANCH   7  12
ATOM     12  N   UNL d   1     -42.889-123.166 -47.532  0.00  0.00    -0.114 N 
ATOM     13  O   UNL d   1     -42.910-122.434 -47.146  0.00  0.00    -0.532 OA
ATOM     14  O   UNL d   1     -43.397-123.774 -47.276  0.00  0.00    -0.532 OA
ENDBRANCH   7  12
ENDBRANCH   3   5
ENDBRANCH   1   2
BRANCH   1  15
ATOM     15  C   UNL d   1     -41.694-121.753 -51.907  0.00  0.00     0.191 A 
ATOM     16  N   UNL d   1     -41.598-121.564 -52.702  0.00  0.00    -0.264 N 
ATOM     17  C   UNL d   1     -41.311-120.801 -52.764  0.00  0.00     0.227 A 
ATOM     18  N   UNL d   1     -41.222-120.498 -51.991  0.00  0.00    -0.117 NA
ATOM     19  S   UNL d   1     -41.137-120.395 -53.458  0.00  0.00    -0.036 SA
ATOM     20  N   UNL d   1     -41.461-121.091 -51.458  0.00  0.00    -0.126 NA
BRANCH  16  21
ATOM     21  C   UNL d   1     -41.767-122.069 -53.338  0.00  0.00     0.068 A 
ATOM     22  C   UNL d   1     -41.173-122.564 -53.630  0.00  0.00     0.020 A 
ATOM     23  C   UNL d   1     -41.352-123.062 -54.263  0.00  0.00     0.031 A 
ATOM     24  C   UNL d   1     -42.102-123.073 -54.603  0.00  0.00     0.140 A 
ATOM     25  C   UNL d   1     -42.689-122.570 -54.299  0.00  0.00     0.031 A 
ATOM     26  F   UNL d   1     -42.268-123.570 -55.230  0.00  0.00    -0.204 F 
ATOM     27  C   UNL d   1     -42.521-122.068 -53.666  0.00  0.00     0.020 A 
ENDBRANCH  16  21
ENDBRANCH   1  15
TORSDOF 5
ENDMDL
MODEL 2
REMARK VINA RESULT:       3.4      2.657      5.172
REMARK  5 active torsions:
REMARK  status: ('A' for Active; 'I' for Inactive)
REMARK    1  A    between atoms: C_11  and  N_1 
REMARK    2  A    between atoms: C_15  and  C_3 
REMARK    3  A    between atoms: N_4  and  C_7 
REMARK    4  A    between atoms: C_9  and  C_10 
REMARK       I    between atoms: C_10  and  N_12 
REMARK    5  A    between atoms: N_12  and  C_15 
ROOT
ATOM      1  C   UNL d   1     -41.913-122.491 -51.408  0.00  0.00     0.141 C 
ENDROOT
BRANCH   1   2
ATOM      2  N   UNL d   1     -41.828-122.815 -52.164  0.00  0.00    -0.203 NA
ATOM      3  C   UNL d   1     -41.785-122.311 -52.822  0.00  0.00     0.279 C 
ATOM      4  O   UNL d   1     -41.827-121.510 -52.721  0.00  0.00    -0.265 OA
BRANCH   3   5
ATOM      5  C   UNL d   1     -41.700-122.642 -53.580  0.00  0.00     0.059 A 
ATOM      6  C   UNL d   1     -41.950-122.216 -54.242  0.00  0.00     0.027 A 
ATOM      7  C   UNL d   1     -41.866-122.541 -54.980  0.00  0.00     0.127 A 
ATOM      8  C   UNL d   1     -42.280-121.469 -54.134  0.00  0.00     0.002 C 
ATOM      9  C   UNL d   1     -41.532-123.298 -55.083  0.00  0.00     0.024 A 
ATOM     10  C   UNL d   1     -41.280-123.729 -54.430  0.00  0.00     0.002 A 
ATOM     11  C   UNL d   1     -41.363-123.405 -53.688  0.00  0.00     0.005 A 
BRANCH   7  12
ATOM     12  N   UNL d   1     -42.117-122.110 -55.629  0.00  0.00    -0.114 N 
ATOM     13  O   UNL d   1     -41.676-121.468 -55.909  0.00  0.00    -0.532 OA
ATOM     14  O   UNL d   1     -42.824-122.317 -56.017  0.00  0.00    -0.532 OA
ENDBRANCH   7  12
ENDBRANCH   3   5
ENDBRANCH   1   2
BRANCH   1  15
ATOM     15  C   UNL d   1     -41.794-122.965 -50.741  0.00  0.00     0.191 A 
ATOM     16  N   UNL d   1     -42.307-123.056 -50.105  0.00  0.00    -0.264 N 
ATOM     17  C   UNL d   1     -41.976-123.574 -49.564  0.00  0.00     0.227 A 
ATOM     18  N   UNL d   1     -41.237-123.817 -49.864  0.00  0.00    -0.117 NA
ATOM     19  S   UNL d   1     -42.305-123.817 -48.852  0.00  0.00    -0.036 SA
ATOM     20  N   UNL d   1     -41.123-123.438 -50.597  0.00  0.00    -0.126 NA
BRANCH  16  21
ATOM     21  C   UNL d   1     -43.043-122.681 -50.025  0.00  0.00     0.068 A 
ATOM     22  C   UNL d   1     -43.071-121.897 -49.764  0.00  0.00     0.020 A 
ATOM     23  C   UNL d   1     -43.808-121.534 -49.688  0.00  0.00     0.031 A 
ATOM     24  C   UNL d   1     -44.505-121.935 -49.866  0.00  0.00     0.140 A 
ATOM     25  C   UNL d   1     -44.461-122.722 -50.126  0.00  0.00     0.031 A 
ATOM     26  F   UNL d   1     -45.230-121.566 -49.787  0.00  0.00    -0.204 F 
ATOM     27  C   UNL d   1     -43.729-123.095 -50.206  0.00  0.00     0.020 A 
ENDBRANCH  16  21
ENDBRANCH   1  15
TORSDOF 5
ENDMDL
