MODEL 1
REMARK VINA RESULT:      10.2      0.000      0.000
REMARK  9 active torsions:
REMARK  status: ('A' for Active; 'I' for Inactive)
REMARK    1  A    between atoms: N_2  and  C_1 
REMARK    2  A    between atoms: N_3  and  C_5 
REMARK    3  A    between atoms: N_16  and  C_6 
REMARK    4  A    between atoms: C_11  and  C_18 
REMARK    5  A    between atoms: O_14  and  C_11 
REMARK    6  A    between atoms: C_17  and  O_14 
REMARK    7  A    between atoms: C_19  and  N_16 
REMARK    8  A    between atoms: C_18  and  C_20 
REMARK    9  A    between atoms: C_20  and  C_19 
ROOT
ATOM      1  C   UNL d   1      45.001 -14.556  44.652  0.00  0.00     0.146 A 
ATOM      2  C   UNL d   1      45.080 -13.743  44.534  0.00  0.00     0.049 A 
ATOM      3  C   UNL d   1      45.801 -13.384  44.599  0.00  0.00     0.128 A 
ATOM      4  C   UNL d   1      45.643 -15.012  44.834  0.00  0.00     0.103 A 
ATOM      5  C   UNL d   1      46.487 -13.843  44.789  0.00  0.00     0.025 A 
ATOM      6  C   UNL d   1      46.387 -14.654  44.902  0.00  0.00     0.022 A 
ENDROOT
BRANCH   4   7
ATOM      7  N   UNL d   1      45.563 -15.840  44.953  0.00  0.00    -0.242 NA
BRANCH   7   8
ATOM      8  C   UNL d   1      46.188 -16.338  44.834  0.00  0.00     0.099 C 
BRANCH   8   9
ATOM      9  C   UNL d   1      46.109 -17.147  44.950  0.00  0.00     0.026 C 
BRANCH   9  10
ATOM     10  C   UNL d   1      46.560 -17.675  44.500  0.00  0.00     0.070 C 
BRANCH  10  11
ATOM     11  C   UNL d   1      46.232 -18.391  44.253  0.00  0.00     0.300 C 
ATOM     12  O   UNL d   1      45.951 -18.925  44.813  0.00  0.00    -0.259 OA
BRANCH  11  13
ATOM     13  O   UNL d   1      46.191 -18.563  43.448  0.00  0.00    -0.273 OA
BRANCH  13  14
ATOM     14  C   UNL d   1      46.445 -19.293  43.152  0.00  0.00     0.103 C 
ATOM     15  C   UNL d   1      46.634 -19.890  43.691  0.00  0.00     0.027 C 
ATOM     16  C   UNL d   1      46.511 -19.429  42.340  0.00  0.00     0.027 C 
ENDBRANCH  13  14
ENDBRANCH  11  13
ENDBRANCH  10  11
ENDBRANCH   9  10
ENDBRANCH   8   9
ENDBRANCH   7   8
ENDBRANCH   4   7
BRANCH   1  17
ATOM     17  N   UNL d   1      44.235 -14.928  44.582  0.00  0.00    -0.112 N 
ATOM     18  O   UNL d   1      44.104 -15.689  44.910  0.00  0.00    -0.532 OA
ATOM     19  O   UNL d   1      43.622 -14.535  44.189  0.00  0.00    -0.532 OA
ENDBRANCH   1  17
BRANCH   3  20
ATOM     20  N   UNL d   1      45.862 -12.574  44.479  0.00  0.00    -0.114 N 
ATOM     21  O   UNL d   1      46.480 -12.157  44.813  0.00  0.00    -0.532 OA
ATOM     22  O   UNL d   1      45.289 -12.199  44.017  0.00  0.00    -0.532 OA
ENDBRANCH   3  20
TORSDOF 9
ENDMDL
