MODEL 1
REMARK VINA RESULT:      -9.0      0.000      0.000
REMARK  5 active torsions:
REMARK  status: ('A' for Active; 'I' for Inactive)
REMARK    1  A    between atoms: O_2  and  S_1 
REMARK    2  A    between atoms: C_3  and  S_1 
REMARK    3  A    between atoms: C_6  and  O_2 
REMARK    4  A    between atoms: O_17  and  C_14 
REMARK    5  A    between atoms: C_20  and  O_17 
ROOT
ATOM      1  S   UNL d   1      52.962  32.640  53.015  0.00  0.00     0.304 S 
ATOM      2  O   UNL d   1      53.155  32.879  53.778  0.00  0.00    -0.193 OA
ATOM      3  O   UNL d   1      52.769  32.401  52.252  0.00  0.00    -0.193 OA
ENDROOT
BRANCH   1   4
ATOM      4  O   UNL d   1      52.841  33.424  52.800  0.00  0.00    -0.227 OA
BRANCH   4   5
ATOM      5  C   UNL d   1      52.093  33.761  52.874  0.00  0.00     0.114 A 
ATOM      6  C   UNL d   1      51.590  33.809  52.217  0.00  0.00     0.026 A 
ATOM      7  C   UNL d   1      50.845  34.145  52.293  0.00  0.00     0.002 A 
ATOM      8  C   UNL d   1      50.346  34.192  51.638  0.00  0.00     0.000 A 
ATOM      9  C   UNL d   1      50.593  34.437  53.028  0.00  0.00     0.000 A 
ATOM     10  C   UNL d   1      49.593  34.530  51.711  0.00  0.00     0.000 A 
ATOM     11  C   UNL d   1      49.341  34.822  52.445  0.00  0.00     0.000 A 
ATOM     12  C   UNL d   1      49.843  34.775  53.102  0.00  0.00     0.000 A 
ATOM     13  C   UNL d   1      51.087  34.392  53.681  0.00  0.00     0.002 A 
ATOM     14  C   UNL d   1      51.841  34.053  53.609  0.00  0.00     0.026 A 
ENDBRANCH   4   5
ENDBRANCH   1   4
BRANCH   1  15
ATOM     15  C   UNL d   1      53.083  31.855  53.230  0.00  0.00     0.111 A 
ATOM     16  C   UNL d   1      52.669  31.251  52.848  0.00  0.00     0.015 A 
ATOM     17  C   UNL d   1      52.790  30.466  53.063  0.00  0.00     0.025 A 
ATOM     18  C   UNL d   1      53.327  30.274  53.663  0.00  0.00     0.100 A 
ATOM     19  C   UNL d   1      53.739  30.881  54.042  0.00  0.00     0.025 A 
ATOM     20  C   UNL d   1      53.618  31.666  53.827  0.00  0.00     0.015 A 
BRANCH  18  21
ATOM     21  O   UNL d   1      53.448  29.489  53.878  0.00  0.00    -0.305 OA
BRANCH  21  22
ATOM     22  C   UNL d   1      53.291  29.245  54.646  0.00  0.00     0.123 C 
ATOM     23  C   UNL d   1      53.449  28.469  54.872  0.00  0.00     0.029 C 
ENDBRANCH  21  22
ENDBRANCH  18  21
ENDBRANCH   1  15
TORSDOF 5
ENDMDL
MODEL 2
REMARK VINA RESULT:      -8.8      1.072      4.689
REMARK  5 active torsions:
REMARK  status: ('A' for Active; 'I' for Inactive)
REMARK    1  A    between atoms: O_2  and  S_1 
REMARK    2  A    between atoms: C_3  and  S_1 
REMARK    3  A    between atoms: C_6  and  O_2 
REMARK    4  A    between atoms: O_17  and  C_14 
REMARK    5  A    between atoms: C_20  and  O_17 
ROOT
ATOM      1  S   UNL d   1      52.335  33.539  52.830  0.00  0.00     0.304 S 
ATOM      2  O   UNL d   1      52.223  33.193  52.091  0.00  0.00    -0.193 OA
ATOM      3  O   UNL d   1      52.446  33.883  53.567  0.00  0.00    -0.193 OA
ENDROOT
BRANCH   1   4
ATOM      4  O   UNL d   1      53.092  33.221  52.864  0.00  0.00    -0.227 OA
BRANCH   4   5
ATOM      5  C   UNL d   1      53.215  32.486  53.216  0.00  0.00     0.114 A 
ATOM      6  C   UNL d   1      52.950  31.795  52.842  0.00  0.00     0.026 A 
ATOM      7  C   UNL d   1      53.073  31.064  53.195  0.00  0.00     0.002 A 
ATOM      8  C   UNL d   1      52.808  30.377  52.821  0.00  0.00     0.000 A 
ATOM      9  C   UNL d   1      53.463  31.014  53.925  0.00  0.00     0.000 A 
ATOM     10  C   UNL d   1      52.931  29.638  53.173  0.00  0.00     0.000 A 
ATOM     11  C   UNL d   1      53.321  29.588  53.904  0.00  0.00     0.000 A 
ATOM     12  C   UNL d   1      53.585  30.278  54.277  0.00  0.00     0.000 A 
ATOM     13  C   UNL d   1      53.727  31.696  54.299  0.00  0.00     0.002 A 
ATOM     14  C   UNL d   1      53.605  32.436  53.947  0.00  0.00     0.026 A 
ENDBRANCH   4   5
ENDBRANCH   1   4
BRANCH   1  15
ATOM     15  C   UNL d   1      51.576  33.857  52.795  0.00  0.00     0.111 A 
ATOM     16  C   UNL d   1      51.258  34.094  52.071  0.00  0.00     0.015 A 
ATOM     17  C   UNL d   1      50.500  34.412  52.036  0.00  0.00     0.025 A 
ATOM     18  C   UNL d   1      50.050  34.497  52.726  0.00  0.00     0.100 A 
ATOM     19  C   UNL d   1      50.372  34.259  53.447  0.00  0.00     0.025 A 
ATOM     20  C   UNL d   1      51.130  33.941  53.482  0.00  0.00     0.015 A 
BRANCH  18  21
ATOM     21  O   UNL d   1      49.291  34.815  52.691  0.00  0.00    -0.305 OA
BRANCH  21  22
ATOM     22  C   UNL d   1      49.072  35.413  53.210  0.00  0.00     0.123 C 
ATOM     23  C   UNL d   1      48.342  35.783  53.127  0.00  0.00     0.029 C 
ENDBRANCH  21  22
ENDBRANCH  18  21
ENDBRANCH   1  15
TORSDOF 5
ENDMDL
MODEL 3
REMARK VINA RESULT:      -8.7      1.741      4.715
REMARK  5 active torsions:
REMARK  status: ('A' for Active; 'I' for Inactive)
REMARK    1  A    between atoms: O_2  and  S_1 
REMARK    2  A    between atoms: C_3  and  S_1 
REMARK    3  A    between atoms: C_6  and  O_2 
REMARK    4  A    between atoms: O_17  and  C_14 
REMARK    5  A    between atoms: C_20  and  O_17 
ROOT
ATOM      1  S   UNL d   1      52.074  32.830  53.010  0.00  0.00     0.304 S 
ATOM      2  O   UNL d   1      51.681  32.637  53.708  0.00  0.00    -0.193 OA
ATOM      3  O   UNL d   1      52.466  33.023  52.314  0.00  0.00    -0.193 OA
ENDROOT
BRANCH   1   4
ATOM      4  O   UNL d   1      52.688  32.323  53.216  0.00  0.00    -0.227 OA
BRANCH   4   5
ATOM      5  C   UNL d   1      53.380  32.627  53.544  0.00  0.00     0.114 A 
ATOM      6  C   UNL d   1      53.398  32.859  54.339  0.00  0.00     0.026 A 
ATOM      7  C   UNL d   1      54.088  33.161  54.665  0.00  0.00     0.002 A 
ATOM      8  C   UNL d   1      54.104  33.392  55.457  0.00  0.00     0.000 A 
ATOM      9  C   UNL d   1      54.771  33.235  54.198  0.00  0.00     0.000 A 
ATOM     10  C   UNL d   1      54.798  33.697  55.788  0.00  0.00     0.000 A 
ATOM     11  C   UNL d   1      55.481  33.771  55.322  0.00  0.00     0.000 A 
ATOM     12  C   UNL d   1      55.464  33.539  54.527  0.00  0.00     0.000 A 
ATOM     13  C   UNL d   1      54.758  33.006  53.410  0.00  0.00     0.002 A 
ATOM     14  C   UNL d   1      54.063  32.700  53.078  0.00  0.00     0.026 A 
ENDBRANCH   4   5
ENDBRANCH   1   4
BRANCH   1  15
ATOM     15  C   UNL d   1      51.459  33.337  52.805  0.00  0.00     0.111 A 
ATOM     16  C   UNL d   1      51.511  33.796  52.120  0.00  0.00     0.015 A 
ATOM     17  C   UNL d   1      50.897  34.303  51.914  0.00  0.00     0.025 A 
ATOM     18  C   UNL d   1      50.222  34.359  52.390  0.00  0.00     0.100 A 
ATOM     19  C   UNL d   1      50.175  33.899  53.074  0.00  0.00     0.025 A 
ATOM     20  C   UNL d   1      50.789  33.392  53.280  0.00  0.00     0.015 A 
BRANCH  18  21
ATOM     21  O   UNL d   1      49.608  34.866  52.184  0.00  0.00    -0.305 OA
BRANCH  21  22
ATOM     22  C   UNL d   1      49.028  34.617  51.660  0.00  0.00     0.123 C 
ATOM     23  C   UNL d   1      48.387  35.106  51.492  0.00  0.00     0.029 C 
ENDBRANCH  21  22
ENDBRANCH  18  21
ENDBRANCH   1  15
TORSDOF 5
ENDMDL
MODEL 4
REMARK VINA RESULT:      -8.4      1.166      2.047
REMARK  5 active torsions:
REMARK  status: ('A' for Active; 'I' for Inactive)
REMARK    1  A    between atoms: O_2  and  S_1 
REMARK    2  A    between atoms: C_3  and  S_1 
REMARK    3  A    between atoms: C_6  and  O_2 
REMARK    4  A    between atoms: O_17  and  C_14 
REMARK    5  A    between atoms: C_20  and  O_17 
ROOT
ATOM      1  S   UNL d   1      52.960  31.912  52.744  0.00  0.00     0.304 S 
ATOM      2  O   UNL d   1      52.161  31.774  52.603  0.00  0.00    -0.193 OA
ATOM      3  O   UNL d   1      53.758  32.050  52.885  0.00  0.00    -0.193 OA
ENDROOT
BRANCH   1   4
ATOM      4  O   UNL d   1      52.895  32.651  52.389  0.00  0.00    -0.227 OA
BRANCH   4   5
ATOM      5  C   UNL d   1      52.672  33.305  52.838  0.00  0.00     0.114 A 
ATOM      6  C   UNL d   1      53.234  33.713  53.290  0.00  0.00     0.026 A 
ATOM      7  C   UNL d   1      53.009  34.364  53.737  0.00  0.00     0.002 A 
ATOM      8  C   UNL d   1      53.571  34.768  54.186  0.00  0.00     0.000 A 
ATOM      9  C   UNL d   1      52.218  34.616  53.737  0.00  0.00     0.000 A 
ATOM     10  C   UNL d   1      53.348  35.425  54.638  0.00  0.00     0.000 A 
ATOM     11  C   UNL d   1      52.557  35.678  54.638  0.00  0.00     0.000 A 
ATOM     12  C   UNL d   1      51.995  35.271  54.186  0.00  0.00     0.000 A 
ATOM     13  C   UNL d   1      51.658  34.215  53.290  0.00  0.00     0.002 A 
ATOM     14  C   UNL d   1      51.881  33.558  52.838  0.00  0.00     0.026 A 
ENDBRANCH   4   5
ENDBRANCH   1   4
BRANCH   1  15
ATOM     15  C   UNL d   1      53.026  31.173  53.099  0.00  0.00     0.111 A 
ATOM     16  C   UNL d   1      53.652  31.013  53.613  0.00  0.00     0.015 A 
ATOM     17  C   UNL d   1      53.717  30.273  53.968  0.00  0.00     0.025 A 
ATOM     18  C   UNL d   1      53.157  29.683  53.813  0.00  0.00     0.100 A 
ATOM     19  C   UNL d   1      52.533  29.848  53.299  0.00  0.00     0.025 A 
ATOM     20  C   UNL d   1      52.467  30.588  52.944  0.00  0.00     0.015 A 
BRANCH  18  21
ATOM     21  O   UNL d   1      53.222  28.944  54.168  0.00  0.00    -0.305 OA
BRANCH  21  22
ATOM     22  C   UNL d   1      53.390  28.886  54.970  0.00  0.00     0.123 C 
ATOM     23  C   UNL d   1      53.456  28.146  55.325  0.00  0.00     0.029 C 
ENDBRANCH  21  22
ENDBRANCH  18  21
ENDBRANCH   1  15
TORSDOF 5
ENDMDL
