MODEL 1
REMARK VINA RESULT:      73.3      0.000      0.000
REMARK  3 active torsions:
REMARK  status: ('A' for Active; 'I' for Inactive)
REMARK    1  A    between atoms: C_8  and  C_1 
REMARK    2  A    between atoms: N_4  and  C_2 
REMARK       I    between atoms: C_6  and  N_4 
REMARK    3  A    between atoms: C_10  and  C_6 
ROOT
ATOM      1  C   UNL d   1     -57.036 -99.236 -44.253  0.00  0.00     0.177 A 
ATOM      2  C   UNL d   1     -56.227 -99.191 -44.450  0.00  0.00     0.114 A 
ATOM      3  O   UNL d   1     -57.095 -99.120 -43.444  0.00  0.00    -0.301 OA
ATOM      4  C   UNL d   1     -55.804 -99.049 -43.760  0.00  0.00     0.043 A 
ATOM      5  C   UNL d   1     -56.335 -99.004 -43.137  0.00  0.00     0.102 A 
ATOM      6  C   UNL d   1     -54.997 -98.954 -43.622  0.00  0.00     0.004 A 
ATOM      7  C   UNL d   1     -56.067 -98.865 -42.370  0.00  0.00     0.025 A 
ATOM      8  C   UNL d   1     -54.721 -98.813 -42.851  0.00  0.00     0.000 A 
ATOM      9  C   UNL d   1     -55.264 -98.771 -42.233  0.00  0.00     0.002 A 
ENDROOT
BRANCH   2  10
ATOM     10  N   UNL d   1     -55.908 -99.275 -45.209  0.00  0.00    -0.206 NA
ATOM     11  C   UNL d   1     -55.500 -99.963 -45.411  0.00  0.00     0.279 C 
ATOM     12  O   UNL d   1     -55.179-100.048 -46.173  0.00  0.00    -0.265 OA
BRANCH  11  13
ATOM     13  C   UNL d   1     -55.411-100.567 -44.856  0.00  0.00     0.058 A 
ATOM     14  C   UNL d   1     -55.930-101.208 -44.858  0.00  0.00     0.005 A 
ATOM     15  C   UNL d   1     -55.841-101.811 -44.303  0.00  0.00     0.000 A 
ATOM     16  C   UNL d   1     -55.232-101.774 -43.745  0.00  0.00     0.000 A 
ATOM     17  C   UNL d   1     -54.713-101.134 -43.743  0.00  0.00     0.000 A 
ATOM     18  C   UNL d   1     -54.802-100.530 -44.298  0.00  0.00     0.005 A 
ENDBRANCH  11  13
ENDBRANCH   2  10
BRANCH   1  19
ATOM     19  C   UNL d   1     -57.681 -99.372 -44.769  0.00  0.00     0.321 C 
ATOM     20  O   UNL d   1     -57.762 -98.912 -45.457  0.00  0.00    -0.261 OA
ATOM     21  N   UNL d   1     -58.222 -99.951 -44.596  0.00  0.00    -0.101 N 
ENDBRANCH   1  19
TORSDOF 3
ENDMDL
