MODEL 1
REMARK VINA RESULT:      -1.2      0.000      0.000
REMARK  6 active torsions:
REMARK  status: ('A' for Active; 'I' for Inactive)
REMARK    1  A    between atoms: C_18  and  N_1 
REMARK    2  A    between atoms: S_7  and  C_2 
REMARK    3  A    between atoms: C_20  and  S_7 
REMARK    4  A    between atoms: C_10  and  C_20 
REMARK       I    between atoms: N_13  and  C_10 
REMARK    5  A    between atoms: C_16  and  N_13 
REMARK    6  A    between atoms: C_21  and  C_18 
ROOT
ATOM      1  N   UNL d   1      58.836  -1.520  29.223  0.00  0.00    -0.253 N 
ATOM      2  C   UNL d   1      58.502  -0.794  29.583  0.00  0.00     0.182 A 
ATOM      3  C   UNL d   1      59.556  -1.491  28.870  0.00  0.00     0.268 A 
ATOM      4  N   UNL d   1      58.923  -0.126  29.550  0.00  0.00    -0.222 NA
ATOM      5  C   UNL d   1      59.974  -0.797  28.845  0.00  0.00     0.074 A 
ATOM      6  C   UNL d   1      59.657  -0.098  29.190  0.00  0.00     0.088 A 
ATOM      7  O   UNL d   1      59.854  -2.221  28.527  0.00  0.00    -0.267 OA
ATOM      8  C   UNL d   1      60.712  -0.776  28.482  0.00  0.00     0.006 A 
ATOM      9  C   UNL d   1      60.091   0.596  29.158  0.00  0.00     0.019 A 
ATOM     10  C   UNL d   1      61.132  -0.086  28.456  0.00  0.00     0.000 A 
ATOM     11  C   UNL d   1      60.830   0.613  28.792  0.00  0.00     0.002 A 
ENDROOT
BRANCH   2  12
ATOM     12  S   UNL d   1      57.752  -0.808  29.954  0.00  0.00    -0.044 SA
BRANCH  12  13
ATOM     13  C   UNL d   1      57.556  -0.255  30.585  0.00  0.00     0.101 C 
BRANCH  13  14
ATOM     14  C   UNL d   1      57.023   0.361  30.431  0.00  0.00     0.286 C 
ATOM     15  N   UNL d   1      56.569   0.682  31.022  0.00  0.00    -0.207 NA
ATOM     16  O   UNL d   1      56.954   0.652  29.661  0.00  0.00    -0.265 OA
BRANCH  15  17
ATOM     17  C   UNL d   1      56.633   0.391  31.807  0.00  0.00     0.087 A 
ATOM     18  C   UNL d   1      55.984  -0.021  32.120  0.00  0.00     0.045 A 
ATOM     19  C   UNL d   1      56.030  -0.315  32.893  0.00  0.00     0.121 A 
ATOM     20  O   UNL d   1      55.489  -0.739  33.351  0.00  0.00    -0.299 OA
ATOM     21  C   UNL d   1      56.707  -0.196  33.331  0.00  0.00     0.119 A 
ATOM     22  C   UNL d   1      55.863  -0.871  34.081  0.00  0.00     0.304 A 
ATOM     23  O   UNL d   1      56.593  -0.554  34.090  0.00  0.00    -0.300 OA
ATOM     24  C   UNL d   1      57.356   0.220  33.011  0.00  0.00     0.028 A 
ATOM     25  C   UNL d   1      57.306   0.510  32.243  0.00  0.00     0.021 A 
ENDBRANCH  15  17
ENDBRANCH  13  14
ENDBRANCH  12  13
ENDBRANCH   2  12
BRANCH   1  26
ATOM     26  C   UNL d   1      58.424  -2.261  29.231  0.00  0.00     0.085 C 
BRANCH  26  27
ATOM     27  C   UNL d   1      58.389  -2.734  28.553  0.00  0.00     0.019 C 
ATOM     28  C   UNL d   1      58.195  -3.517  28.609  0.00  0.00     0.002 C 
ENDBRANCH  26  27
ENDBRANCH   1  26
TORSDOF 6
ENDMDL
MODEL 2
REMARK VINA RESULT:      -0.9      1.614      4.800
REMARK  6 active torsions:
REMARK  status: ('A' for Active; 'I' for Inactive)
REMARK    1  A    between atoms: C_18  and  N_1 
REMARK    2  A    between atoms: S_7  and  C_2 
REMARK    3  A    between atoms: C_20  and  S_7 
REMARK    4  A    between atoms: C_10  and  C_20 
REMARK       I    between atoms: N_13  and  C_10 
REMARK    5  A    between atoms: C_16  and  N_13 
REMARK    6  A    between atoms: C_21  and  C_18 
ROOT
ATOM      1  N   UNL d   1      57.820   0.665  30.641  0.00  0.00    -0.253 N 
ATOM      2  C   UNL d   1      58.631   0.656  30.972  0.00  0.00     0.182 A 
ATOM      3  C   UNL d   1      57.190   0.666  31.138  0.00  0.00     0.268 A 
ATOM      4  N   UNL d   1      58.720   0.650  31.758  0.00  0.00    -0.222 NA
ATOM      5  C   UNL d   1      57.300   0.659  31.942  0.00  0.00     0.074 A 
ATOM      6  C   UNL d   1      58.078   0.651  32.264  0.00  0.00     0.088 A 
ATOM      7  O   UNL d   1      56.408   0.675  30.781  0.00  0.00    -0.267 OA
ATOM      8  C   UNL d   1      56.649   0.661  32.445  0.00  0.00     0.006 A 
ATOM      9  C   UNL d   1      58.175   0.645  33.076  0.00  0.00     0.019 A 
ATOM     10  C   UNL d   1      56.756   0.654  33.246  0.00  0.00     0.000 A 
ATOM     11  C   UNL d   1      57.519   0.646  33.578  0.00  0.00     0.002 A 
ENDROOT
BRANCH   2  12
ATOM     12  S   UNL d   1      59.298   0.655  30.466  0.00  0.00    -0.044 SA
BRANCH  12  13
ATOM     13  C   UNL d   1      59.804  -0.039  30.396  0.00  0.00     0.101 C 
BRANCH  13  14
ATOM     14  C   UNL d   1      60.626   0.052  30.454  0.00  0.00     0.286 C 
ATOM     15  N   UNL d   1      61.133  -0.462  30.086  0.00  0.00    -0.207 NA
ATOM     16  O   UNL d   1      60.932   0.680  30.896  0.00  0.00    -0.265 OA
BRANCH  15  17
ATOM     17  C   UNL d   1      60.830  -1.102  29.635  0.00  0.00     0.087 A 
ATOM     18  C   UNL d   1      60.833  -1.855  29.985  0.00  0.00     0.045 A 
ATOM     19  C   UNL d   1      60.537  -2.499  29.555  0.00  0.00     0.121 A 
ATOM     20  O   UNL d   1      60.467  -3.299  29.747  0.00  0.00    -0.299 OA
ATOM     21  C   UNL d   1      60.250  -2.383  28.801  0.00  0.00     0.119 A 
ATOM     22  C   UNL d   1      60.127  -3.662  29.082  0.00  0.00     0.304 A 
ATOM     23  O   UNL d   1      59.989  -3.132  28.504  0.00  0.00    -0.300 OA
ATOM     24  C   UNL d   1      60.250  -1.624  28.455  0.00  0.00     0.028 A 
ATOM     25  C   UNL d   1      60.545  -0.988  28.885  0.00  0.00     0.021 A 
ENDBRANCH  15  17
ENDBRANCH  13  14
ENDBRANCH  12  13
ENDBRANCH   2  12
BRANCH   1  26
ATOM     26  C   UNL d   1      57.670   0.672  29.807  0.00  0.00     0.085 C 
BRANCH  26  27
ATOM     27  C   UNL d   1      57.395  -0.006  29.420  0.00  0.00     0.019 C 
ATOM     28  C   UNL d   1      57.425  -0.058  28.614  0.00  0.00     0.002 C 
ENDBRANCH  26  27
ENDBRANCH   1  26
TORSDOF 6
ENDMDL
MODEL 3
REMARK VINA RESULT:       0.7      1.375      4.825
REMARK  6 active torsions:
REMARK  status: ('A' for Active; 'I' for Inactive)
REMARK    1  A    between atoms: C_18  and  N_1 
REMARK    2  A    between atoms: S_7  and  C_2 
REMARK    3  A    between atoms: C_20  and  S_7 
REMARK    4  A    between atoms: C_10  and  C_20 
REMARK       I    between atoms: N_13  and  C_10 
REMARK    5  A    between atoms: C_16  and  N_13 
REMARK    6  A    between atoms: C_21  and  C_18 
ROOT
ATOM      1  N   UNL d   1      56.835   0.543  32.846  0.00  0.00    -0.253 N 
ATOM      2  C   UNL d   1      57.418   0.638  32.199  0.00  0.00     0.182 A 
ATOM      3  C   UNL d   1      57.090   0.502  33.606  0.00  0.00     0.268 A 
ATOM      4  N   UNL d   1      58.186   0.680  32.384  0.00  0.00    -0.222 NA
ATOM      5  C   UNL d   1      57.881   0.547  33.777  0.00  0.00     0.074 A 
ATOM      6  C   UNL d   1      58.445   0.638  33.159  0.00  0.00     0.088 A 
ATOM      7  O   UNL d   1      56.491   0.410  34.216  0.00  0.00    -0.267 OA
ATOM      8  C   UNL d   1      58.134   0.504  34.559  0.00  0.00     0.006 A 
ATOM      9  C   UNL d   1      59.240   0.682  33.346  0.00  0.00     0.019 A 
ATOM     10  C   UNL d   1      58.923   0.549  34.733  0.00  0.00     0.000 A 
ATOM     11  C   UNL d   1      59.490   0.639  34.131  0.00  0.00     0.002 A 
ENDROOT
BRANCH   2  12
ATOM     12  S   UNL d   1      57.168   0.682  31.402  0.00  0.00    -0.044 SA
BRANCH  12  13
ATOM     13  C   UNL d   1      57.671   0.404  30.760  0.00  0.00     0.101 C 
BRANCH  13  14
ATOM     14  C   UNL d   1      57.382   0.425  29.983  0.00  0.00     0.286 C 
ATOM     15  N   UNL d   1      57.857   0.236  29.353  0.00  0.00    -0.207 NA
ATOM     16  O   UNL d   1      56.597   0.644  29.850  0.00  0.00    -0.265 OA
BRANCH  15  17
ATOM     17  C   UNL d   1      58.656   0.013  29.480  0.00  0.00     0.087 A 
ATOM     18  C   UNL d   1      58.829  -0.798  29.517  0.00  0.00     0.045 A 
ATOM     19  C   UNL d   1      59.613  -1.037  29.642  0.00  0.00     0.121 A 
ATOM     20  O   UNL d   1      59.954  -1.786  29.704  0.00  0.00    -0.299 OA
ATOM     21  C   UNL d   1      60.198  -0.474  29.727  0.00  0.00     0.119 A 
ATOM     22  C   UNL d   1      60.765  -1.657  29.829  0.00  0.00     0.304 A 
ATOM     23  O   UNL d   1      60.932  -0.879  29.846  0.00  0.00    -0.300 OA
ATOM     24  C   UNL d   1      60.017   0.339  29.689  0.00  0.00     0.028 A 
ATOM     25  C   UNL d   1      59.238   0.571  29.565  0.00  0.00     0.021 A 
ENDBRANCH  15  17
ENDBRANCH  13  14
ENDBRANCH  12  13
ENDBRANCH   2  12
BRANCH   1  26
ATOM     26  C   UNL d   1      56.001   0.493  32.702  0.00  0.00     0.085 C 
BRANCH  26  27
ATOM     27  C   UNL d   1      55.464   0.457  33.330  0.00  0.00     0.019 C 
ATOM     28  C   UNL d   1      54.725   0.146  33.220  0.00  0.00     0.002 C 
ENDBRANCH  26  27
ENDBRANCH   1  26
TORSDOF 6
ENDMDL
