MODEL 1
REMARK VINA RESULT:      21.1      0.000      0.000
REMARK  5 active torsions:
REMARK  status: ('A' for Active; 'I' for Inactive)
REMARK    1  A    between atoms: C_11  and  N_2 
REMARK    2  A    between atoms: C_5  and  C_3 
REMARK    3  A    between atoms: C_7  and  C_5 
REMARK    4  A    between atoms: C_8  and  C_7 
REMARK    5  A    between atoms: C_10  and  C_8 
ROOT
ATOM      1  C   UNL d   1      13.243  12.251  -3.325  0.00  0.00     0.006 C 
ENDROOT
BRANCH   1   2
ATOM      2  C   UNL d   1      13.146  12.787  -3.942  0.00  0.00     0.039 A 
ATOM      3  C   UNL d   1      12.860  13.557  -3.969  0.00  0.00     0.122 A 
ATOM      4  N   UNL d   1      12.895  13.816  -4.747  0.00  0.00    -0.164 NA
ATOM      5  N   UNL d   1      13.200  13.211  -5.205  0.00  0.00    -0.228 N 
ATOM      6  C   UNL d   1      13.358  12.568  -4.707  0.00  0.00     0.085 A 
ATOM      7  C   UNL d   1      13.673  11.837  -4.945  0.00  0.00     0.021 C 
BRANCH   5   8
ATOM      8  C   UNL d   1      13.326  13.241  -6.018  0.00  0.00     0.101 C 
ATOM      9  C   UNL d   1      14.043  12.982  -6.336  0.00  0.00     0.022 C 
ENDBRANCH   5   8
ENDBRANCH   1   2
BRANCH   1  10
ATOM     10  C   UNL d   1      13.696  12.458  -2.667  0.00  0.00     0.042 C 
BRANCH  10  11
ATOM     11  C   UNL d   1      13.538  12.118  -1.927  0.00  0.00     0.196 C 
ATOM     12  O   UNL d   1      12.799  11.790  -1.773  0.00  0.00    -0.287 OA
BRANCH  11  13
ATOM     13  C   UNL d   1      14.127  12.108  -1.340  0.00  0.00     0.039 A 
ATOM     14  C   UNL d   1      14.876  12.421  -1.503  0.00  0.00     0.003 A 
ATOM     15  C   UNL d   1      15.462  12.413  -0.925  0.00  0.00     0.000 A 
ATOM     16  C   UNL d   1      15.304  12.093  -0.180  0.00  0.00     0.000 A 
ATOM     17  C   UNL d   1      14.557  11.782  -0.019  0.00  0.00     0.000 A 
ATOM     18  C   UNL d   1      13.972  11.791  -0.598  0.00  0.00     0.003 A 
ENDBRANCH  11  13
ENDBRANCH  10  11
ENDBRANCH   1  10
TORSDOF 5
ENDMDL
