MODEL 1
REMARK VINA RESULT:      -4.8      0.000      0.000
REMARK  6 active torsions:
REMARK  status: ('A' for Active; 'I' for Inactive)
REMARK    1  A    between atoms: N_10  and  C_2 
REMARK    2  A    between atoms: C_13  and  C_3 
REMARK    3  A    between atoms: C_6  and  S_15 
REMARK       I    between atoms: C_12  and  N_10 
REMARK    4  A    between atoms: C_14  and  C_12 
REMARK    5  A    between atoms: C_17  and  C_14 
REMARK    6  A    between atoms: S_15  and  C_17 
ROOT
ATOM      1  N   UNL d   1     -41.422-123.356 -51.771  0.00  0.00    -0.181 NA
ATOM      2  C   UNL d   1     -41.479-123.069 -51.000  0.00  0.00     0.282 C 
ATOM      3  O   UNL d   1     -41.568-122.257 -50.860  0.00  0.00    -0.265 OA
ENDROOT
BRANCH   1   4
ATOM      4  C   UNL d   1     -41.454-122.835 -52.424  0.00  0.00     0.216 A 
ATOM      5  N   UNL d   1     -41.826-122.985 -53.144  0.00  0.00    -0.200 NA
ATOM      6  C   UNL d   1     -41.719-122.322 -53.621  0.00  0.00     0.172 A 
ATOM      7  N   UNL d   1     -41.285-121.777 -53.191  0.00  0.00    -0.187 NA
ATOM      8  S   UNL d   1     -41.123-122.093 -52.456  0.00  0.00     0.054 SA
BRANCH   6   9
ATOM      9  C   UNL d   1     -41.985-122.197 -54.395  0.00  0.00     0.036 A 
ATOM     10  C   UNL d   1     -41.747-122.701 -54.999  0.00  0.00     0.003 A 
ATOM     11  C   UNL d   1     -42.013-122.575 -55.770  0.00  0.00     0.000 A 
ATOM     12  C   UNL d   1     -42.516-121.946 -55.936  0.00  0.00     0.000 A 
ATOM     13  C   UNL d   1     -42.755-121.438 -55.330  0.00  0.00     0.000 A 
ATOM     14  C   UNL d   1     -42.490-121.564 -54.559  0.00  0.00     0.003 A 
ENDBRANCH   6   9
ENDBRANCH   1   4
BRANCH   2  15
ATOM     15  C   UNL d   1     -41.447-123.594 -50.357  0.00  0.00     0.070 C 
BRANCH  15  16
ATOM     16  C   UNL d   1     -41.703-123.351 -49.611  0.00  0.00     0.042 C 
BRANCH  16  17
ATOM     17  S   UNL d   1     -41.346-123.664 -48.938  0.00  0.00    -0.059 SA
BRANCH  17  18
ATOM     18  C   UNL d   1     -41.746-123.647 -48.216  0.00  0.00     0.164 A 
ATOM     19  S   UNL d   1     -42.527-123.817 -48.003  0.00  0.00    -0.039 SA
ATOM     20  C   UNL d   1     -42.598-123.699 -47.194  0.00  0.00     0.134 A 
ATOM     21  C   UNL d   1     -43.294-123.806 -46.744  0.00  0.00     0.030 C 
ATOM     22  N   UNL d   1     -41.869-123.456 -46.903  0.00  0.00    -0.140 NA
ATOM     23  N   UNL d   1     -41.345-123.424 -47.531  0.00  0.00    -0.134 NA
ENDBRANCH  17  18
ENDBRANCH  16  17
ENDBRANCH  15  16
ENDBRANCH   2  15
TORSDOF 6
ENDMDL
