MODEL 1
REMARK VINA RESULT:      16.6      0.000      0.000
REMARK  3 active torsions:
REMARK  status: ('A' for Active; 'I' for Inactive)
REMARK    1  A    between atoms: N_3  and  C_1 
REMARK    2  A    between atoms: C_8  and  N_2 
REMARK       I    between atoms: C_4  and  N_3 
REMARK    3  A    between atoms: C_7  and  C_4 
ROOT
ATOM      1  C   UNL d   1      46.313 -18.224  44.219  0.00  0.00     0.185 A 
ATOM      2  N   UNL d   1      46.398 -18.833  43.649  0.00  0.00    -0.254 N 
ATOM      3  S   UNL d   1      46.249 -18.580  44.953  0.00  0.00    -0.044 SA
ATOM      4  C   UNL d   1      46.383 -19.542  44.046  0.00  0.00     0.273 A 
ATOM      5  C   UNL d   1      46.292 -19.390  44.849  0.00  0.00     0.099 A 
ATOM      6  O   UNL d   1      46.449 -20.288  43.695  0.00  0.00    -0.266 OA
ENDROOT
BRANCH   1   7
ATOM      7  N   UNL d   1      46.298 -17.409  44.067  0.00  0.00    -0.182 NA
ATOM      8  C   UNL d   1      45.741 -16.932  44.431  0.00  0.00     0.304 C 
ATOM      9  O   UNL d   1      45.189 -17.263  44.954  0.00  0.00    -0.263 OA
BRANCH   8  10
ATOM     10  C   UNL d   1      45.722 -16.116  44.281  0.00  0.00     0.158 A 
ATOM     11  O   UNL d   1      46.297 -15.696  43.875  0.00  0.00    -0.300 OA
ATOM     12  C   UNL d   1      46.056 -14.906  43.855  0.00  0.00     0.123 A 
ATOM     13  C   UNL d   1      45.338 -14.848  44.248  0.00  0.00     0.029 A 
ATOM     14  C   UNL d   1      45.123 -15.586  44.514  0.00  0.00     0.032 A 
ENDBRANCH   8  10
ENDBRANCH   1   7
BRANCH   2  15
ATOM     15  C   UNL d   1      46.480 -18.720  42.833  0.00  0.00     0.069 A 
ATOM     16  C   UNL d   1      46.474 -19.380  42.340  0.00  0.00     0.018 A 
ATOM     17  C   UNL d   1      46.557 -19.275  41.519  0.00  0.00     0.002 A 
ATOM     18  C   UNL d   1      46.643 -18.510  41.207  0.00  0.00     0.000 A 
ATOM     19  C   UNL d   1      46.647 -17.855  41.709  0.00  0.00     0.002 A 
ATOM     20  C   UNL d   1      46.566 -17.961  42.520  0.00  0.00     0.018 A 
ENDBRANCH   2  15
TORSDOF 3
ENDMDL
