MODEL 1
REMARK VINA RESULT:      -7.2      0.000      0.000
REMARK  3 active torsions:
REMARK  status: ('A' for Active; 'I' for Inactive)
REMARK    1  A    between atoms: N_5  and  C_2 
REMARK    2  A    between atoms: C_8  and  C_3 
REMARK       I    between atoms: C_7  and  N_5 
REMARK    3  A    between atoms: C_10  and  C_7 
ROOT
ATOM      1  N   UNL d   1     -46.701  11.590  23.466  0.00  0.00    -0.200 NA
ATOM      2  C   UNL d   1     -47.164  12.259  23.384  0.00  0.00     0.216 A 
ATOM      3  C   UNL d   1     -45.912  11.796  23.310  0.00  0.00     0.172 A 
ATOM      4  N   UNL d   1     -45.897  12.602  23.132  0.00  0.00    -0.187 NA
ATOM      5  S   UNL d   1     -46.672  12.895  23.177  0.00  0.00     0.054 SA
ENDROOT
BRANCH   2   6
ATOM      6  N   UNL d   1     -47.981  12.298  23.490  0.00  0.00    -0.181 NA
ATOM      7  C   UNL d   1     -48.483  12.143  22.859  0.00  0.00     0.281 C 
ATOM      8  O   UNL d   1     -48.171  11.949  22.121  0.00  0.00    -0.265 OA
BRANCH   7   9
ATOM      9  C   UNL d   1     -49.291  12.182  22.963  0.00  0.00     0.058 A 
ATOM     10  C   UNL d   1     -49.654  11.783  23.592  0.00  0.00     0.005 A 
ATOM     11  C   UNL d   1     -50.471  11.822  23.698  0.00  0.00     0.000 A 
ATOM     12  C   UNL d   1     -50.926  12.260  23.175  0.00  0.00     0.000 A 
ATOM     13  C   UNL d   1     -50.580  12.659  22.549  0.00  0.00     0.000 A 
ATOM     14  C   UNL d   1     -49.754  12.619  22.443  0.00  0.00     0.005 A 
ENDBRANCH   7   9
ENDBRANCH   2   6
BRANCH   3  15
ATOM     15  C   UNL d   1     -45.265  11.296  23.329  0.00  0.00     0.036 A 
ATOM     16  C   UNL d   1     -45.331  10.552  23.678  0.00  0.00     0.003 A 
ATOM     17  C   UNL d   1     -44.677  10.044  23.698  0.00  0.00     0.000 A 
ATOM     18  C   UNL d   1     -43.958  10.286  23.367  0.00  0.00     0.000 A 
ATOM     19  C   UNL d   1     -43.893  11.035  23.015  0.00  0.00     0.000 A 
ATOM     20  C   UNL d   1     -44.552  11.539  22.999  0.00  0.00     0.003 A 
ENDBRANCH   3  15
TORSDOF 3
ENDMDL
MODEL 2
REMARK VINA RESULT:      -7.0      1.951      4.920
REMARK  3 active torsions:
REMARK  status: ('A' for Active; 'I' for Inactive)
REMARK    1  A    between atoms: N_5  and  C_2 
REMARK    2  A    between atoms: C_8  and  C_3 
REMARK       I    between atoms: C_7  and  N_5 
REMARK    3  A    between atoms: C_10  and  C_7 
ROOT
ATOM      1  N   UNL d   1     -48.476  14.000  23.343  0.00  0.00    -0.200 NA
ATOM      2  C   UNL d   1     -47.712  13.892  23.075  0.00  0.00     0.216 A 
ATOM      3  C   UNL d   1     -48.795  14.666  22.963  0.00  0.00     0.172 A 
ATOM      4  N   UNL d   1     -48.215  14.965  22.458  0.00  0.00    -0.187 NA
ATOM      5  S   UNL d   1     -47.539  14.488  22.523  0.00  0.00     0.054 SA
ENDROOT
BRANCH   2   6
ATOM      6  N   UNL d   1     -47.196  13.293  23.311  0.00  0.00    -0.181 NA
ATOM      7  C   UNL d   1     -47.212  12.566  22.930  0.00  0.00     0.281 C 
ATOM      8  O   UNL d   1     -47.742  12.435  22.313  0.00  0.00    -0.265 OA
BRANCH   7   9
ATOM      9  C   UNL d   1     -46.703  11.973  23.164  0.00  0.00     0.058 A 
ATOM     10  C   UNL d   1     -45.883  12.076  23.108  0.00  0.00     0.005 A 
ATOM     11  C   UNL d   1     -45.368  11.477  23.345  0.00  0.00     0.000 A 
ATOM     12  C   UNL d   1     -45.672  10.775  23.637  0.00  0.00     0.000 A 
ATOM     13  C   UNL d   1     -46.480  10.660  23.698  0.00  0.00     0.000 A 
ATOM     14  C   UNL d   1     -47.000  11.265  23.459  0.00  0.00     0.005 A 
ENDBRANCH   7   9
ENDBRANCH   2   6
BRANCH   3  15
ATOM     15  C   UNL d   1     -49.546  14.973  23.067  0.00  0.00     0.036 A 
ATOM     16  C   UNL d   1     -50.183  14.648  22.657  0.00  0.00     0.003 A 
ATOM     17  C   UNL d   1     -50.945  14.958  22.761  0.00  0.00     0.000 A 
ATOM     18  C   UNL d   1     -51.063  15.593  23.277  0.00  0.00     0.000 A 
ATOM     19  C   UNL d   1     -50.422  15.920  23.690  0.00  0.00     0.000 A 
ATOM     20  C   UNL d   1     -49.661  15.605  23.581  0.00  0.00     0.003 A 
ENDBRANCH   3  15
TORSDOF 3
ENDMDL
MODEL 3
REMARK VINA RESULT:      -6.7      1.894      5.190
REMARK  3 active torsions:
REMARK  status: ('A' for Active; 'I' for Inactive)
REMARK    1  A    between atoms: N_5  and  C_2 
REMARK    2  A    between atoms: C_8  and  C_3 
REMARK       I    between atoms: C_7  and  N_5 
REMARK    3  A    between atoms: C_10  and  C_7 
ROOT
ATOM      1  N   UNL d   1     -48.493  13.837  22.628  0.00  0.00    -0.200 NA
ATOM      2  C   UNL d   1     -48.089  13.137  22.752  0.00  0.00     0.216 A 
ATOM      3  C   UNL d   1     -49.227  13.787  23.012  0.00  0.00     0.172 A 
ATOM      4  N   UNL d   1     -49.268  13.047  23.374  0.00  0.00    -0.187 NA
ATOM      5  S   UNL d   1     -48.563  12.638  23.215  0.00  0.00     0.054 SA
ENDROOT
BRANCH   2   6
ATOM      6  N   UNL d   1     -47.337  12.956  22.466  0.00  0.00    -0.181 NA
ATOM      7  C   UNL d   1     -46.676  13.103  22.930  0.00  0.00     0.281 C 
ATOM      8  O   UNL d   1     -46.764  13.432  23.680  0.00  0.00    -0.265 OA
BRANCH   7   9
ATOM      9  C   UNL d   1     -45.932  12.923  22.647  0.00  0.00     0.058 A 
ATOM     10  C   UNL d   1     -45.543  13.438  22.128  0.00  0.00     0.005 A 
ATOM     11  C   UNL d   1     -44.791  13.257  21.841  0.00  0.00     0.000 A 
ATOM     12  C   UNL d   1     -44.428  12.560  22.074  0.00  0.00     0.000 A 
ATOM     13  C   UNL d   1     -44.801  12.042  22.587  0.00  0.00     0.000 A 
ATOM     14  C   UNL d   1     -45.560  12.226  22.876  0.00  0.00     0.005 A 
ENDBRANCH   7   9
ENDBRANCH   2   6
BRANCH   3  15
ATOM     15  C   UNL d   1     -49.807  14.364  23.032  0.00  0.00     0.036 A 
ATOM     16  C   UNL d   1     -49.720  15.017  23.528  0.00  0.00     0.003 A 
ATOM     17  C   UNL d   1     -50.306  15.602  23.549  0.00  0.00     0.000 A 
ATOM     18  C   UNL d   1     -50.978  15.529  23.071  0.00  0.00     0.000 A 
ATOM     19  C   UNL d   1     -51.064  14.872  22.572  0.00  0.00     0.000 A 
ATOM     20  C   UNL d   1     -50.473  14.289  22.556  0.00  0.00     0.003 A 
ENDBRANCH   3  15
TORSDOF 3
ENDMDL
MODEL 4
REMARK VINA RESULT:      -6.5      1.092      1.574
REMARK  3 active torsions:
REMARK  status: ('A' for Active; 'I' for Inactive)
REMARK    1  A    between atoms: N_5  and  C_2 
REMARK    2  A    between atoms: C_8  and  C_3 
REMARK       I    between atoms: C_7  and  N_5 
REMARK    3  A    between atoms: C_10  and  C_7 
ROOT
ATOM      1  N   UNL d   1     -46.745  12.861  22.499  0.00  0.00    -0.200 NA
ATOM      2  C   UNL d   1     -47.334  12.689  23.039  0.00  0.00     0.216 A 
ATOM      3  C   UNL d   1     -46.020  12.602  22.811  0.00  0.00     0.172 A 
ATOM      4  N   UNL d   1     -46.173  12.269  23.550  0.00  0.00    -0.187 NA
ATOM      5  S   UNL d   1     -46.988  12.321  23.697  0.00  0.00     0.054 SA
ENDROOT
BRANCH   2   6
ATOM      6  N   UNL d   1     -48.137  12.854  22.948  0.00  0.00    -0.181 NA
ATOM      7  C   UNL d   1     -48.640  12.281  22.642  0.00  0.00     0.281 C 
ATOM      8  O   UNL d   1     -48.342  11.543  22.428  0.00  0.00    -0.265 OA
BRANCH   7   9
ATOM      9  C   UNL d   1     -49.434  12.443  22.552  0.00  0.00     0.058 A 
ATOM     10  C   UNL d   1     -49.965  12.311  23.174  0.00  0.00     0.005 A 
ATOM     11  C   UNL d   1     -50.768  12.475  23.082  0.00  0.00     0.000 A 
ATOM     12  C   UNL d   1     -51.041  12.772  22.369  0.00  0.00     0.000 A 
ATOM     13  C   UNL d   1     -50.527  12.908  21.746  0.00  0.00     0.000 A 
ATOM     14  C   UNL d   1     -49.716  12.742  21.838  0.00  0.00     0.005 A 
ENDBRANCH   7   9
ENDBRANCH   2   6
BRANCH   3  15
ATOM     15  C   UNL d   1     -45.287  12.663  22.454  0.00  0.00     0.036 A 
ATOM     16  C   UNL d   1     -45.145  13.265  21.907  0.00  0.00     0.003 A 
ATOM     17  C   UNL d   1     -44.403  13.328  21.545  0.00  0.00     0.000 A 
ATOM     18  C   UNL d   1     -43.805  12.788  21.733  0.00  0.00     0.000 A 
ATOM     19  C   UNL d   1     -43.948  12.183  22.283  0.00  0.00     0.000 A 
ATOM     20  C   UNL d   1     -44.694  12.125  22.642  0.00  0.00     0.003 A 
ENDBRANCH   3  15
TORSDOF 3
ENDMDL
MODEL 5
REMARK VINA RESULT:      -6.5      1.139      4.657
REMARK  3 active torsions:
REMARK  status: ('A' for Active; 'I' for Inactive)
REMARK    1  A    between atoms: N_5  and  C_2 
REMARK    2  A    between atoms: C_8  and  C_3 
REMARK       I    between atoms: C_7  and  N_5 
REMARK    3  A    between atoms: C_10  and  C_7 
ROOT
ATOM      1  N   UNL d   1     -47.070  12.527  22.613  0.00  0.00    -0.200 NA
ATOM      2  C   UNL d   1     -46.355  12.739  22.947  0.00  0.00     0.216 A 
ATOM      3  C   UNL d   1     -47.605  13.152  22.723  0.00  0.00     0.172 A 
ATOM      4  N   UNL d   1     -47.209  13.751  23.129  0.00  0.00    -0.187 NA
ATOM      5  S   UNL d   1     -46.430  13.499  23.271  0.00  0.00     0.054 SA
ENDROOT
BRANCH   2   6
ATOM      6  N   UNL d   1     -45.672  12.276  22.961  0.00  0.00    -0.181 NA
ATOM      7  C   UNL d   1     -45.681  11.544  23.332  0.00  0.00     0.281 C 
ATOM      8  O   UNL d   1     -46.372  11.271  23.689  0.00  0.00    -0.265 OA
BRANCH   7   9
ATOM      9  C   UNL d   1     -45.006  11.087  23.346  0.00  0.00     0.058 A 
ATOM     10  C   UNL d   1     -45.016  10.331  23.684  0.00  0.00     0.005 A 
ATOM     11  C   UNL d   1     -44.333   9.868  23.698  0.00  0.00     0.000 A 
ATOM     12  C   UNL d   1     -43.639  10.162  23.374  0.00  0.00     0.000 A 
ATOM     13  C   UNL d   1     -43.616  10.907  23.037  0.00  0.00     0.000 A 
ATOM     14  C   UNL d   1     -44.305  11.374  23.023  0.00  0.00     0.005 A 
ENDBRANCH   7   9
ENDBRANCH   2   6
BRANCH   3  15
ATOM     15  C   UNL d   1     -48.384  13.175  22.476  0.00  0.00     0.036 A 
ATOM     16  C   UNL d   1     -48.984  13.336  23.019  0.00  0.00     0.003 A 
ATOM     17  C   UNL d   1     -49.774  13.360  22.770  0.00  0.00     0.000 A 
ATOM     18  C   UNL d   1     -49.959  13.220  21.976  0.00  0.00     0.000 A 
ATOM     19  C   UNL d   1     -49.356  13.058  21.429  0.00  0.00     0.000 A 
ATOM     20  C   UNL d   1     -48.567  13.036  21.685  0.00  0.00     0.003 A 
ENDBRANCH   3  15
TORSDOF 3
ENDMDL
MODEL 6
REMARK VINA RESULT:      -6.3      8.462      8.991
REMARK  3 active torsions:
REMARK  status: ('A' for Active; 'I' for Inactive)
REMARK    1  A    between atoms: N_5  and  C_2 
REMARK    2  A    between atoms: C_8  and  C_3 
REMARK       I    between atoms: C_7  and  N_5 
REMARK    3  A    between atoms: C_10  and  C_7 
ROOT
ATOM      1  N   UNL d   1     -39.391  14.490  20.350  0.00  0.00    -0.200 NA
ATOM      2  C   UNL d   1     -40.081  14.781  20.022  0.00  0.00     0.216 A 
ATOM      3  C   UNL d   1     -39.565  14.194  21.106  0.00  0.00     0.172 A 
ATOM      4  N   UNL d   1     -40.371  14.309  21.238  0.00  0.00    -0.187 NA
ATOM      5  S   UNL d   1     -40.697  14.674  20.567  0.00  0.00     0.054 SA
ENDROOT
BRANCH   2   6
ATOM      6  N   UNL d   1     -40.154  15.125  19.276  0.00  0.00    -0.181 NA
ATOM      7  C   UNL d   1     -40.479  14.695  18.657  0.00  0.00     0.281 C 
ATOM      8  O   UNL d   1     -40.732  13.920  18.782  0.00  0.00    -0.265 OA
BRANCH   7   9
ATOM      9  C   UNL d   1     -40.552  15.035  17.919  0.00  0.00     0.058 A 
ATOM     10  C   UNL d   1     -41.166  15.567  17.760  0.00  0.00     0.005 A 
ATOM     11  C   UNL d   1     -41.239  15.911  17.013  0.00  0.00     0.000 A 
ATOM     12  C   UNL d   1     -40.699  15.723  16.427  0.00  0.00     0.000 A 
ATOM     13  C   UNL d   1     -40.087  15.198  16.571  0.00  0.00     0.000 A 
ATOM     14  C   UNL d   1     -40.013  14.851  17.325  0.00  0.00     0.005 A 
ENDBRANCH   7   9
ENDBRANCH   2   6
BRANCH   3  15
ATOM     15  C   UNL d   1     -39.037  13.851  21.628  0.00  0.00     0.036 A 
ATOM     16  C   UNL d   1     -39.067  14.044  22.429  0.00  0.00     0.003 A 
ATOM     17  C   UNL d   1     -38.533  13.697  22.959  0.00  0.00     0.000 A 
ATOM     18  C   UNL d   1     -37.970  13.158  22.683  0.00  0.00     0.000 A 
ATOM     19  C   UNL d   1     -37.940  12.965  21.876  0.00  0.00     0.000 A 
ATOM     20  C   UNL d   1     -38.478  13.316  21.351  0.00  0.00     0.003 A 
ENDBRANCH   3  15
TORSDOF 3
ENDMDL
MODEL 7
REMARK VINA RESULT:      -5.9      8.505      9.449
REMARK  3 active torsions:
REMARK  status: ('A' for Active; 'I' for Inactive)
REMARK    1  A    between atoms: N_5  and  C_2 
REMARK    2  A    between atoms: C_8  and  C_3 
REMARK       I    between atoms: C_7  and  N_5 
REMARK    3  A    between atoms: C_10  and  C_7 
ROOT
ATOM      1  N   UNL d   1     -40.194  14.773  19.751  0.00  0.00    -0.200 NA
ATOM      2  C   UNL d   1     -40.287  15.029  20.521  0.00  0.00     0.216 A 
ATOM      3  C   UNL d   1     -40.557  15.324  19.246  0.00  0.00     0.172 A 
ATOM      4  N   UNL d   1     -40.875  15.921  19.718  0.00  0.00    -0.187 NA
ATOM      5  S   UNL d   1     -40.710  15.744  20.513  0.00  0.00     0.054 SA
ENDROOT
BRANCH   2   6
ATOM      6  N   UNL d   1     -40.009  14.644  21.196  0.00  0.00    -0.181 NA
ATOM      7  C   UNL d   1     -39.264  14.823  21.491  0.00  0.00     0.281 C 
ATOM      8  O   UNL d   1     -38.795  15.387  21.114  0.00  0.00    -0.265 OA
BRANCH   7   9
ATOM      9  C   UNL d   1     -38.989  14.443  22.158  0.00  0.00     0.058 A 
ATOM     10  C   UNL d   1     -38.860  13.625  22.153  0.00  0.00     0.005 A 
ATOM     11  C   UNL d   1     -38.582  13.240  22.828  0.00  0.00     0.000 A 
ATOM     12  C   UNL d   1     -38.432  13.673  23.507  0.00  0.00     0.000 A 
ATOM     13  C   UNL d   1     -38.555  14.482  23.526  0.00  0.00     0.000 A 
ATOM     14  C   UNL d   1     -38.836  14.871  22.845  0.00  0.00     0.005 A 
ENDBRANCH   7   9
ENDBRANCH   2   6
BRANCH   3  15
ATOM     15  C   UNL d   1     -40.596  15.285  18.431  0.00  0.00     0.036 A 
ATOM     16  C   UNL d   1     -40.962  15.891  18.007  0.00  0.00     0.003 A 
ATOM     17  C   UNL d   1     -41.002  15.853  17.180  0.00  0.00     0.000 A 
ATOM     18  C   UNL d   1     -40.673  15.207  16.782  0.00  0.00     0.000 A 
ATOM     19  C   UNL d   1     -40.305  14.598  17.208  0.00  0.00     0.000 A 
ATOM     20  C   UNL d   1     -40.268  14.642  18.036  0.00  0.00     0.003 A 
ENDBRANCH   3  15
TORSDOF 3
ENDMDL
MODEL 8
REMARK VINA RESULT:      -5.7      8.591     10.128
REMARK  3 active torsions:
REMARK  status: ('A' for Active; 'I' for Inactive)
REMARK    1  A    between atoms: N_5  and  C_2 
REMARK    2  A    between atoms: C_8  and  C_3 
REMARK       I    between atoms: C_7  and  N_5 
REMARK    3  A    between atoms: C_10  and  C_7 
ROOT
ATOM      1  N   UNL d   1     -39.271  15.124  17.776  0.00  0.00    -0.200 NA
ATOM      2  C   UNL d   1     -39.949  15.196  18.226  0.00  0.00     0.216 A 
ATOM      3  C   UNL d   1     -39.478  14.797  17.041  0.00  0.00     0.172 A 
ATOM      4  N   UNL d   1     -40.293  14.669  17.047  0.00  0.00    -0.187 NA
ATOM      5  S   UNL d   1     -40.592  14.916  17.781  0.00  0.00     0.054 SA
ENDROOT
BRANCH   2   6
ATOM      6  N   UNL d   1     -39.991  15.497  18.993  0.00  0.00    -0.181 NA
ATOM      7  C   UNL d   1     -39.923  14.990  19.635  0.00  0.00     0.281 C 
ATOM      8  O   UNL d   1     -39.814  14.182  19.513  0.00  0.00    -0.265 OA
BRANCH   7   9
ATOM      9  C   UNL d   1     -39.965  15.287  20.394  0.00  0.00     0.058 A 
ATOM     10  C   UNL d   1     -40.670  15.614  20.680  0.00  0.00     0.005 A 
ATOM     11  C   UNL d   1     -40.711  15.915  21.447  0.00  0.00     0.000 A 
ATOM     12  C   UNL d   1     -40.048  15.889  21.928  0.00  0.00     0.000 A 
ATOM     13  C   UNL d   1     -39.345  15.568  21.658  0.00  0.00     0.000 A 
ATOM     14  C   UNL d   1     -39.303  15.265  20.883  0.00  0.00     0.005 A 
ENDBRANCH   7   9
ENDBRANCH   2   6
BRANCH   3  15
ATOM     15  C   UNL d   1     -38.970  14.630  16.422  0.00  0.00     0.036 A 
ATOM     16  C   UNL d   1     -38.851  13.848  16.188  0.00  0.00     0.003 A 
ATOM     17  C   UNL d   1     -38.337  13.677  15.561  0.00  0.00     0.000 A 
ATOM     18  C   UNL d   1     -37.944  14.292  15.172  0.00  0.00     0.000 A 
ATOM     19  C   UNL d   1     -38.064  15.078  15.408  0.00  0.00     0.000 A 
ATOM     20  C   UNL d   1     -38.580  15.243  16.036  0.00  0.00     0.003 A 
ENDBRANCH   3  15
TORSDOF 3
ENDMDL
MODEL 9
REMARK VINA RESULT:      -5.7      8.720     10.042
REMARK  3 active torsions:
REMARK  status: ('A' for Active; 'I' for Inactive)
REMARK    1  A    between atoms: N_5  and  C_2 
REMARK    2  A    between atoms: C_8  and  C_3 
REMARK       I    between atoms: C_7  and  N_5 
REMARK    3  A    between atoms: C_10  and  C_7 
ROOT
ATOM      1  N   UNL d   1     -38.940  14.449  19.853  0.00  0.00    -0.200 NA
ATOM      2  C   UNL d   1     -39.333  14.543  19.143  0.00  0.00     0.216 A 
ATOM      3  C   UNL d   1     -39.494  14.509  20.469  0.00  0.00     0.172 A 
ATOM      4  N   UNL d   1     -40.233  14.641  20.126  0.00  0.00    -0.187 NA
ATOM      5  S   UNL d   1     -40.139  14.663  19.302  0.00  0.00     0.054 SA
ENDROOT
BRANCH   2   6
ATOM      6  N   UNL d   1     -38.989  14.522  18.394  0.00  0.00    -0.181 NA
ATOM      7  C   UNL d   1     -39.172  13.910  17.877  0.00  0.00     0.281 C 
ATOM      8  O   UNL d   1     -39.698  13.319  18.107  0.00  0.00    -0.265 OA
BRANCH   7   9
ATOM      9  C   UNL d   1     -38.832  13.889  17.135  0.00  0.00     0.058 A 
ATOM     10  C   UNL d   1     -38.284  13.300  16.940  0.00  0.00     0.005 A 
ATOM     11  C   UNL d   1     -37.940  13.279  16.190  0.00  0.00     0.000 A 
ATOM     12  C   UNL d   1     -38.144  13.848  15.636  0.00  0.00     0.000 A 
ATOM     13  C   UNL d   1     -38.684  14.436  15.817  0.00  0.00     0.000 A 
ATOM     14  C   UNL d   1     -39.031  14.457  16.573  0.00  0.00     0.005 A 
ENDBRANCH   7   9
ENDBRANCH   2   6
BRANCH   3  15
ATOM     15  C   UNL d   1     -39.341  14.449  21.270  0.00  0.00     0.036 A 
ATOM     16  C   UNL d   1     -39.253  13.706  21.617  0.00  0.00     0.003 A 
ATOM     17  C   UNL d   1     -39.097  13.644  22.429  0.00  0.00     0.000 A 
ATOM     18  C   UNL d   1     -39.030  14.328  22.889  0.00  0.00     0.000 A 
ATOM     19  C   UNL d   1     -39.118  15.075  22.539  0.00  0.00     0.000 A 
ATOM     20  C   UNL d   1     -39.274  15.131  21.726  0.00  0.00     0.003 A 
ENDBRANCH   3  15
TORSDOF 3
ENDMDL
