MODEL 1
REMARK VINA RESULT:      71.7      0.000      0.000
REMARK  3 active torsions:
REMARK  status: ('A' for Active; 'I' for Inactive)
REMARK    1  A    between atoms: N_3  and  C_1 
REMARK       I    between atoms: C_5  and  N_3 
REMARK    2  A    between atoms: C_14  and  C_4 
REMARK       I    between atoms: N_8  and  C_5 
REMARK    3  A    between atoms: C_11  and  N_8 
ROOT
ATOM      1  N   UNL d   1      60.029  48.340  50.825  0.00  0.00    -0.166 NA
ATOM      2  C   UNL d   1      60.341  49.053  50.966  0.00  0.00     0.370 C 
ATOM      3  N   UNL d   1      59.870  49.706  51.004  0.00  0.00    -0.191 NA
ATOM      4  O   UNL d   1      61.155  49.144  51.077  0.00  0.00    -0.242 OA
ENDROOT
BRANCH   1   5
ATOM      5  C   UNL d   1      60.504  47.688  50.788  0.00  0.00     0.199 A 
ATOM      6  N   UNL d   1      60.618  47.232  50.134  0.00  0.00    -0.221 NA
ATOM      7  C   UNL d   1      61.138  46.632  50.338  0.00  0.00     0.090 A 
ATOM      8  C   UNL d   1      61.336  46.736  51.132  0.00  0.00     0.058 A 
ATOM      9  S   UNL d   1      60.931  47.399  51.396  0.00  0.00    -0.046 SA
BRANCH   7  10
ATOM     10  C   UNL d   1      61.407  46.046  49.849  0.00  0.00     0.018 A 
ATOM     11  C   UNL d   1      60.946  45.371  49.697  0.00  0.00     0.002 A 
ATOM     12  C   UNL d   1      61.222  44.775  49.198  0.00  0.00     0.000 A 
ATOM     13  C   UNL d   1      61.953  44.841  48.849  0.00  0.00     0.000 A 
ATOM     14  C   UNL d   1      62.425  45.510  48.992  0.00  0.00     0.000 A 
ATOM     15  C   UNL d   1      62.154  46.119  49.495  0.00  0.00     0.002 A 
ENDBRANCH   7  10
ENDBRANCH   1   5
BRANCH   3  16
ATOM     16  C   UNL d   1      59.050  49.632  50.894  0.00  0.00     0.087 A 
ATOM     17  C   UNL d   1      58.742  49.700  50.166  0.00  0.00     0.032 A 
ATOM     18  C   UNL d   1      57.950  49.631  50.043  0.00  0.00     0.070 A 
ATOM     19 CL   UNL d   1      57.630  49.704  49.269  0.00  0.00    -0.081 Cl
ATOM     20  C   UNL d   1      57.453  49.493  50.646  0.00  0.00     0.068 A 
ATOM     21  C   UNL d   1      57.754  49.418  51.422  0.00  0.00     0.014 A 
ATOM     22 CL   UNL d   1      56.652  49.424  50.521  0.00  0.00    -0.082 Cl
ATOM     23  C   UNL d   1      58.546  49.486  51.545  0.00  0.00     0.020 A 
ENDBRANCH   3  16
TORSDOF 3
ENDMDL
MODEL 2
REMARK VINA RESULT:      72.6      0.558      1.070
REMARK  3 active torsions:
REMARK  status: ('A' for Active; 'I' for Inactive)
REMARK    1  A    between atoms: N_3  and  C_1 
REMARK       I    between atoms: C_5  and  N_3 
REMARK    2  A    between atoms: C_14  and  C_4 
REMARK       I    between atoms: N_8  and  C_5 
REMARK    3  A    between atoms: C_11  and  N_8 
ROOT
ATOM      1  N   UNL d   1      60.166  48.491  50.641  0.00  0.00    -0.166 NA
ATOM      2  C   UNL d   1      60.303  49.113  51.111  0.00  0.00     0.370 C 
ATOM      3  N   UNL d   1      59.741  49.681  51.212  0.00  0.00    -0.191 NA
ATOM      4  O   UNL d   1      61.024  49.193  51.506  0.00  0.00    -0.242 OA
ENDROOT
BRANCH   1   5
ATOM      5  C   UNL d   1      60.733  47.924  50.542  0.00  0.00     0.199 A 
ATOM      6  N   UNL d   1      60.600  47.176  50.275  0.00  0.00    -0.221 NA
ATOM      7  C   UNL d   1      61.321  46.787  50.258  0.00  0.00     0.090 A 
ATOM      8  C   UNL d   1      61.895  47.319  50.521  0.00  0.00     0.058 A 
ATOM      9  S   UNL d   1      61.508  48.022  50.693  0.00  0.00    -0.046 SA
BRANCH   7  10
ATOM     10  C   UNL d   1      61.447  46.021  50.026  0.00  0.00     0.018 A 
ATOM     11  C   UNL d   1      61.984  45.843  49.418  0.00  0.00     0.002 A 
ATOM     12  C   UNL d   1      62.111  45.062  49.183  0.00  0.00     0.000 A 
ATOM     13  C   UNL d   1      61.709  44.456  49.546  0.00  0.00     0.000 A 
ATOM     14  C   UNL d   1      61.168  44.620  50.156  0.00  0.00     0.000 A 
ATOM     15  C   UNL d   1      61.033  45.407  50.400  0.00  0.00     0.002 A 
ENDBRANCH   7  10
ENDBRANCH   1   5
BRANCH   3  16
ATOM     16  C   UNL d   1      59.010  49.615  50.822  0.00  0.00     0.087 A 
ATOM     17  C   UNL d   1      58.344  49.522  51.244  0.00  0.00     0.032 A 
ATOM     18  C   UNL d   1      57.630  49.457  50.881  0.00  0.00     0.070 A 
ATOM     19 CL   UNL d   1      56.928  49.359  51.334  0.00  0.00    -0.081 Cl
ATOM     20  C   UNL d   1      57.568  49.484  50.090  0.00  0.00     0.068 A 
ATOM     21  C   UNL d   1      58.255  49.580  49.625  0.00  0.00     0.014 A 
ATOM     22 CL   UNL d   1      56.845  49.418  49.724  0.00  0.00    -0.082 Cl
ATOM     23  C   UNL d   1      58.970  49.645  49.987  0.00  0.00     0.020 A 
ENDBRANCH   3  16
TORSDOF 3
ENDMDL
MODEL 3
REMARK VINA RESULT:      74.2      2.075      4.725
REMARK  3 active torsions:
REMARK  status: ('A' for Active; 'I' for Inactive)
REMARK    1  A    between atoms: N_3  and  C_1 
REMARK       I    between atoms: C_5  and  N_3 
REMARK    2  A    between atoms: C_14  and  C_4 
REMARK       I    between atoms: N_8  and  C_5 
REMARK    3  A    between atoms: C_11  and  N_8 
ROOT
ATOM      1  N   UNL d   1      60.217  47.981  50.537  0.00  0.00    -0.166 NA
ATOM      2  C   UNL d   1      60.862  48.100  50.979  0.00  0.00     0.370 C 
ATOM      3  N   UNL d   1      61.438  47.538  51.022  0.00  0.00    -0.191 NA
ATOM      4  O   UNL d   1      60.959  48.802  51.404  0.00  0.00    -0.242 OA
ENDROOT
BRANCH   1   5
ATOM      5  C   UNL d   1      59.642  48.546  50.495  0.00  0.00     0.199 A 
ATOM      6  N   UNL d   1      58.852  48.413  50.573  0.00  0.00    -0.221 NA
ATOM      7  C   UNL d   1      58.469  49.133  50.494  0.00  0.00     0.090 A 
ATOM      8  C   UNL d   1      59.048  49.707  50.366  0.00  0.00     0.058 A 
ATOM      9  S   UNL d   1      59.773  49.322  50.370  0.00  0.00    -0.046 SA
BRANCH   7  10
ATOM     10  C   UNL d   1      57.670  49.258  50.534  0.00  0.00     0.018 A 
ATOM     11  C   UNL d   1      57.271  49.237  51.263  0.00  0.00     0.002 A 
ATOM     12  C   UNL d   1      56.457  49.365  51.301  0.00  0.00     0.000 A 
ATOM     13  C   UNL d   1      56.034  49.513  50.623  0.00  0.00     0.000 A 
ATOM     14  C   UNL d   1      56.421  49.537  49.887  0.00  0.00     0.000 A 
ATOM     15  C   UNL d   1      57.244  49.410  49.838  0.00  0.00     0.002 A 
ENDBRANCH   7  10
ENDBRANCH   1   5
BRANCH   3  16
ATOM     16  C   UNL d   1      61.355  46.826  50.601  0.00  0.00     0.087 A 
ATOM     17  C   UNL d   1      61.846  46.667  49.998  0.00  0.00     0.032 A 
ATOM     18  C   UNL d   1      61.780  45.983  49.580  0.00  0.00     0.070 A 
ATOM     19 CL   UNL d   1      62.303  45.820  48.942  0.00  0.00    -0.081 Cl
ATOM     20  C   UNL d   1      61.222  45.447  49.758  0.00  0.00     0.068 A 
ATOM     21  C   UNL d   1      60.694  45.593  50.389  0.00  0.00     0.014 A 
ATOM     22 CL   UNL d   1      61.156  44.756  49.335  0.00  0.00    -0.082 Cl
ATOM     23  C   UNL d   1      60.760  46.277  50.807  0.00  0.00     0.020 A 
ENDBRANCH   3  16
TORSDOF 3
ENDMDL
