MODEL 1
REMARK VINA RESULT:      41.5      0.000      0.000
REMARK  4 active torsions:
REMARK  status: ('A' for Active; 'I' for Inactive)
REMARK    1  A    between atoms: C_5  and  N_1 
REMARK    2  A    between atoms: C_7  and  C_5 
REMARK    3  A    between atoms: O_11  and  C_8 
REMARK    4  A    between atoms: C_16  and  O_11 
ROOT
ATOM      1  N   UNL d   1      14.839  13.481  -1.520  0.00  0.00    -0.251 N 
ATOM      2  C   UNL d   1      14.957  13.120  -0.775  0.00  0.00     0.378 A 
ATOM      3  C   UNL d   1      14.322  13.013  -1.955  0.00  0.00     0.092 A 
ATOM      4  O   UNL d   1      14.487  12.445  -0.825  0.00  0.00    -0.258 OA
ATOM      5  C   UNL d   1      14.114  12.359  -1.487  0.00  0.00     0.121 A 
ATOM      6  O   UNL d   1      15.440  13.406  -0.163  0.00  0.00    -0.237 OA
ATOM      7  C   UNL d   1      14.012  13.093  -2.713  0.00  0.00     0.020 A 
ATOM      8  C   UNL d   1      13.589  11.782  -1.786  0.00  0.00     0.026 A 
ATOM      9  C   UNL d   1      13.488  12.516  -3.011  0.00  0.00     0.002 A 
ATOM     10  C   UNL d   1      13.273  11.859  -2.552  0.00  0.00     0.002 A 
ATOM     11  C   UNL d   1      13.175  12.603  -3.786  0.00  0.00     0.000 C 
ENDROOT
BRANCH   1  12
ATOM     12  C   UNL d   1      15.187  14.183  -1.763  0.00  0.00     0.087 C 
BRANCH  12  13
ATOM     13  C   UNL d   1      15.121  14.864  -1.303  0.00  0.00     0.041 A 
ATOM     14  C   UNL d   1      15.043  15.596  -1.672  0.00  0.00     0.101 A 
ATOM     15  C   UNL d   1      14.977  16.275  -1.209  0.00  0.00     0.025 A 
ATOM     16  C   UNL d   1      14.989  16.225  -0.387  0.00  0.00     0.002 A 
ATOM     17  C   UNL d   1      15.067  15.484  -0.020  0.00  0.00     0.000 A 
ATOM     18  C   UNL d   1      15.133  14.805  -0.483  0.00  0.00     0.004 A 
BRANCH  14  19
ATOM     19  O   UNL d   1      15.034  15.614  -2.494  0.00  0.00    -0.307 OA
BRANCH  19  20
ATOM     20  C   UNL d   1      14.916  16.336  -2.892  0.00  0.00     0.100 C 
ATOM     21  C   UNL d   1      14.229  16.454  -3.337  0.00  0.00     0.027 C 
ATOM     22  C   UNL d   1      15.485  16.932  -2.842  0.00  0.00     0.027 C 
ENDBRANCH  19  20
ENDBRANCH  14  19
ENDBRANCH  12  13
ENDBRANCH   1  12
TORSDOF 4
ENDMDL
MODEL 2
REMARK VINA RESULT:      43.4      1.543      2.895
REMARK  4 active torsions:
REMARK  status: ('A' for Active; 'I' for Inactive)
REMARK    1  A    between atoms: C_5  and  N_1 
REMARK    2  A    between atoms: C_7  and  C_5 
REMARK    3  A    between atoms: O_11  and  C_8 
REMARK    4  A    between atoms: C_16  and  O_11 
ROOT
ATOM      1  N   UNL d   1      13.317  14.255  -3.762  0.00  0.00    -0.251 N 
ATOM      2  C   UNL d   1      12.941  14.353  -4.502  0.00  0.00     0.378 A 
ATOM      3  C   UNL d   1      13.378  13.449  -3.607  0.00  0.00     0.092 A 
ATOM      4  O   UNL d   1      12.802  13.575  -4.738  0.00  0.00    -0.258 OA
ATOM      5  C   UNL d   1      13.041  13.040  -4.247  0.00  0.00     0.121 A 
ATOM      6  O   UNL d   1      12.769  15.075  -4.872  0.00  0.00    -0.237 OA
ATOM      7  C   UNL d   1      13.693  13.034  -2.972  0.00  0.00     0.020 A 
ATOM      8  C   UNL d   1      13.023  12.206  -4.245  0.00  0.00     0.026 A 
ATOM      9  C   UNL d   1      13.675  12.199  -2.970  0.00  0.00     0.002 A 
ATOM     10  C   UNL d   1      13.341  11.780  -3.604  0.00  0.00     0.002 A 
ATOM     11  C   UNL d   1      13.998  11.779  -2.318  0.00  0.00     0.000 C 
ENDROOT
BRANCH   1  12
ATOM     12  C   UNL d   1      13.577  14.866  -3.282  0.00  0.00     0.087 C 
BRANCH  12  13
ATOM     13  C   UNL d   1      14.128  15.413  -3.561  0.00  0.00     0.041 A 
ATOM     14  C   UNL d   1      14.509  15.912  -3.028  0.00  0.00     0.101 A 
ATOM     15  C   UNL d   1      15.059  16.457  -3.311  0.00  0.00     0.025 A 
ATOM     16  C   UNL d   1      15.228  16.504  -4.116  0.00  0.00     0.002 A 
ATOM     17  C   UNL d   1      14.841  15.998  -4.649  0.00  0.00     0.000 A 
ATOM     18  C   UNL d   1      14.291  15.453  -4.366  0.00  0.00     0.004 A 
BRANCH  14  19
ATOM     19  O   UNL d   1      14.320  15.842  -2.232  0.00  0.00    -0.307 OA
BRANCH  19  20
ATOM     20  C   UNL d   1      14.848  16.123  -1.653  0.00  0.00     0.100 C 
ATOM     21  C   UNL d   1      15.183  15.597  -1.109  0.00  0.00     0.027 C 
ATOM     22  C   UNL d   1      15.036  16.926  -1.623  0.00  0.00     0.027 C 
ENDBRANCH  19  20
ENDBRANCH  14  19
ENDBRANCH  12  13
ENDBRANCH   1  12
TORSDOF 4
ENDMDL
