MODEL 1
REMARK VINA RESULT:      -3.1      0.000      0.000
REMARK  4 active torsions:
REMARK  status: ('A' for Active; 'I' for Inactive)
REMARK    1  A    between atoms: C_2  and  C_1 
REMARK    2  A    between atoms: C_3  and  C_1 
REMARK    3  A    between atoms: C_4  and  C_2 
REMARK    4  A    between atoms: C_9  and  C_3 
ROOT
ATOM      1  C   UNL d   1      31.061  16.320 -23.968  0.00  0.00     0.196 C 
ATOM      2  O   UNL d   1      31.521  15.733 -24.320  0.00  0.00    -0.287 OA
ENDROOT
BRANCH   1   3
ATOM      3  C   UNL d   1      31.411  17.041 -23.750  0.00  0.00     0.042 C 
BRANCH   3   4
ATOM      4  C   UNL d   1      32.221  17.154 -23.852  0.00  0.00     0.005 C 
BRANCH   4   5
ATOM      5  C   UNL d   1      32.560  17.876 -23.653  0.00  0.00     0.019 A 
ATOM      6  C   UNL d   1      32.594  18.486 -24.211  0.00  0.00     0.099 A 
ATOM      7  N   UNL d   1      32.933  19.209 -24.011  0.00  0.00    -0.242 NA
ATOM      8  C   UNL d   1      33.241  19.327 -23.251  0.00  0.00     0.099 A 
ATOM      9  C   UNL d   1      33.209  18.722 -22.694  0.00  0.00     0.021 A 
ATOM     10  C   UNL d   1      32.868  17.995 -22.892  0.00  0.00     0.003 A 
ENDBRANCH   4   5
ENDBRANCH   3   4
ENDBRANCH   1   3
BRANCH   1  11
ATOM     11  C   UNL d   1      30.260  16.192 -23.835  0.00  0.00     0.039 A 
ATOM     12  C   UNL d   1      29.707  16.539 -24.335  0.00  0.00     0.006 A 
ATOM     13  C   UNL d   1      28.902  16.412 -24.204  0.00  0.00     0.042 A 
ATOM     14  C   UNL d   1      28.653  15.934 -23.568  0.00  0.00     0.196 A 
ATOM     15  C   UNL d   1      29.214  15.590 -23.071  0.00  0.00     0.042 A 
ATOM     16  O   UNL d   1      27.846  15.809 -23.440  0.00  0.00    -0.287 OA
ATOM     17  C   UNL d   1      30.016  15.718 -23.204  0.00  0.00     0.006 A 
ENDBRANCH   1  11
TORSDOF 4
ENDMDL
MODEL 2
REMARK VINA RESULT:      -2.9      3.172      5.224
REMARK  4 active torsions:
REMARK  status: ('A' for Active; 'I' for Inactive)
REMARK    1  A    between atoms: C_2  and  C_1 
REMARK    2  A    between atoms: C_3  and  C_1 
REMARK    3  A    between atoms: C_4  and  C_2 
REMARK    4  A    between atoms: C_9  and  C_3 
ROOT
ATOM      1  C   UNL d   1      32.993  20.231 -21.682  0.00  0.00     0.196 C 
ATOM      2  O   UNL d   1      33.241  19.739 -21.067  0.00  0.00    -0.287 OA
ENDROOT
BRANCH   1   3
ATOM      3  C   UNL d   1      32.918  19.925 -22.450  0.00  0.00     0.042 C 
BRANCH   3   4
ATOM      4  C   UNL d   1      33.131  19.144 -22.605  0.00  0.00     0.005 C 
BRANCH   4   5
ATOM      5  C   UNL d   1      32.914  18.797 -23.318  0.00  0.00     0.019 A 
ATOM      6  C   UNL d   1      33.223  19.084 -24.029  0.00  0.00     0.099 A 
ATOM      7  N   UNL d   1      33.006  18.736 -24.743  0.00  0.00    -0.242 NA
ATOM      8  C   UNL d   1      32.478  18.098 -24.750  0.00  0.00     0.099 A 
ATOM      9  C   UNL d   1      32.169  17.811 -24.044  0.00  0.00     0.021 A 
ATOM     10  C   UNL d   1      32.385  18.158 -23.325  0.00  0.00     0.003 A 
ENDBRANCH   4   5
ENDBRANCH   3   4
ENDBRANCH   1   3
BRANCH   1  11
ATOM     11  C   UNL d   1      32.822  21.022 -21.532  0.00  0.00     0.039 A 
ATOM     12  C   UNL d   1      33.205  21.606 -21.964  0.00  0.00     0.006 A 
ATOM     13  C   UNL d   1      33.035  22.400 -21.816  0.00  0.00     0.042 A 
ATOM     14  C   UNL d   1      32.477  22.607 -21.233  0.00  0.00     0.196 A 
ATOM     15  C   UNL d   1      32.096  22.013 -20.804  0.00  0.00     0.042 A 
ATOM     16  O   UNL d   1      32.309  23.403 -21.088  0.00  0.00    -0.287 OA
ATOM     17  C   UNL d   1      32.268  21.223 -20.953  0.00  0.00     0.006 A 
ENDBRANCH   1  11
TORSDOF 4
ENDMDL
MODEL 3
REMARK VINA RESULT:      -2.5      3.136      4.630
REMARK  4 active torsions:
REMARK  status: ('A' for Active; 'I' for Inactive)
REMARK    1  A    between atoms: C_2  and  C_1 
REMARK    2  A    between atoms: C_3  and  C_1 
REMARK    3  A    between atoms: C_4  and  C_2 
REMARK    4  A    between atoms: C_9  and  C_3 
ROOT
ATOM      1  C   UNL d   1      33.109  19.658 -22.122  0.00  0.00     0.196 C 
ATOM      2  O   UNL d   1      33.241  19.227 -21.431  0.00  0.00    -0.287 OA
ENDROOT
BRANCH   1   3
ATOM      3  C   UNL d   1      33.040  20.485 -22.085  0.00  0.00     0.042 C 
BRANCH   3   4
ATOM      4  C   UNL d   1      33.015  20.864 -21.354  0.00  0.00     0.005 C 
BRANCH   4   5
ATOM      5  C   UNL d   1      32.762  21.645 -21.309  0.00  0.00     0.019 A 
ATOM      6  C   UNL d   1      32.031  21.825 -20.965  0.00  0.00     0.099 A 
ATOM      7  N   UNL d   1      31.778  22.606 -20.920  0.00  0.00    -0.242 NA
ATOM      8  C   UNL d   1      32.254  23.215 -21.220  0.00  0.00     0.099 A 
ATOM      9  C   UNL d   1      32.981  23.039 -21.562  0.00  0.00     0.021 A 
ATOM     10  C   UNL d   1      33.238  22.254 -21.609  0.00  0.00     0.003 A 
ENDBRANCH   4   5
ENDBRANCH   3   4
ENDBRANCH   1   3
BRANCH   1  11
ATOM     11  C   UNL d   1      33.045  19.269 -22.844  0.00  0.00     0.039 A 
ATOM     12  C   UNL d   1      33.237  19.668 -23.535  0.00  0.00     0.006 A 
ATOM     13  C   UNL d   1      33.174  19.280 -24.261  0.00  0.00     0.042 A 
ATOM     14  C   UNL d   1      32.917  18.488 -24.290  0.00  0.00     0.196 A 
ATOM     15  C   UNL d   1      32.727  18.094 -23.591  0.00  0.00     0.042 A 
ATOM     16  O   UNL d   1      32.855  18.102 -25.019  0.00  0.00    -0.287 OA
ATOM     17  C   UNL d   1      32.790  18.483 -22.869  0.00  0.00     0.006 A 
ENDBRANCH   1  11
TORSDOF 4
ENDMDL
MODEL 4
REMARK VINA RESULT:      -2.2      2.110      4.367
REMARK  4 active torsions:
REMARK  status: ('A' for Active; 'I' for Inactive)
REMARK    1  A    between atoms: C_2  and  C_1 
REMARK    2  A    between atoms: C_3  and  C_1 
REMARK    3  A    between atoms: C_4  and  C_2 
REMARK    4  A    between atoms: C_9  and  C_3 
ROOT
ATOM      1  C   UNL d   1      32.728  18.519 -23.802  0.00  0.00     0.196 C 
ATOM      2  O   UNL d   1      33.240  18.502 -24.448  0.00  0.00    -0.287 OA
ENDROOT
BRANCH   1   3
ATOM      3  C   UNL d   1      32.084  17.996 -23.773  0.00  0.00     0.042 C 
BRANCH   3   4
ATOM      4  C   UNL d   1      31.896  17.537 -24.432  0.00  0.00     0.005 C 
BRANCH   4   5
ATOM      5  C   UNL d   1      31.225  17.061 -24.418  0.00  0.00     0.019 A 
ATOM      6  C   UNL d   1      31.262  16.303 -24.089  0.00  0.00     0.099 A 
ATOM      7  N   UNL d   1      30.592  15.827 -24.075  0.00  0.00    -0.242 NA
ATOM      8  C   UNL d   1      29.878  16.105 -24.391  0.00  0.00     0.099 A 
ATOM      9  C   UNL d   1      29.839  16.859 -24.719  0.00  0.00     0.021 A 
ATOM     10  C   UNL d   1      30.511  17.339 -24.734  0.00  0.00     0.003 A 
ENDBRANCH   4   5
ENDBRANCH   3   4
ENDBRANCH   1   3
BRANCH   1  11
ATOM     11  C   UNL d   1      32.856  19.052 -23.188  0.00  0.00     0.039 A 
ATOM     12  C   UNL d   1      33.003  18.770 -22.432  0.00  0.00     0.006 A 
ATOM     13  C   UNL d   1      33.131  19.303 -21.815  0.00  0.00     0.042 A 
ATOM     14  C   UNL d   1      33.112  20.123 -21.960  0.00  0.00     0.196 A 
ATOM     15  C   UNL d   1      32.963  20.398 -22.723  0.00  0.00     0.042 A 
ATOM     16  O   UNL d   1      33.241  20.653 -21.340  0.00  0.00    -0.287 OA
ATOM     17  C   UNL d   1      32.836  19.865 -23.336  0.00  0.00     0.006 A 
ENDBRANCH   1  11
TORSDOF 4
ENDMDL
MODEL 5
REMARK VINA RESULT:      -1.5      5.825      7.724
REMARK  4 active torsions:
REMARK  status: ('A' for Active; 'I' for Inactive)
REMARK    1  A    between atoms: C_2  and  C_1 
REMARK    2  A    between atoms: C_3  and  C_1 
REMARK    3  A    between atoms: C_4  and  C_2 
REMARK    4  A    between atoms: C_9  and  C_3 
ROOT
ATOM      1  C   UNL d   1      32.748  23.033 -19.414  0.00  0.00     0.196 C 
ATOM      2  O   UNL d   1      32.496  23.702 -19.825  0.00  0.00    -0.287 OA
ENDROOT
BRANCH   1   3
ATOM      3  C   UNL d   1      32.949  22.344 -19.832  0.00  0.00     0.042 C 
BRANCH   3   4
ATOM      4  C   UNL d   1      32.426  22.033 -20.389  0.00  0.00     0.005 C 
BRANCH   4   5
ATOM      5  C   UNL d   1      32.688  21.461 -20.918  0.00  0.00     0.019 A 
ATOM      6  C   UNL d   1      32.676  21.612 -21.731  0.00  0.00     0.099 A 
ATOM      7  N   UNL d   1      32.939  21.040 -22.261  0.00  0.00    -0.242 NA
ATOM      8  C   UNL d   1      33.215  20.310 -21.980  0.00  0.00     0.099 A 
ATOM      9  C   UNL d   1      33.227  20.158 -21.172  0.00  0.00     0.021 A 
ATOM     10  C   UNL d   1      32.964  20.731 -20.638  0.00  0.00     0.003 A 
ENDBRANCH   4   5
ENDBRANCH   3   4
ENDBRANCH   1   3
BRANCH   1  11
ATOM     11  C   UNL d   1      32.800  23.048 -18.593  0.00  0.00     0.039 A 
ATOM     12  C   UNL d   1      33.188  22.440 -18.202  0.00  0.00     0.006 A 
ATOM     13  C   UNL d   1      33.241  22.453 -17.378  0.00  0.00     0.042 A 
ATOM     14  C   UNL d   1      32.903  23.081 -16.947  0.00  0.00     0.196 A 
ATOM     15  C   UNL d   1      32.515  23.688 -17.349  0.00  0.00     0.042 A 
ATOM     16  O   UNL d   1      32.958  23.090 -16.123  0.00  0.00    -0.287 OA
ATOM     17  C   UNL d   1      32.463  23.673 -18.169  0.00  0.00     0.006 A 
ENDBRANCH   1  11
TORSDOF 4
ENDMDL
MODEL 6
REMARK VINA RESULT:      -0.1      1.372      2.347
REMARK  4 active torsions:
REMARK  status: ('A' for Active; 'I' for Inactive)
REMARK    1  A    between atoms: C_2  and  C_1 
REMARK    2  A    between atoms: C_3  and  C_1 
REMARK    3  A    between atoms: C_4  and  C_2 
REMARK    4  A    between atoms: C_9  and  C_3 
ROOT
ATOM      1  C   UNL d   1      32.611  17.865 -23.911  0.00  0.00     0.196 C 
ATOM      2  O   UNL d   1      33.241  17.792 -24.438  0.00  0.00    -0.287 OA
ENDROOT
BRANCH   1   3
ATOM      3  C   UNL d   1      32.648  18.426 -23.300  0.00  0.00     0.042 C 
BRANCH   3   4
ATOM      4  C   UNL d   1      33.217  19.022 -23.323  0.00  0.00     0.005 C 
BRANCH   4   5
ATOM      5  C   UNL d   1      33.225  19.600 -22.737  0.00  0.00     0.019 A 
ATOM      6  C   UNL d   1      33.233  19.382 -21.940  0.00  0.00     0.099 A 
ATOM      7  N   UNL d   1      33.240  19.960 -21.354  0.00  0.00    -0.242 NA
ATOM      8  C   UNL d   1      33.240  20.762 -21.563  0.00  0.00     0.099 A 
ATOM      9  C   UNL d   1      33.233  20.982 -22.356  0.00  0.00     0.021 A 
ATOM     10  C   UNL d   1      33.225  20.403 -22.946  0.00  0.00     0.003 A 
ENDBRANCH   4   5
ENDBRANCH   3   4
ENDBRANCH   1   3
BRANCH   1  11
ATOM     11  C   UNL d   1      31.949  17.383 -23.990  0.00  0.00     0.039 A 
ATOM     12  C   UNL d   1      31.914  16.674 -23.577  0.00  0.00     0.006 A 
ATOM     13  C   UNL d   1      31.251  16.189 -23.655  0.00  0.00     0.042 A 
ATOM     14  C   UNL d   1      30.622  16.417 -24.150  0.00  0.00     0.196 A 
ATOM     15  C   UNL d   1      30.665  17.131 -24.562  0.00  0.00     0.042 A 
ATOM     16  O   UNL d   1      29.959  15.928 -24.226  0.00  0.00    -0.287 OA
ATOM     17  C   UNL d   1      31.327  17.613 -24.483  0.00  0.00     0.006 A 
ENDBRANCH   1  11
TORSDOF 4
ENDMDL
