MODEL 1
REMARK VINA RESULT:      -4.5      0.000      0.000
REMARK  5 active torsions:
REMARK  status: ('A' for Active; 'I' for Inactive)
REMARK    1  A    between atoms: C_4  and  S_1 
REMARK    2  A    between atoms: N_5  and  S_1 
REMARK    3  A    between atoms: C_2  and  C_9 
REMARK       I    between atoms: N_3  and  C_2 
REMARK    4  A    between atoms: C_8  and  N_3 
REMARK    5  A    between atoms: O_16  and  C_11 
ROOT
ATOM      1  C   UNL d   1     -41.639-123.113 -50.129  0.00  0.00     0.104 A 
ATOM      2  C   UNL d   1     -41.548-123.132 -51.805  0.00  0.00     0.058 A 
ATOM      3  C   UNL d   1     -41.394-122.476 -50.537  0.00  0.00     0.013 A 
ATOM      4  C   UNL d   1     -41.845-123.774 -50.551  0.00  0.00     0.013 A 
ATOM      5  C   UNL d   1     -41.811-123.815 -51.374  0.00  0.00     0.005 A 
ATOM      6  C   UNL d   1     -41.348-122.483 -51.365  0.00  0.00     0.005 A 
ENDROOT
BRANCH   2   7
ATOM      7  C   UNL d   1     -41.501-123.139 -52.653  0.00  0.00     0.279 C 
ATOM      8  N   UNL d   1     -41.786-122.561 -53.095  0.00  0.00    -0.206 NA
ATOM      9  O   UNL d   1     -41.124-123.816 -53.006  0.00  0.00    -0.265 OA
BRANCH   8  10
ATOM     10  C   UNL d   1     -41.726-122.594 -53.917  0.00  0.00     0.107 A 
ATOM     11  C   UNL d   1     -42.178-122.097 -54.367  0.00  0.00     0.112 A 
ATOM     12  C   UNL d   1     -42.117-122.131 -55.189  0.00  0.00     0.026 A 
ATOM     13  C   UNL d   1     -41.606-122.661 -55.561  0.00  0.00     0.002 A 
ATOM     14  C   UNL d   1     -41.143-123.171 -55.085  0.00  0.00     0.002 A 
ATOM     15  C   UNL d   1     -41.207-123.133 -54.264  0.00  0.00     0.021 A 
BRANCH  11  16
ATOM     16  O   UNL d   1     -42.634-121.624 -54.010  0.00  0.00    -0.327 OA
ATOM     17  C   UNL d   1     -43.334-121.349 -54.629  0.00  0.00     0.181 C 
ENDBRANCH  11  16
ENDBRANCH   8  10
ENDBRANCH   2   7
BRANCH   1  18
ATOM     18  S   UNL d   1     -41.712-123.175 -49.246  0.00  0.00     0.271 S 
ATOM     19  O   UNL d   1     -41.144-123.792 -49.172  0.00  0.00    -0.200 OA
ATOM     20  O   UNL d   1     -42.255-122.584 -49.322  0.00  0.00    -0.200 OA
BRANCH  18  21
ATOM     21  N   UNL d   1     -41.834-123.183 -48.375  0.00  0.00    -0.226 N 
ATOM     22  C   UNL d   1     -42.544-122.911 -48.052  0.00  0.00     0.111 C 
ATOM     23  C   UNL d   1     -41.227-123.466 -47.874  0.00  0.00     0.111 C 
ENDBRANCH  18  21
ENDBRANCH   1  18
TORSDOF 5
ENDMDL
MODEL 2
REMARK VINA RESULT:      -4.5      1.574      5.032
REMARK  5 active torsions:
REMARK  status: ('A' for Active; 'I' for Inactive)
REMARK    1  A    between atoms: C_4  and  S_1 
REMARK    2  A    between atoms: N_5  and  S_1 
REMARK    3  A    between atoms: C_2  and  C_9 
REMARK       I    between atoms: N_3  and  C_2 
REMARK    4  A    between atoms: C_8  and  N_3 
REMARK    5  A    between atoms: O_16  and  C_11 
ROOT
ATOM      1  C   UNL d   1     -41.708-122.416 -53.462  0.00  0.00     0.104 A 
ATOM      2  C   UNL d   1     -41.640-122.531 -51.789  0.00  0.00     0.058 A 
ATOM      3  C   UNL d   1     -41.165-122.871 -53.101  0.00  0.00     0.013 A 
ATOM      4  C   UNL d   1     -42.229-122.009 -52.994  0.00  0.00     0.013 A 
ATOM      5  C   UNL d   1     -42.222-122.044 -52.170  0.00  0.00     0.005 A 
ATOM      6  C   UNL d   1     -41.129-122.930 -52.274  0.00  0.00     0.005 A 
ENDROOT
BRANCH   2   7
ATOM      7  C   UNL d   1     -41.604-122.591 -50.943  0.00  0.00     0.279 C 
ATOM      8  N   UNL d   1     -41.988-123.143 -50.543  0.00  0.00    -0.206 NA
ATOM      9  O   UNL d   1     -41.123-122.014 -50.542  0.00  0.00    -0.265 OA
BRANCH   8  10
ATOM     10  C   UNL d   1     -41.934-123.177 -49.720  0.00  0.00     0.107 A 
ATOM     11  C   UNL d   1     -42.612-123.216 -49.281  0.00  0.00     0.112 A 
ATOM     12  C   UNL d   1     -42.557-123.251 -48.459  0.00  0.00     0.026 A 
ATOM     13  C   UNL d   1     -41.826-123.246 -48.076  0.00  0.00     0.002 A 
ATOM     14  C   UNL d   1     -41.131-123.206 -48.541  0.00  0.00     0.002 A 
ATOM     15  C   UNL d   1     -41.191-123.171 -49.363  0.00  0.00     0.021 A 
BRANCH  11  16
ATOM     16  O   UNL d   1     -43.263-123.219 -49.648  0.00  0.00    -0.327 OA
ATOM     17  C   UNL d   1     -43.874-123.817 -49.182  0.00  0.00     0.181 C 
ENDBRANCH  11  16
ENDBRANCH   8  10
ENDBRANCH   2   7
BRANCH   1  18
ATOM     18  S   UNL d   1     -41.802-122.308 -54.339  0.00  0.00     0.271 S 
ATOM     19  O   UNL d   1     -42.512-121.857 -54.277  0.00  0.00    -0.200 OA
ATOM     20  O   UNL d   1     -41.123-122.739 -54.392  0.00  0.00    -0.200 OA
BRANCH  18  21
ATOM     21  N   UNL d   1     -41.835-122.239 -55.215  0.00  0.00    -0.226 N 
ATOM     22  C   UNL d   1     -41.174-122.431 -55.671  0.00  0.00     0.111 C 
ATOM     23  C   UNL d   1     -42.538-121.978 -55.585  0.00  0.00     0.111 C 
ENDBRANCH  18  21
ENDBRANCH   1  18
TORSDOF 5
ENDMDL
