MODEL 1
REMARK VINA RESULT:     -10.2      0.000      0.000
REMARK  2 active torsions:
REMARK  status: ('A' for Active; 'I' for Inactive)
REMARK    1  A    between atoms: C_2  and  C_1 
REMARK    2  A    between atoms: C_14  and  C_8 
ROOT
ATOM      1  C   UNL d   1     -46.652  13.446  22.657  0.00  0.00     0.106 A 
ATOM      2  C   UNL d   1     -46.578  14.207  22.944  0.00  0.00     0.304 A 
ATOM      3  C   UNL d   1     -47.383  13.193  22.361  0.00  0.00     0.011 A 
ATOM      4  C   UNL d   1     -48.028  13.695  22.352  0.00  0.00     0.023 A 
ATOM      5  O   UNL d   1     -47.230  14.746  22.945  0.00  0.00    -0.273 OA
ATOM      6  C   UNL d   1     -47.953  14.457  22.639  0.00  0.00     0.103 A 
ATOM      7  C   UNL d   1     -48.758  13.443  22.056  0.00  0.00     0.002 A 
ATOM      8  O   UNL d   1     -45.822  14.465  23.249  0.00  0.00    -0.259 OA
ATOM      9  C   UNL d   1     -48.606  14.995  22.641  0.00  0.00     0.025 A 
ATOM     10  C   UNL d   1     -49.408  13.946  22.046  0.00  0.00     0.000 A 
ATOM     11  C   UNL d   1     -49.334  14.707  22.333  0.00  0.00     0.002 A 
ATOM     12  C   UNL d   1     -48.834  12.666  21.764  0.00  0.00     0.000 A 
ATOM     13  C   UNL d   1     -50.139  13.693  21.750  0.00  0.00     0.000 A 
ATOM     14  C   UNL d   1     -49.559  12.408  21.468  0.00  0.00     0.000 A 
ATOM     15  C   UNL d   1     -50.230  12.919  21.455  0.00  0.00     0.000 A 
ENDROOT
BRANCH   1  16
ATOM     16  C   UNL d   1     -45.996  12.942  22.669  0.00  0.00     0.210 A 
ATOM     17  O   UNL d   1     -45.894  12.231  23.077  0.00  0.00    -0.268 OA
ATOM     18  C   UNL d   1     -45.143  11.955  22.896  0.00  0.00     0.204 A 
ATOM     19  N   UNL d   1     -44.784  12.482  22.386  0.00  0.00    -0.121 NA
ATOM     20  N   UNL d   1     -45.305  13.097  22.239  0.00  0.00    -0.121 NA
BRANCH  18  21
ATOM     21  C   UNL d   1     -44.750  11.282  23.142  0.00  0.00     0.043 A 
ATOM     22  C   UNL d   1     -45.166  10.654  23.448  0.00  0.00     0.004 A 
ATOM     23  C   UNL d   1     -44.773   9.969  23.698  0.00  0.00     0.000 A 
ATOM     24  C   UNL d   1     -43.965   9.924  23.638  0.00  0.00     0.000 A 
ATOM     25  C   UNL d   1     -43.549  10.563  23.327  0.00  0.00     0.000 A 
ATOM     26  C   UNL d   1     -43.936  11.239  23.080  0.00  0.00     0.004 A 
ENDBRANCH  18  21
ENDBRANCH   1  16
TORSDOF 2
ENDMDL
MODEL 2
REMARK VINA RESULT:      -7.9      7.666      8.745
REMARK  2 active torsions:
REMARK  status: ('A' for Active; 'I' for Inactive)
REMARK    1  A    between atoms: C_2  and  C_1 
REMARK    2  A    between atoms: C_14  and  C_8 
ROOT
ATOM      1  C   UNL d   1     -40.016  14.859  19.423  0.00  0.00     0.106 A 
ATOM      2  C   UNL d   1     -40.481  15.498  19.217  0.00  0.00     0.304 A 
ATOM      3  C   UNL d   1     -39.585  14.465  18.838  0.00  0.00     0.011 A 
ATOM      4  C   UNL d   1     -39.619  14.706  18.057  0.00  0.00     0.023 A 
ATOM      5  O   UNL d   1     -40.533  15.768  18.416  0.00  0.00    -0.273 OA
ATOM      6  C   UNL d   1     -40.084  15.345  17.850  0.00  0.00     0.103 A 
ATOM      7  C   UNL d   1     -39.188  14.311  17.472  0.00  0.00     0.002 A 
ATOM      8  O   UNL d   1     -40.925  15.904  19.825  0.00  0.00    -0.259 OA
ATOM      9  C   UNL d   1     -40.137  15.614  17.050  0.00  0.00     0.025 A 
ATOM     10  C   UNL d   1     -39.221  14.552  16.686  0.00  0.00     0.000 A 
ATOM     11  C   UNL d   1     -39.686  15.191  16.479  0.00  0.00     0.002 A 
ATOM     12  C   UNL d   1     -38.714  13.660  17.682  0.00  0.00     0.000 A 
ATOM     13  C   UNL d   1     -38.790  14.157  16.100  0.00  0.00     0.000 A 
ATOM     14  C   UNL d   1     -38.282  13.261  17.104  0.00  0.00     0.000 A 
ATOM     15  C   UNL d   1     -38.311  13.504  16.296  0.00  0.00     0.000 A 
ENDROOT
BRANCH   1  16
ATOM     16  C   UNL d   1     -39.985  14.619  20.215  0.00  0.00     0.210 A 
ATOM     17  O   UNL d   1     -39.359  14.677  20.751  0.00  0.00    -0.268 OA
ATOM     18  C   UNL d   1     -39.619  14.356  21.460  0.00  0.00     0.204 A 
ATOM     19  N   UNL d   1     -40.390  14.104  21.369  0.00  0.00    -0.121 NA
ATOM     20  N   UNL d   1     -40.625  14.263  20.600  0.00  0.00    -0.121 NA
BRANCH  18  21
ATOM     21  C   UNL d   1     -39.236  14.268  22.177  0.00  0.00     0.043 A 
ATOM     22  C   UNL d   1     -39.068  13.526  22.463  0.00  0.00     0.004 A 
ATOM     23  C   UNL d   1     -38.680  13.431  23.188  0.00  0.00     0.000 A 
ATOM     24  C   UNL d   1     -38.464  14.085  23.618  0.00  0.00     0.000 A 
ATOM     25  C   UNL d   1     -38.636  14.834  23.323  0.00  0.00     0.000 A 
ATOM     26  C   UNL d   1     -39.020  14.928  22.607  0.00  0.00     0.004 A 
ENDBRANCH  18  21
ENDBRANCH   1  16
TORSDOF 2
ENDMDL
MODEL 3
REMARK VINA RESULT:      -7.6      7.677      9.404
REMARK  2 active torsions:
REMARK  status: ('A' for Active; 'I' for Inactive)
REMARK    1  A    between atoms: C_2  and  C_1 
REMARK    2  A    between atoms: C_14  and  C_8 
ROOT
ATOM      1  C   UNL d   1     -39.774  14.554  19.127  0.00  0.00     0.106 A 
ATOM      2  C   UNL d   1     -40.365  15.093  19.292  0.00  0.00     0.304 A 
ATOM      3  C   UNL d   1     -39.325  14.240  19.747  0.00  0.00     0.011 A 
ATOM      4  C   UNL d   1     -39.465  14.464  20.521  0.00  0.00     0.023 A 
ATOM      5  O   UNL d   1     -40.529  15.341  20.085  0.00  0.00    -0.273 OA
ATOM      6  C   UNL d   1     -40.056  15.004  20.687  0.00  0.00     0.103 A 
ATOM      7  C   UNL d   1     -39.016  14.151  21.142  0.00  0.00     0.002 A 
ATOM      8  O   UNL d   1     -40.827  15.415  18.649  0.00  0.00    -0.259 OA
ATOM      9  C   UNL d   1     -40.220  15.252  21.479  0.00  0.00     0.025 A 
ATOM     10  C   UNL d   1     -39.155  14.375  21.921  0.00  0.00     0.000 A 
ATOM     11  C   UNL d   1     -39.745  14.915  22.086  0.00  0.00     0.002 A 
ATOM     12  C   UNL d   1     -38.414  13.601  20.973  0.00  0.00     0.000 A 
ATOM     13  C   UNL d   1     -38.706  14.062  22.541  0.00  0.00     0.000 A 
ATOM     14  C   UNL d   1     -37.962  13.285  21.586  0.00  0.00     0.000 A 
ATOM     15  C   UNL d   1     -38.100  13.511  22.388  0.00  0.00     0.000 A 
ENDROOT
BRANCH   1  16
ATOM     16  C   UNL d   1     -39.636  14.330  18.342  0.00  0.00     0.210 A 
ATOM     17  O   UNL d   1     -39.061  14.605  17.817  0.00  0.00    -0.268 OA
ATOM     18  C   UNL d   1     -39.168  14.202  17.110  0.00  0.00     0.204 A 
ATOM     19  N   UNL d   1     -39.795  13.686  17.193  0.00  0.00    -0.121 NA
ATOM     20  N   UNL d   1     -40.093  13.759  17.953  0.00  0.00    -0.121 NA
BRANCH  18  21
ATOM     21  C   UNL d   1     -38.760  14.250  16.404  0.00  0.00     0.043 A 
ATOM     22  C   UNL d   1     -38.616  14.975  16.063  0.00  0.00     0.004 A 
ATOM     23  C   UNL d   1     -38.203  15.029  15.347  0.00  0.00     0.000 A 
ATOM     24  C   UNL d   1     -37.939  14.354  14.982  0.00  0.00     0.000 A 
ATOM     25  C   UNL d   1     -38.088  13.623  15.331  0.00  0.00     0.000 A 
ATOM     26  C   UNL d   1     -38.496  13.569  16.038  0.00  0.00     0.004 A 
ENDBRANCH  18  21
ENDBRANCH   1  16
TORSDOF 2
ENDMDL
MODEL 4
REMARK VINA RESULT:      -7.4      2.702      3.837
REMARK  2 active torsions:
REMARK  status: ('A' for Active; 'I' for Inactive)
REMARK    1  A    between atoms: C_2  and  C_1 
REMARK    2  A    between atoms: C_14  and  C_8 
ROOT
ATOM      1  C   UNL d   1     -44.300  12.663  22.137  0.00  0.00     0.106 A 
ATOM      2  C   UNL d   1     -44.264  11.949  22.533  0.00  0.00     0.304 A 
ATOM      3  C   UNL d   1     -44.982  13.127  22.199  0.00  0.00     0.011 A 
ATOM      4  C   UNL d   1     -45.618  12.880  22.650  0.00  0.00     0.023 A 
ATOM      5  O   UNL d   1     -44.909  11.672  23.006  0.00  0.00    -0.273 OA
ATOM      6  C   UNL d   1     -45.582  12.167  23.046  0.00  0.00     0.103 A 
ATOM      7  C   UNL d   1     -46.300  13.345  22.712  0.00  0.00     0.002 A 
ATOM      8  O   UNL d   1     -43.558  11.472  22.467  0.00  0.00    -0.259 OA
ATOM      9  C   UNL d   1     -46.227  11.889  23.519  0.00  0.00     0.025 A 
ATOM     10  C   UNL d   1     -46.941  13.099  23.165  0.00  0.00     0.000 A 
ATOM     11  C   UNL d   1     -46.905  12.385  23.561  0.00  0.00     0.002 A 
ATOM     12  C   UNL d   1     -46.337  14.073  22.309  0.00  0.00     0.000 A 
ATOM     13  C   UNL d   1     -47.623  13.563  23.227  0.00  0.00     0.000 A 
ATOM     14  C   UNL d   1     -47.014  14.541  22.366  0.00  0.00     0.000 A 
ATOM     15  C   UNL d   1     -47.675  14.294  22.829  0.00  0.00     0.000 A 
ENDROOT
BRANCH   1  16
ATOM     16  C   UNL d   1     -43.654  12.908  21.682  0.00  0.00     0.210 A 
ATOM     17  O   UNL d   1     -43.071  13.464  21.864  0.00  0.00    -0.268 OA
ATOM     18  C   UNL d   1     -42.561  13.498  21.222  0.00  0.00     0.204 A 
ATOM     19  N   UNL d   1     -42.820  12.974  20.652  0.00  0.00    -0.121 NA
ATOM     20  N   UNL d   1     -43.497  12.603  20.928  0.00  0.00    -0.121 NA
BRANCH  18  21
ATOM     21  C   UNL d   1     -41.891  13.949  21.099  0.00  0.00     0.043 A 
ATOM     22  C   UNL d   1     -41.958  14.736  20.907  0.00  0.00     0.004 A 
ATOM     23  C   UNL d   1     -41.282  15.198  20.780  0.00  0.00     0.000 A 
ATOM     24  C   UNL d   1     -40.546  14.862  20.848  0.00  0.00     0.000 A 
ATOM     25  C   UNL d   1     -40.485  14.064  21.043  0.00  0.00     0.000 A 
ATOM     26  C   UNL d   1     -41.152  13.608  21.168  0.00  0.00     0.004 A 
ENDBRANCH  18  21
ENDBRANCH   1  16
TORSDOF 2
ENDMDL
MODEL 5
REMARK VINA RESULT:      -7.3      1.271      4.789
REMARK  2 active torsions:
REMARK  status: ('A' for Active; 'I' for Inactive)
REMARK    1  A    between atoms: C_2  and  C_1 
REMARK    2  A    between atoms: C_14  and  C_8 
ROOT
ATOM      1  C   UNL d   1     -46.328  12.888  22.655  0.00  0.00     0.106 A 
ATOM      2  C   UNL d   1     -45.910  13.458  22.244  0.00  0.00     0.304 A 
ATOM      3  C   UNL d   1     -45.938  12.206  22.912  0.00  0.00     0.011 A 
ATOM      4  C   UNL d   1     -45.142  12.095  22.761  0.00  0.00     0.023 A 
ATOM      5  O   UNL d   1     -45.086  13.366  22.074  0.00  0.00    -0.273 OA
ATOM      6  C   UNL d   1     -44.724  12.664  22.350  0.00  0.00     0.103 A 
ATOM      7  C   UNL d   1     -44.752  11.412  23.019  0.00  0.00     0.002 A 
ATOM      8  O   UNL d   1     -46.317  14.162  21.979  0.00  0.00    -0.259 OA
ATOM      9  C   UNL d   1     -43.900  12.573  22.180  0.00  0.00     0.025 A 
ATOM     10  C   UNL d   1     -43.952  11.298  22.867  0.00  0.00     0.000 A 
ATOM     11  C   UNL d   1     -43.534  11.867  22.456  0.00  0.00     0.002 A 
ATOM     12  C   UNL d   1     -45.178  10.832  23.438  0.00  0.00     0.000 A 
ATOM     13  C   UNL d   1     -43.562  10.615  23.125  0.00  0.00     0.000 A 
ATOM     14  C   UNL d   1     -44.796  10.149  23.697  0.00  0.00     0.000 A 
ATOM     15  C   UNL d   1     -43.975  10.026  23.545  0.00  0.00     0.000 A 
ENDROOT
BRANCH   1  16
ATOM     16  C   UNL d   1     -47.133  13.006  22.806  0.00  0.00     0.210 A 
ATOM     17  O   UNL d   1     -47.785  12.612  22.485  0.00  0.00    -0.268 OA
ATOM     18  C   UNL d   1     -48.456  12.942  22.822  0.00  0.00     0.204 A 
ATOM     19  N   UNL d   1     -48.228  13.530  23.341  0.00  0.00    -0.121 NA
ATOM     20  N   UNL d   1     -47.410  13.576  23.338  0.00  0.00    -0.121 NA
BRANCH  18  21
ATOM     21  C   UNL d   1     -49.247  12.770  22.710  0.00  0.00     0.043 A 
ATOM     22  C   UNL d   1     -49.644  13.070  22.066  0.00  0.00     0.004 A 
ATOM     23  C   UNL d   1     -50.446  12.899  21.948  0.00  0.00     0.000 A 
ATOM     24  C   UNL d   1     -50.839  12.428  22.479  0.00  0.00     0.000 A 
ATOM     25  C   UNL d   1     -50.432  12.127  23.128  0.00  0.00     0.000 A 
ATOM     26  C   UNL d   1     -49.641  12.296  23.245  0.00  0.00     0.004 A 
ENDBRANCH  18  21
ENDBRANCH   1  16
TORSDOF 2
ENDMDL
