MODEL 1
REMARK VINA RESULT:      52.3      0.000      0.000
REMARK  5 active torsions:
REMARK  status: ('A' for Active; 'I' for Inactive)
REMARK    1  A    between atoms: C_8  and  N_1 
REMARK       I    between atoms: N_2  and  C_6 
REMARK    2  A    between atoms: S_11  and  C_3 
REMARK    3  A    between atoms: C_6  and  C_8 
REMARK    4  A    between atoms: C_9  and  C_15 
REMARK       I    between atoms: N_10  and  C_9 
REMARK    5  A    between atoms: C_15  and  S_11 
ROOT
ATOM      1  N   UNL d   1      13.329  13.736  -4.163  0.00  0.00    -0.300 N 
ATOM      2  C   UNL d   1      13.088  12.584  -3.540  0.00  0.00     0.049 A 
ATOM      3  C   UNL d   1      13.280  13.379  -3.422  0.00  0.00     0.087 A 
ATOM      4  C   UNL d   1      13.020  12.453  -4.349  0.00  0.00     0.024 A 
ATOM      5  C   UNL d   1      13.169  13.167  -4.734  0.00  0.00     0.065 A 
ATOM      6  C   UNL d   1      12.841  11.779  -4.784  0.00  0.00     0.002 A 
ATOM      7  C   UNL d   1      13.140  13.208  -5.558  0.00  0.00     0.018 A 
ATOM      8  C   UNL d   1      12.811  11.814  -5.610  0.00  0.00     0.000 A 
ATOM      9  C   UNL d   1      12.962  12.534  -5.992  0.00  0.00     0.002 A 
ENDROOT
BRANCH   1  10
ATOM     10  C   UNL d   1      13.508  14.526  -4.306  0.00  0.00     0.142 C 
BRANCH  10  11
ATOM     11  C   UNL d   1      13.644  15.038  -3.678  0.00  0.00     0.283 C 
ATOM     12  N   UNL d   1      14.200  15.640  -3.750  0.00  0.00    -0.267 N 
ATOM     13  C   UNL d   1      14.339  16.154  -3.121  0.00  0.00     0.108 A 
ATOM     14  C   UNL d   1      14.623  15.734  -4.449  0.00  0.00     0.108 A 
ATOM     15  C   UNL d   1      14.895  16.756  -3.192  0.00  0.00     0.118 A 
ATOM     16  C   UNL d   1      15.034  17.277  -2.553  0.00  0.00     0.028 C 
ATOM     17  O   UNL d   1      15.321  16.854  -3.893  0.00  0.00    -0.304 OA
ATOM     18  C   UNL d   1      15.185  16.343  -4.521  0.00  0.00     0.118 A 
ATOM     19  C   UNL d   1      15.608  16.437  -5.221  0.00  0.00     0.028 C 
ATOM     20  O   UNL d   1      13.224  14.946  -2.978  0.00  0.00    -0.265 OA
ENDBRANCH  10  11
ENDBRANCH   1  10
BRANCH   2  21
ATOM     21  S   UNL d   1      12.984  12.021  -2.946  0.00  0.00    -0.080 SA
BRANCH  21  22
ATOM     22  C   UNL d   1      13.619  11.779  -2.483  0.00  0.00     0.097 C 
BRANCH  22  23
ATOM     23  C   UNL d   1      13.590  11.887  -1.659  0.00  0.00     0.272 C 
ATOM     24  N   UNL d   1      14.267  12.096  -1.248  0.00  0.00    -0.267 N 
ATOM     25  C   UNL d   1      14.227  12.200  -0.432  0.00  0.00     0.110 A 
ATOM     26  C   UNL d   1      14.978  12.201  -1.651  0.00  0.00     0.110 A 
ATOM     27  C   UNL d   1      14.910  12.412  -0.015  0.00  0.00     0.142 A 
ATOM     28  O   UNL d   1      15.632  12.518  -0.421  0.00  0.00    -0.300 OA
ATOM     29  C   UNL d   1      15.661  12.412  -1.232  0.00  0.00     0.142 A 
ATOM     30  O   UNL d   1      12.879  11.784  -1.248  0.00  0.00    -0.266 OA
ENDBRANCH  22  23
ENDBRANCH  21  22
ENDBRANCH   2  21
TORSDOF 5
ENDMDL
