MODEL 1
REMARK VINA RESULT:      -7.9      0.000      0.000
REMARK  5 active torsions:
REMARK  status: ('A' for Active; 'I' for Inactive)
REMARK    1  A    between atoms: S_6  and  C_2 
REMARK    2  A    between atoms: C_11  and  S_6 
REMARK    3  A    between atoms: C_7  and  C_11 
REMARK       I    between atoms: N_8  and  C_7 
REMARK    4  A    between atoms: C_13  and  N_8 
REMARK    5  A    between atoms: C_14  and  C_13 
ROOT
ATOM      1  S   UNL d   1      51.584  33.618  52.941  0.00  0.00    -0.080 SA
ENDROOT
BRANCH   1   2
ATOM      2  C   UNL d   1      52.259  33.457  53.387  0.00  0.00     0.049 A 
ATOM      3  C   UNL d   1      52.626  33.968  53.914  0.00  0.00     0.087 A 
ATOM      4  N   UNL d   1      53.288  33.575  54.239  0.00  0.00    -0.302 N 
ATOM      5  C   UNL d   1      53.317  32.814  53.901  0.00  0.00     0.065 A 
ATOM      6  C   UNL d   1      53.814  33.884  54.793  0.00  0.00     0.100 C 
ATOM      7  C   UNL d   1      52.684  32.741  53.376  0.00  0.00     0.024 A 
ATOM      8  C   UNL d   1      53.845  32.191  54.014  0.00  0.00     0.018 A 
ATOM      9  C   UNL d   1      52.581  32.035  52.962  0.00  0.00     0.002 A 
ATOM     10  C   UNL d   1      53.102  31.413  53.069  0.00  0.00     0.000 A 
ATOM     11  C   UNL d   1      53.735  31.486  53.594  0.00  0.00     0.002 A 
ENDBRANCH   1   2
BRANCH   1  12
ATOM     12  C   UNL d   1      51.118  34.277  53.127  0.00  0.00     0.098 C 
BRANCH  12  13
ATOM     13  C   UNL d   1      50.433  34.433  52.691  0.00  0.00     0.286 C 
ATOM     14  N   UNL d   1      49.837  34.896  53.023  0.00  0.00    -0.204 NA
ATOM     15  O   UNL d   1      50.347  34.128  51.932  0.00  0.00    -0.265 OA
BRANCH  14  16
ATOM     16  C   UNL d   1      49.151  35.052  52.588  0.00  0.00     0.127 C 
BRANCH  16  17
ATOM     17  C   UNL d   1      48.604  35.581  52.872  0.00  0.00     0.119 A 
ATOM     18  O   UNL d   1      48.654  36.007  53.577  0.00  0.00    -0.304 OA
ATOM     19  C   UNL d   1      47.971  36.480  53.644  0.00  0.00     0.123 A 
ATOM     20  C   UNL d   1      47.503  36.343  52.979  0.00  0.00     0.029 A 
ATOM     21  C   UNL d   1      47.891  35.793  52.508  0.00  0.00     0.028 A 
ENDBRANCH  16  17
ENDBRANCH  14  16
ENDBRANCH  12  13
ENDBRANCH   1  12
TORSDOF 5
ENDMDL
MODEL 2
REMARK VINA RESULT:      -7.2      2.526      5.349
REMARK  5 active torsions:
REMARK  status: ('A' for Active; 'I' for Inactive)
REMARK    1  A    between atoms: S_6  and  C_2 
REMARK    2  A    between atoms: C_11  and  S_6 
REMARK    3  A    between atoms: C_7  and  C_11 
REMARK       I    between atoms: N_8  and  C_7 
REMARK    4  A    between atoms: C_13  and  N_8 
REMARK    5  A    between atoms: C_14  and  C_13 
ROOT
ATOM      1  S   UNL d   1      52.783  32.405  53.032  0.00  0.00    -0.080 SA
ENDROOT
BRANCH   1   2
ATOM      2  C   UNL d   1      52.399  33.132  53.102  0.00  0.00     0.049 A 
ATOM      3  C   UNL d   1      51.664  33.325  52.790  0.00  0.00     0.087 A 
ATOM      4  N   UNL d   1      51.496  34.118  52.996  0.00  0.00    -0.302 N 
ATOM      5  C   UNL d   1      52.140  34.404  53.438  0.00  0.00     0.065 A 
ATOM      6  C   UNL d   1      50.815  34.538  52.797  0.00  0.00     0.100 C 
ATOM      7  C   UNL d   1      52.697  33.797  53.504  0.00  0.00     0.024 A 
ATOM      8  C   UNL d   1      52.277  35.140  53.782  0.00  0.00     0.018 A 
ATOM      9  C   UNL d   1      53.397  33.933  53.919  0.00  0.00     0.002 A 
ATOM     10  C   UNL d   1      53.539  34.662  54.263  0.00  0.00     0.000 A 
ATOM     11  C   UNL d   1      52.982  35.269  54.197  0.00  0.00     0.002 A 
ENDBRANCH   1   2
BRANCH   1  12
ATOM     12  C   UNL d   1      52.335  31.710  52.970  0.00  0.00     0.098 C 
BRANCH  12  13
ATOM     13  C   UNL d   1      52.716  30.980  52.903  0.00  0.00     0.286 C 
ATOM     14  N   UNL d   1      52.755  30.479  53.556  0.00  0.00    -0.204 NA
ATOM     15  O   UNL d   1      53.054  30.754  52.187  0.00  0.00    -0.265 OA
BRANCH  14  16
ATOM     16  C   UNL d   1      53.136  29.748  53.490  0.00  0.00     0.127 C 
BRANCH  16  17
ATOM     17  C   UNL d   1      53.236  29.284  54.148  0.00  0.00     0.119 A 
ATOM     18  O   UNL d   1      52.760  29.277  54.821  0.00  0.00    -0.304 OA
ATOM     19  C   UNL d   1      53.070  28.717  55.354  0.00  0.00     0.123 A 
ATOM     20  C   UNL d   1      53.738  28.380  55.006  0.00  0.00     0.029 A 
ATOM     21  C   UNL d   1      53.839  28.728  54.269  0.00  0.00     0.028 A 
ENDBRANCH  16  17
ENDBRANCH  14  16
ENDBRANCH  12  13
ENDBRANCH   1  12
TORSDOF 5
ENDMDL
MODEL 3
REMARK VINA RESULT:      -6.6      1.392      5.131
REMARK  5 active torsions:
REMARK  status: ('A' for Active; 'I' for Inactive)
REMARK    1  A    between atoms: S_6  and  C_2 
REMARK    2  A    between atoms: C_11  and  S_6 
REMARK    3  A    between atoms: C_7  and  C_11 
REMARK       I    between atoms: N_8  and  C_7 
REMARK    4  A    between atoms: C_13  and  N_8 
REMARK    5  A    between atoms: C_14  and  C_13 
ROOT
ATOM      1  S   UNL d   1      50.343  34.277  52.512  0.00  0.00    -0.080 SA
ENDROOT
BRANCH   1   2
ATOM      2  C   UNL d   1      49.655  34.727  52.589  0.00  0.00     0.049 A 
ATOM      3  C   UNL d   1      49.427  35.156  53.251  0.00  0.00     0.087 A 
ATOM      4  N   UNL d   1      48.696  35.524  53.082  0.00  0.00    -0.302 N 
ATOM      5  C   UNL d   1      48.482  35.311  52.306  0.00  0.00     0.065 A 
ATOM      6  C   UNL d   1      48.266  36.008  53.592  0.00  0.00     0.100 C 
ATOM      7  C   UNL d   1      49.072  34.821  52.002  0.00  0.00     0.024 A 
ATOM      8  C   UNL d   1      47.823  35.510  51.852  0.00  0.00     0.018 A 
ATOM      9  C   UNL d   1      48.999  34.527  51.234  0.00  0.00     0.002 A 
ATOM     10  C   UNL d   1      48.347  34.720  50.778  0.00  0.00     0.000 A 
ATOM     11  C   UNL d   1      47.757  35.211  51.083  0.00  0.00     0.002 A 
ENDBRANCH   1   2
BRANCH   1  12
ATOM     12  C   UNL d   1      50.919  34.305  53.106  0.00  0.00     0.098 C 
BRANCH  12  13
ATOM     13  C   UNL d   1      51.621  33.877  53.020  0.00  0.00     0.286 C 
ATOM     14  N   UNL d   1      52.151  33.834  53.649  0.00  0.00    -0.204 NA
ATOM     15  O   UNL d   1      51.788  33.496  52.310  0.00  0.00    -0.265 OA
BRANCH  14  16
ATOM     16  C   UNL d   1      52.853  33.405  53.564  0.00  0.00     0.127 C 
BRANCH  16  17
ATOM     17  C   UNL d   1      53.394  33.391  54.169  0.00  0.00     0.119 A 
ATOM     18  O   UNL d   1      53.678  34.041  54.589  0.00  0.00    -0.304 OA
ATOM     19  C   UNL d   1      54.221  33.767  55.158  0.00  0.00     0.123 A 
ATOM     20  C   UNL d   1      54.270  32.947  55.086  0.00  0.00     0.029 A 
ATOM     21  C   UNL d   1      53.763  32.718  54.482  0.00  0.00     0.028 A 
ENDBRANCH  16  17
ENDBRANCH  14  16
ENDBRANCH  12  13
ENDBRANCH   1  12
TORSDOF 5
ENDMDL
MODEL 4
REMARK VINA RESULT:      -5.6      9.894     10.735
REMARK  5 active torsions:
REMARK  status: ('A' for Active; 'I' for Inactive)
REMARK    1  A    between atoms: S_6  and  C_2 
REMARK    2  A    between atoms: C_11  and  S_6 
REMARK    3  A    between atoms: C_7  and  C_11 
REMARK       I    between atoms: N_8  and  C_7 
REMARK    4  A    between atoms: C_13  and  N_8 
REMARK    5  A    between atoms: C_14  and  C_13 
ROOT
ATOM      1  S   UNL d   1      44.947  30.141  58.986  0.00  0.00    -0.080 SA
ENDROOT
BRANCH   1   2
ATOM      2  C   UNL d   1      44.928  29.774  58.247  0.00  0.00     0.049 A 
ATOM      3  C   UNL d   1      45.078  28.981  58.095  0.00  0.00     0.087 A 
ATOM      4  N   UNL d   1      44.996  28.855  57.273  0.00  0.00    -0.302 N 
ATOM      5  C   UNL d   1      44.793  29.584  56.927  0.00  0.00     0.065 A 
ATOM      6  C   UNL d   1      45.097  28.138  56.878  0.00  0.00     0.100 C 
ATOM      7  C   UNL d   1      44.751  30.151  57.526  0.00  0.00     0.024 A 
ATOM      8  C   UNL d   1      44.645  29.789  56.142  0.00  0.00     0.018 A 
ATOM      9  C   UNL d   1      44.558  30.930  57.334  0.00  0.00     0.002 A 
ATOM     10  C   UNL d   1      44.410  31.140  56.557  0.00  0.00     0.000 A 
ATOM     11  C   UNL d   1      44.452  30.573  55.958  0.00  0.00     0.002 A 
ENDBRANCH   1   2
BRANCH   1  12
ATOM     12  C   UNL d   1      44.708  29.721  59.659  0.00  0.00     0.098 C 
BRANCH  12  13
ATOM     13  C   UNL d   1      44.814  30.051  60.409  0.00  0.00     0.286 C 
ATOM     14  N   UNL d   1      44.705  29.582  61.078  0.00  0.00    -0.204 NA
ATOM     15  O   UNL d   1      45.027  30.842  60.487  0.00  0.00    -0.265 OA
BRANCH  14  16
ATOM     16  C   UNL d   1      44.811  29.911  61.829  0.00  0.00     0.127 C 
BRANCH  16  17
ATOM     17  C   UNL d   1      44.689  29.456  62.490  0.00  0.00     0.119 A 
ATOM     18  O   UNL d   1      44.892  28.662  62.584  0.00  0.00    -0.304 OA
ATOM     19  C   UNL d   1      44.664  28.423  63.349  0.00  0.00     0.123 A 
ATOM     20  C   UNL d   1      44.320  29.071  63.724  0.00  0.00     0.029 A 
ATOM     21  C   UNL d   1      44.335  29.702  63.198  0.00  0.00     0.028 A 
ENDBRANCH  16  17
ENDBRANCH  14  16
ENDBRANCH  12  13
ENDBRANCH   1  12
TORSDOF 5
ENDMDL
MODEL 5
REMARK VINA RESULT:      -5.1     10.448     10.875
REMARK  5 active torsions:
REMARK  status: ('A' for Active; 'I' for Inactive)
REMARK    1  A    between atoms: S_6  and  C_2 
REMARK    2  A    between atoms: C_11  and  S_6 
REMARK    3  A    between atoms: C_7  and  C_11 
REMARK       I    between atoms: N_8  and  C_7 
REMARK    4  A    between atoms: C_13  and  N_8 
REMARK    5  A    between atoms: C_14  and  C_13 
ROOT
ATOM      1  S   UNL d   1      44.845  28.711  58.875  0.00  0.00    -0.080 SA
ENDROOT
BRANCH   1   2
ATOM      2  C   UNL d   1      44.774  27.907  58.704  0.00  0.00     0.049 A 
ATOM      3  C   UNL d   1      44.554  27.316  59.229  0.00  0.00     0.087 A 
ATOM      4  N   UNL d   1      44.555  26.588  58.817  0.00  0.00    -0.302 N 
ATOM      5  C   UNL d   1      44.779  26.747  58.031  0.00  0.00     0.065 A 
ATOM      6  C   UNL d   1      44.368  25.850  59.132  0.00  0.00     0.100 C 
ATOM      7  C   UNL d   1      44.914  27.558  57.960  0.00  0.00     0.024 A 
ATOM      8  C   UNL d   1      44.873  26.246  57.383  0.00  0.00     0.018 A 
ATOM      9  C   UNL d   1      45.146  27.869  57.232  0.00  0.00     0.002 A 
ATOM     10  C   UNL d   1      45.241  27.377  56.584  0.00  0.00     0.000 A 
ATOM     11  C   UNL d   1      45.106  26.565  56.655  0.00  0.00     0.002 A 
ENDBRANCH   1   2
BRANCH   1  12
ATOM     12  C   UNL d   1      44.442  29.028  59.526  0.00  0.00     0.098 C 
BRANCH  12  13
ATOM     13  C   UNL d   1      44.650  29.774  59.815  0.00  0.00     0.286 C 
ATOM     14  N   UNL d   1      44.496  29.962  60.602  0.00  0.00    -0.204 NA
ATOM     15  O   UNL d   1      45.007  30.325  59.319  0.00  0.00    -0.265 OA
BRANCH  14  16
ATOM     16  C   UNL d   1      44.703  30.708  60.892  0.00  0.00     0.127 C 
BRANCH  16  17
ATOM     17  C   UNL d   1      44.589  30.883  61.677  0.00  0.00     0.119 A 
ATOM     18  O   UNL d   1      44.659  30.360  62.311  0.00  0.00    -0.304 OA
ATOM     19  C   UNL d   1      44.493  30.777  63.013  0.00  0.00     0.123 A 
ATOM     20  C   UNL d   1      44.321  31.557  62.807  0.00  0.00     0.029 A 
ATOM     21  C   UNL d   1      44.380  31.621  61.991  0.00  0.00     0.028 A 
ENDBRANCH  16  17
ENDBRANCH  14  16
ENDBRANCH  12  13
ENDBRANCH   1  12
TORSDOF 5
ENDMDL
MODEL 6
REMARK VINA RESULT:      -4.9     10.290     10.917
REMARK  5 active torsions:
REMARK  status: ('A' for Active; 'I' for Inactive)
REMARK    1  A    between atoms: S_6  and  C_2 
REMARK    2  A    between atoms: C_11  and  S_6 
REMARK    3  A    between atoms: C_7  and  C_11 
REMARK       I    between atoms: N_8  and  C_7 
REMARK    4  A    between atoms: C_13  and  N_8 
REMARK    5  A    between atoms: C_14  and  C_13 
ROOT
ATOM      1  S   UNL d   1      44.657  29.648  60.793  0.00  0.00    -0.080 SA
ENDROOT
BRANCH   1   2
ATOM      2  C   UNL d   1      44.555  29.914  61.568  0.00  0.00     0.049 A 
ATOM      3  C   UNL d   1      44.497  30.696  61.809  0.00  0.00     0.087 A 
ATOM      4  N   UNL d   1      44.398  30.705  62.639  0.00  0.00    -0.302 N 
ATOM      5  C   UNL d   1      44.396  29.915  62.899  0.00  0.00     0.065 A 
ATOM      6  C   UNL d   1      44.317  31.375  63.112  0.00  0.00     0.100 C 
ATOM      7  C   UNL d   1      44.493  29.427  62.240  0.00  0.00     0.024 A 
ATOM      8  C   UNL d   1      44.318  29.593  63.654  0.00  0.00     0.018 A 
ATOM      9  C   UNL d   1      44.511  28.608  62.341  0.00  0.00     0.002 A 
ATOM     10  C   UNL d   1      44.434  28.282  63.088  0.00  0.00     0.000 A 
ATOM     11  C   UNL d   1      44.337  28.770  63.747  0.00  0.00     0.002 A 
ENDBRANCH   1   2
BRANCH   1  12
ATOM     12  C   UNL d   1      44.901  30.180  60.207  0.00  0.00     0.098 C 
BRANCH  12  13
ATOM     13  C   UNL d   1      44.942  29.934  59.419  0.00  0.00     0.286 C 
ATOM     14  N   UNL d   1      44.742  30.460  58.817  0.00  0.00    -0.204 NA
ATOM     15  O   UNL d   1      45.180  29.167  59.237  0.00  0.00    -0.265 OA
BRANCH  14  16
ATOM     16  C   UNL d   1      44.783  30.215  58.029  0.00  0.00     0.127 C 
BRANCH  16  17
ATOM     17  C   UNL d   1      44.670  30.753  57.432  0.00  0.00     0.119 A 
ATOM     18  O   UNL d   1      44.868  31.554  57.449  0.00  0.00    -0.304 OA
ATOM     19  C   UNL d   1      44.653  31.891  56.718  0.00  0.00     0.123 A 
ATOM     20  C   UNL d   1      44.322  31.296  56.253  0.00  0.00     0.029 A 
ATOM     21  C   UNL d   1      44.333  30.601  56.690  0.00  0.00     0.028 A 
ENDBRANCH  16  17
ENDBRANCH  14  16
ENDBRANCH  12  13
ENDBRANCH   1  12
TORSDOF 5
ENDMDL
