MODEL 1
REMARK VINA RESULT:      31.7      0.000      0.000
REMARK  3 active torsions:
REMARK  status: ('A' for Active; 'I' for Inactive)
REMARK    1  A    between atoms: C_2  and  C_1 
REMARK    2  A    between atoms: N_5  and  C_2 
REMARK    3  A    between atoms: C_9  and  N_5 
ROOT
ATOM      1  C   UNL d   1     -51.378  25.352  33.638  0.00  0.00     0.139 C 
ATOM      2  S   UNL d   1     -51.869  25.935  33.307  0.00  0.00    -0.057 SA
ENDROOT
BRANCH   1   3
ATOM      3  C   UNL d   1     -51.572  24.551  33.557  0.00  0.00     0.074 A 
ATOM      4  C   UNL d   1     -52.343  24.203  33.712  0.00  0.00     0.129 A 
ATOM      5  O   UNL d   1     -52.283  23.360  33.555  0.00  0.00    -0.211 OA
ATOM      6  C   UNL d   1     -53.009  24.606  33.963  0.00  0.00     0.029 C 
ATOM      7  N   UNL d   1     -51.483  23.188  33.305  0.00  0.00    -0.125 NA
ATOM      8  C   UNL d   1     -51.040  23.923  33.306  0.00  0.00     0.132 A 
ENDBRANCH   1   3
BRANCH   1   9
ATOM      9  N   UNL d   1     -50.699  25.573  34.045  0.00  0.00    -0.235 NA
BRANCH   9  10
ATOM     10  C   UNL d   1     -50.445  26.354  34.026  0.00  0.00     0.082 A 
ATOM     11  C   UNL d   1     -50.174  26.677  33.320  0.00  0.00     0.019 A 
ATOM     12  C   UNL d   1     -49.922  27.455  33.306  0.00  0.00     0.002 A 
ATOM     13  C   UNL d   1     -49.939  27.908  33.984  0.00  0.00     0.000 A 
ATOM     14  C   UNL d   1     -50.212  27.578  34.691  0.00  0.00     0.002 A 
ATOM     15  C   UNL d   1     -50.467  26.793  34.707  0.00  0.00     0.019 A 
ENDBRANCH   9  10
ENDBRANCH   1   9
TORSDOF 3
ENDMDL
MODEL 2
REMARK VINA RESULT:      33.9      1.267      1.783
REMARK  3 active torsions:
REMARK  status: ('A' for Active; 'I' for Inactive)
REMARK    1  A    between atoms: C_2  and  C_1 
REMARK    2  A    between atoms: N_5  and  C_2 
REMARK    3  A    between atoms: C_9  and  N_5 
ROOT
ATOM      1  C   UNL d   1     -52.530  24.928  33.869  0.00  0.00     0.139 C 
ATOM      2  S   UNL d   1     -52.764  25.724  33.905  0.00  0.00    -0.057 SA
ENDROOT
BRANCH   1   3
ATOM      3  C   UNL d   1     -52.987  24.344  34.238  0.00  0.00     0.074 A 
ATOM      4  C   UNL d   1     -53.250  24.354  35.056  0.00  0.00     0.129 A 
ATOM      5  O   UNL d   1     -53.706  23.638  35.191  0.00  0.00    -0.211 OA
ATOM      6  C   UNL d   1     -53.092  24.942  35.603  0.00  0.00     0.029 C 
ATOM      7  N   UNL d   1     -53.724  23.189  34.463  0.00  0.00    -0.125 NA
ATOM      8  C   UNL d   1     -53.280  23.623  33.871  0.00  0.00     0.132 A 
ENDBRANCH   1   3
BRANCH   1   9
ATOM      9  N   UNL d   1     -51.844  24.722  33.466  0.00  0.00    -0.235 NA
BRANCH   9  10
ATOM     10  C   UNL d   1     -51.222  25.256  33.413  0.00  0.00     0.082 A 
ATOM     11  C   UNL d   1     -50.450  24.979  33.363  0.00  0.00     0.019 A 
ATOM     12  C   UNL d   1     -49.834  25.514  33.310  0.00  0.00     0.002 A 
ATOM     13  C   UNL d   1     -49.982  26.316  33.308  0.00  0.00     0.000 A 
ATOM     14  C   UNL d   1     -50.760  26.590  33.359  0.00  0.00     0.002 A 
ATOM     15  C   UNL d   1     -51.383  26.051  33.412  0.00  0.00     0.019 A 
ENDBRANCH   9  10
ENDBRANCH   1   9
TORSDOF 3
ENDMDL
MODEL 3
REMARK VINA RESULT:      34.0      6.602      7.703
REMARK  3 active torsions:
REMARK  status: ('A' for Active; 'I' for Inactive)
REMARK    1  A    between atoms: C_2  and  C_1 
REMARK    2  A    between atoms: N_5  and  C_2 
REMARK    3  A    between atoms: C_9  and  N_5 
ROOT
ATOM      1  C   UNL d   1     -47.868  31.896  34.563  0.00  0.00     0.139 C 
ATOM      2  S   UNL d   1     -48.552  31.451  34.410  0.00  0.00    -0.057 SA
ENDROOT
BRANCH   1   3
ATOM      3  C   UNL d   1     -47.677  32.543  34.082  0.00  0.00     0.074 A 
ATOM      4  C   UNL d   1     -48.234  33.120  33.773  0.00  0.00     0.129 A 
ATOM      5  O   UNL d   1     -47.788  33.687  33.306  0.00  0.00    -0.211 OA
ATOM      6  C   UNL d   1     -49.042  33.125  33.903  0.00  0.00     0.029 C 
ATOM      7  N   UNL d   1     -46.962  33.462  33.326  0.00  0.00    -0.125 NA
ATOM      8  C   UNL d   1     -46.891  32.754  33.806  0.00  0.00     0.132 A 
ENDBRANCH   1   3
BRANCH   1   9
ATOM      9  N   UNL d   1     -47.382  31.694  35.194  0.00  0.00    -0.235 NA
BRANCH   9  10
ATOM     10  C   UNL d   1     -47.362  30.918  35.464  0.00  0.00     0.082 A 
ATOM     11  C   UNL d   1     -47.335  30.300  34.924  0.00  0.00     0.019 A 
ATOM     12  C   UNL d   1     -47.315  29.528  35.197  0.00  0.00     0.002 A 
ATOM     13  C   UNL d   1     -47.322  29.374  35.997  0.00  0.00     0.000 A 
ATOM     14  C   UNL d   1     -47.350  29.999  36.537  0.00  0.00     0.002 A 
ATOM     15  C   UNL d   1     -47.369  30.777  36.263  0.00  0.00     0.019 A 
ENDBRANCH   9  10
ENDBRANCH   1   9
TORSDOF 3
ENDMDL
