MODEL 1
REMARK VINA RESULT:      60.3      0.000      0.000
REMARK  4 active torsions:
REMARK  status: ('A' for Active; 'I' for Inactive)
REMARK    1  A    between atoms: N_7  and  C_1 
REMARK    2  A    between atoms: S_2  and  C_8 
REMARK    3  A    between atoms: C_10  and  S_2 
REMARK       I    between atoms: C_9  and  N_7 
REMARK    4  A    between atoms: C_8  and  C_9 
ROOT
ATOM      1  N   UNL d   1     -55.909 -99.704 -43.553  0.00  0.00    -0.182 NA
ATOM      2  C   UNL d   1     -55.627-100.466 -43.683  0.00  0.00     0.293 C 
ATOM      3  O   UNL d   1     -56.075-101.016 -44.106  0.00  0.00    -0.264 OA
ENDROOT
BRANCH   2   4
ATOM      4  C   UNL d   1     -54.897-100.698 -43.397  0.00  0.00     0.161 C 
BRANCH   4   5
ATOM      5  S   UNL d   1     -54.860-101.139 -42.682  0.00  0.00     0.215 S 
ATOM      6  O   UNL d   1     -54.785-101.847 -43.121  0.00  0.00    -0.217 OA
ATOM      7  O   UNL d   1     -54.933-100.436 -42.251  0.00  0.00    -0.217 OA
BRANCH   5   8
ATOM      8  C   UNL d   1     -54.823-101.577 -41.976  0.00  0.00     0.088 A 
ATOM      9  C   UNL d   1     -54.835-102.400 -42.002  0.00  0.00     0.012 A 
ATOM     10  C   UNL d   1     -54.799-102.830 -41.306  0.00  0.00     0.012 A 
ATOM     11  C   UNL d   1     -54.750-102.438 -40.582  0.00  0.00     0.058 A 
ATOM     12  C   UNL d   1     -54.737-101.623 -40.551  0.00  0.00     0.012 A 
ATOM     13 CL   UNL d   1     -54.713-102.875 -39.882  0.00  0.00    -0.082 Cl
ATOM     14  C   UNL d   1     -54.774-101.191 -41.254  0.00  0.00     0.012 A 
ENDBRANCH   5   8
ENDBRANCH   4   5
ENDBRANCH   2   4
BRANCH   1  15
ATOM     15  C   UNL d   1     -56.617 -99.491 -43.835  0.00  0.00     0.197 A 
ATOM     16  N   UNL d   1     -56.798 -99.354 -44.646  0.00  0.00    -0.221 NA
ATOM     17  C   UNL d   1     -57.603 -99.142 -44.696  0.00  0.00     0.090 A 
ATOM     18  C   UNL d   1     -58.084 -98.947 -45.341  0.00  0.00     0.018 A 
ATOM     19  C   UNL d   1     -57.918 -99.148 -43.921  0.00  0.00     0.060 A 
ATOM     20  C   UNL d   1     -58.886 -98.756 -45.216  0.00  0.00     0.002 A 
ATOM     21  C   UNL d   1     -57.783 -98.943 -46.072  0.00  0.00     0.002 C 
ATOM     22  C   UNL d   1     -59.215 -98.759 -44.436  0.00  0.00     0.012 A 
ATOM     23  C   UNL d   1     -58.721 -98.957 -43.792  0.00  0.00     0.065 A 
ATOM     24 CL   UNL d   1     -59.026 -98.964 -43.030  0.00  0.00    -0.082 Cl
ATOM     25  S   UNL d   1     -57.299 -99.366 -43.393  0.00  0.00    -0.046 SA
ENDBRANCH   1  15
TORSDOF 4
ENDMDL
