MODEL 1
REMARK VINA RESULT:      34.5      0.000      0.000
REMARK  5 active torsions:
REMARK  status: ('A' for Active; 'I' for Inactive)
REMARK    1  A    between atoms: C_3  and  C_1 
REMARK    2  A    between atoms: C_5  and  C_3 
REMARK    3  A    between atoms: C_13  and  C_5 
REMARK    4  A    between atoms: C_10  and  C_11 
REMARK    5  A    between atoms: O_16  and  C_10 
ROOT
ATOM      1  C   UNL d   1      14.603  12.591  -0.757  0.00  0.00     0.092 C 
ATOM      2  C   UNL d   1      15.269  12.186  -0.481  0.00  0.00     0.103 C 
ATOM      3  N   UNL d   1      15.934  11.779  -0.209  0.00  0.00    -0.191 NA
ENDROOT
BRANCH   1   4
ATOM      4  C   UNL d   1      14.285  12.407  -1.496  0.00  0.00     0.120 A 
ATOM      5  N   UNL d   1      14.717  12.334  -2.201  0.00  0.00    -0.238 NA
ATOM      6  C   UNL d   1      14.179  12.145  -2.805  0.00  0.00     0.088 A 
ATOM      7  C   UNL d   1      14.289  12.008  -3.610  0.00  0.00     0.020 A 
ATOM      8  C   UNL d   1      13.426  12.104  -2.470  0.00  0.00     0.049 A 
ATOM      9  C   UNL d   1      13.636  11.828  -4.083  0.00  0.00     0.002 A 
ATOM     10  C   UNL d   1      12.879  11.785  -3.756  0.00  0.00     0.001 A 
ATOM     11  C   UNL d   1      12.770  11.922  -2.952  0.00  0.00     0.008 A 
ATOM     12  S   UNL d   1      13.494  12.266  -1.663  0.00  0.00    -0.066 SA
ENDBRANCH   1   4
BRANCH   1  13
ATOM     13  C   UNL d   1      14.263  13.177  -0.289  0.00  0.00     0.012 C 
BRANCH  13  14
ATOM     14  C   UNL d   1      14.568  13.939  -0.292  0.00  0.00     0.001 A 
ATOM     15  C   UNL d   1      15.356  14.068  -0.471  0.00  0.00     0.000 A 
ATOM     16  C   UNL d   1      15.666  14.833  -0.475  0.00  0.00     0.005 A 
ATOM     17  C   UNL d   1      15.179  15.476  -0.298  0.00  0.00     0.063 A 
ATOM     18  C   UNL d   1      14.385  15.355  -0.118  0.00  0.00     0.005 A 
ATOM     19  C   UNL d   1      14.073  14.586  -0.113  0.00  0.00     0.000 A 
BRANCH  17  20
ATOM     20  C   UNL d   1      15.489  16.240  -0.303  0.00  0.00     0.296 C 
ATOM     21  O   UNL d   1      16.257  16.376  -0.016  0.00  0.00    -0.259 OA
BRANCH  20  22
ATOM     22  O   UNL d   1      15.040  16.867  -0.590  0.00  0.00    -0.296 OA
ATOM     23  C   UNL d   1      15.361  17.382  -1.152  0.00  0.00     0.185 C 
ENDBRANCH  20  22
ENDBRANCH  17  20
ENDBRANCH  13  14
ENDBRANCH   1  13
TORSDOF 5
ENDMDL
