MODEL 1
REMARK VINA RESULT:      -5.7      0.000      0.000
REMARK  2 active torsions:
REMARK  status: ('A' for Active; 'I' for Inactive)
REMARK    1  A    between atoms: C_8  and  N_1 
REMARK    2  A    between atoms: N_5  and  C_9 
ROOT
ATOM      1  N   UNL d   1     -41.553-122.268 -52.462  0.00  0.00    -0.192 N 
ATOM      2  C   UNL d   1     -41.554-123.005 -52.082  0.00  0.00     0.281 A 
ATOM      3  N   UNL d   1     -41.413-121.604 -52.041  0.00  0.00    -0.120 NA
ATOM      4  C   UNL d   1     -41.268-121.640 -51.228  0.00  0.00     0.296 A 
ATOM      5  C   UNL d   1     -41.412-123.059 -51.272  0.00  0.00     0.063 A 
ATOM      6  C   UNL d   1     -41.261-122.343 -50.820  0.00  0.00     0.064 A 
ATOM      7  O   UNL d   1     -41.698-123.702 -52.507  0.00  0.00    -0.265 OA
ATOM      8  O   UNL d   1     -41.127-120.960 -50.813  0.00  0.00    -0.264 OA
ATOM      9  C   UNL d   1     -41.410-123.782 -50.883  0.00  0.00     0.005 A 
ATOM     10  C   UNL d   1     -41.123-122.414 -50.024  0.00  0.00     0.005 A 
ATOM     11  C   UNL d   1     -41.264-123.817 -50.062  0.00  0.00     0.000 A 
ATOM     12  C   UNL d   1     -41.123-123.153 -49.636  0.00  0.00     0.000 A 
ENDROOT
BRANCH   1  13
ATOM     13  C   UNL d   1     -41.691-122.210 -53.253  0.00  0.00     0.086 A 
ATOM     14  C   UNL d   1     -41.164-122.541 -53.795  0.00  0.00     0.021 A 
ATOM     15  C   UNL d   1     -41.328-122.468 -54.618  0.00  0.00     0.025 A 
ATOM     16  C   UNL d   1     -42.018-122.063 -54.867  0.00  0.00     0.127 A 
ATOM     17  C   UNL d   1     -42.507-121.754 -54.305  0.00  0.00     0.025 A 
ATOM     18  C   UNL d   1     -42.376-121.808 -53.509  0.00  0.00     0.021 A 
BRANCH  16  19
ATOM     19  N   UNL d   1     -42.175-121.994 -55.687  0.00  0.00    -0.114 N 
ATOM     20  O   UNL d   1     -42.830-122.371 -55.984  0.00  0.00    -0.532 OA
ATOM     21  O   UNL d   1     -41.700-121.561 -56.214  0.00  0.00    -0.532 OA
ENDBRANCH  16  19
ENDBRANCH   1  13
TORSDOF 2
ENDMDL
MODEL 2
REMARK VINA RESULT:      -5.2      1.998      4.557
REMARK  2 active torsions:
REMARK  status: ('A' for Active; 'I' for Inactive)
REMARK    1  A    between atoms: C_8  and  N_1 
REMARK    2  A    between atoms: N_5  and  C_9 
ROOT
ATOM      1  N   UNL d   1     -41.633-122.444 -50.771  0.00  0.00    -0.192 N 
ATOM      2  C   UNL d   1     -41.638-123.021 -51.366  0.00  0.00     0.281 A 
ATOM      3  N   UNL d   1     -41.465-121.685 -50.952  0.00  0.00    -0.120 NA
ATOM      4  C   UNL d   1     -41.294-121.465 -51.731  0.00  0.00     0.296 A 
ATOM      5  C   UNL d   1     -41.470-122.818 -52.147  0.00  0.00     0.063 A 
ATOM      6  C   UNL d   1     -41.289-122.000 -52.342  0.00  0.00     0.064 A 
ATOM      7  O   UNL d   1     -41.810-123.812 -51.190  0.00  0.00    -0.265 OA
ATOM      8  O   UNL d   1     -41.126-120.692 -51.903  0.00  0.00    -0.264 OA
ATOM      9  C   UNL d   1     -41.471-123.378 -52.747  0.00  0.00     0.005 A 
ATOM     10  C   UNL d   1     -41.127-121.817 -53.116  0.00  0.00     0.005 A 
ATOM     11  C   UNL d   1     -41.300-123.154 -53.532  0.00  0.00     0.000 A 
ATOM     12  C   UNL d   1     -41.130-122.393 -53.719  0.00  0.00     0.000 A 
ENDROOT
BRANCH   1  13
ATOM     13  C   UNL d   1     -41.795-122.637 -50.006  0.00  0.00     0.086 A 
ATOM     14  C   UNL d   1     -41.190-122.875 -49.496  0.00  0.00     0.021 A 
ATOM     15  C   UNL d   1     -41.382-123.072 -48.701  0.00  0.00     0.025 A 
ATOM     16  C   UNL d   1     -42.178-123.023 -48.444  0.00  0.00     0.127 A 
ATOM     17  C   UNL d   1     -42.740-122.786 -48.973  0.00  0.00     0.025 A 
ATOM     18  C   UNL d   1     -42.586-122.591 -49.743  0.00  0.00     0.021 A 
BRANCH  16  19
ATOM     19  N   UNL d   1     -42.363-123.220 -47.651  0.00  0.00    -0.114 N 
ATOM     20  O   UNL d   1     -41.953-122.847 -47.058  0.00  0.00    -0.532 OA
ATOM     21  O   UNL d   1     -42.943-123.776 -47.436  0.00  0.00    -0.532 OA
ENDBRANCH  16  19
ENDBRANCH   1  13
TORSDOF 2
ENDMDL
MODEL 3
REMARK VINA RESULT:      -4.1      1.433      4.333
REMARK  2 active torsions:
REMARK  status: ('A' for Active; 'I' for Inactive)
REMARK    1  A    between atoms: C_8  and  N_1 
REMARK    2  A    between atoms: N_5  and  C_9 
ROOT
ATOM      1  N   UNL d   1     -41.793-122.644 -52.796  0.00  0.00    -0.192 N 
ATOM      2  C   UNL d   1     -42.133-121.996 -53.185  0.00  0.00     0.281 A 
ATOM      3  N   UNL d   1     -41.464-123.236 -53.219  0.00  0.00    -0.120 NA
ATOM      4  C   UNL d   1     -41.458-123.212 -54.046  0.00  0.00     0.296 A 
ATOM      5  C   UNL d   1     -42.135-121.956 -54.009  0.00  0.00     0.063 A 
ATOM      6  C   UNL d   1     -41.781-122.594 -54.464  0.00  0.00     0.064 A 
ATOM      7  O   UNL d   1     -42.477-121.376 -52.757  0.00  0.00    -0.265 OA
ATOM      8  O   UNL d   1     -41.123-123.817 -54.464  0.00  0.00    -0.264 OA
ATOM      9  C   UNL d   1     -42.468-121.321 -54.407  0.00  0.00     0.005 A 
ATOM     10  C   UNL d   1     -41.792-122.539 -55.273  0.00  0.00     0.005 A 
ATOM     11  C   UNL d   1     -42.462-121.298 -55.241  0.00  0.00     0.000 A 
ATOM     12  C   UNL d   1     -42.133-121.890 -55.670  0.00  0.00     0.000 A 
ENDROOT
BRANCH   1  13
ATOM     13  C   UNL d   1     -41.787-122.689 -51.992  0.00  0.00     0.086 A 
ATOM     14  C   UNL d   1     -41.385-122.123 -51.544  0.00  0.00     0.021 A 
ATOM     15  C   UNL d   1     -41.392-122.188 -50.705  0.00  0.00     0.025 A 
ATOM     16  C   UNL d   1     -41.804-122.821 -50.343  0.00  0.00     0.127 A 
ATOM     17  C   UNL d   1     -42.185-123.353 -50.816  0.00  0.00     0.025 A 
ATOM     18  C   UNL d   1     -42.196-123.316 -51.624  0.00  0.00     0.021 A 
BRANCH  16  19
ATOM     19  N   UNL d   1     -41.808-122.881 -49.508  0.00  0.00    -0.114 N 
ATOM     20  O   UNL d   1     -42.387-122.486 -49.098  0.00  0.00    -0.532 OA
ATOM     21  O   UNL d   1     -41.252-123.321 -49.074  0.00  0.00    -0.532 OA
ENDBRANCH  16  19
ENDBRANCH   1  13
TORSDOF 2
ENDMDL
MODEL 4
REMARK VINA RESULT:      -3.2      1.502      4.150
REMARK  2 active torsions:
REMARK  status: ('A' for Active; 'I' for Inactive)
REMARK    1  A    between atoms: C_8  and  N_1 
REMARK    2  A    between atoms: N_5  and  C_9 
ROOT
ATOM      1  N   UNL d   1     -41.724-122.415 -52.340  0.00  0.00    -0.192 N 
ATOM      2  C   UNL d   1     -41.573-123.006 -52.900  0.00  0.00     0.281 A 
ATOM      3  N   UNL d   1     -41.870-121.667 -52.579  0.00  0.00    -0.120 NA
ATOM      4  C   UNL d   1     -41.873-121.473 -53.382  0.00  0.00     0.296 A 
ATOM      5  C   UNL d   1     -41.571-122.829 -53.706  0.00  0.00     0.063 A 
ATOM      6  C   UNL d   1     -41.729-122.024 -53.962  0.00  0.00     0.064 A 
ATOM      7  O   UNL d   1     -41.419-123.786 -52.665  0.00  0.00    -0.265 OA
ATOM      8  O   UNL d   1     -42.022-120.712 -53.613  0.00  0.00    -0.264 OA
ATOM      9  C   UNL d   1     -41.423-123.405 -54.271  0.00  0.00     0.005 A 
ATOM     10  C   UNL d   1     -41.724-121.867 -54.758  0.00  0.00     0.005 A 
ATOM     11  C   UNL d   1     -41.425-123.207 -55.082  0.00  0.00     0.000 A 
ATOM     12  C   UNL d   1     -41.572-122.458 -55.327  0.00  0.00     0.000 A 
ENDROOT
BRANCH   1  13
ATOM     13  C   UNL d   1     -41.727-122.581 -51.552  0.00  0.00     0.086 A 
ATOM     14  C   UNL d   1     -41.218-123.154 -51.244  0.00  0.00     0.021 A 
ATOM     15  C   UNL d   1     -41.237-123.313 -50.417  0.00  0.00     0.025 A 
ATOM     16  C   UNL d   1     -41.768-122.889 -49.927  0.00  0.00     0.127 A 
ATOM     17  C   UNL d   1     -42.249-122.337 -50.268  0.00  0.00     0.025 A 
ATOM     18  C   UNL d   1     -42.253-122.163 -51.058  0.00  0.00     0.021 A 
BRANCH  16  19
ATOM     19  N   UNL d   1     -41.783-123.051 -49.106  0.00  0.00    -0.114 N 
ATOM     20  O   UNL d   1     -41.711-122.427 -48.591  0.00  0.00    -0.532 OA
ATOM     21  O   UNL d   1     -41.866-123.814 -48.787  0.00  0.00    -0.532 OA
ENDBRANCH  16  19
ENDBRANCH   1  13
TORSDOF 2
ENDMDL
