MODEL 1
REMARK VINA RESULT:      -8.5      0.000      0.000
REMARK  5 active torsions:
REMARK  status: ('A' for Active; 'I' for Inactive)
REMARK    1  A    between atoms: C_10  and  N_3 
REMARK    2  A    between atoms: C_14  and  N_6 
REMARK    3  A    between atoms: C_9  and  C_7 
REMARK    4  A    between atoms: O_23  and  C_20 
REMARK    5  A    between atoms: C_26  and  O_23 
ROOT
ATOM      1  C   UNL d   1     -48.161  13.192  23.020  0.00  0.00     0.105 A 
ATOM      2  C   UNL d   1     -47.674  13.876  23.022  0.00  0.00     0.186 A 
ATOM      3  N   UNL d   1     -46.878  12.813  23.035  0.00  0.00    -0.240 N 
ATOM      4  C   UNL d   1     -46.911  13.626  23.031  0.00  0.00     0.292 A 
ATOM      5  C   UNL d   1     -47.671  12.538  23.027  0.00  0.00     0.271 A 
ATOM      6  N   UNL d   1     -48.972  14.269  23.007  0.00  0.00    -0.212 N 
ATOM      7  C   UNL d   1     -48.935  13.462  23.011  0.00  0.00     0.100 A 
ATOM      8  O   UNL d   1     -48.164  14.546  23.015  0.00  0.00    -0.223 OA
ATOM      9  O   UNL d   1     -47.937  11.753  23.028  0.00  0.00    -0.266 OA
ATOM     10  O   UNL d   1     -46.252  14.124  23.036  0.00  0.00    -0.264 OA
ENDROOT
BRANCH   3  11
ATOM     11  C   UNL d   1     -46.188  12.361  23.044  0.00  0.00     0.070 A 
ATOM     12  C   UNL d   1     -46.128  11.730  23.565  0.00  0.00     0.020 A 
ATOM     13  C   UNL d   1     -45.440  11.265  23.586  0.00  0.00     0.026 A 
ATOM     14  C   UNL d   1     -44.812  11.450  23.069  0.00  0.00     0.100 A 
ATOM     15  C   UNL d   1     -44.874  12.075  22.554  0.00  0.00     0.026 A 
ATOM     16  C   UNL d   1     -45.562  12.521  22.550  0.00  0.00     0.020 A 
BRANCH  14  17
ATOM     17  O   UNL d   1     -44.121  11.003  23.073  0.00  0.00    -0.305 OA
BRANCH  17  18
ATOM     18  C   UNL d   1     -44.093  10.313  23.526  0.00  0.00     0.123 C 
ATOM     19  C   UNL d   1     -43.378   9.953  23.694  0.00  0.00     0.029 C 
ENDBRANCH  17  18
ENDBRANCH  14  17
ENDBRANCH   3  11
BRANCH   7  20
ATOM     20  C   UNL d   1     -49.594  12.964  23.006  0.00  0.00     0.048 A 
ATOM     21  S   UNL d   1     -50.027  12.665  23.678  0.00  0.00    -0.085 SA
ATOM     22  C   UNL d   1     -50.626  12.200  23.381  0.00  0.00     0.035 A 
ATOM     23  C   UNL d   1     -50.609  12.180  22.578  0.00  0.00     0.007 A 
ATOM     24  C   UNL d   1     -49.953  12.664  22.326  0.00  0.00     0.009 A 
ENDBRANCH   7  20
BRANCH   6  25
ATOM     25  C   UNL d   1     -49.668  14.720  22.998  0.00  0.00     0.088 A 
ATOM     26  C   UNL d   1     -49.991  15.008  23.697  0.00  0.00     0.020 A 
ATOM     27  C   UNL d   1     -50.692  15.463  23.692  0.00  0.00     0.002 A 
ATOM     28  C   UNL d   1     -51.061  15.623  22.967  0.00  0.00     0.000 A 
ATOM     29  C   UNL d   1     -50.733  15.331  22.262  0.00  0.00     0.002 A 
ATOM     30  C   UNL d   1     -50.036  14.881  22.288  0.00  0.00     0.020 A 
ENDBRANCH   6  25
TORSDOF 5
ENDMDL
MODEL 2
REMARK VINA RESULT:      -6.4      0.977      1.351
REMARK  5 active torsions:
REMARK  status: ('A' for Active; 'I' for Inactive)
REMARK    1  A    between atoms: C_10  and  N_3 
REMARK    2  A    between atoms: C_14  and  N_6 
REMARK    3  A    between atoms: C_9  and  C_7 
REMARK    4  A    between atoms: O_23  and  C_20 
REMARK    5  A    between atoms: C_26  and  O_23 
ROOT
ATOM      1  C   UNL d   1     -47.817  13.653  22.704  0.00  0.00     0.105 A 
ATOM      2  C   UNL d   1     -47.459  14.404  22.591  0.00  0.00     0.186 A 
ATOM      3  N   UNL d   1     -46.504  13.483  22.511  0.00  0.00    -0.240 N 
ATOM      4  C   UNL d   1     -46.674  14.278  22.477  0.00  0.00     0.292 A 
ATOM      5  C   UNL d   1     -47.230  13.087  22.655  0.00  0.00     0.271 A 
ATOM      6  N   UNL d   1     -48.788  14.585  22.786  0.00  0.00    -0.212 N 
ATOM      7  C   UNL d   1     -48.616  13.796  22.819  0.00  0.00     0.100 A 
ATOM      8  O   UNL d   1     -48.048  14.985  22.639  0.00  0.00    -0.223 OA
ATOM      9  O   UNL d   1     -47.357  12.272  22.737  0.00  0.00    -0.266 OA
ATOM     10  O   UNL d   1     -46.116  14.873  22.344  0.00  0.00    -0.264 OA
ENDROOT
BRANCH   3  11
ATOM     11  C   UNL d   1     -45.756  13.147  22.419  0.00  0.00     0.070 A 
ATOM     12  C   UNL d   1     -45.265  13.419  21.821  0.00  0.00     0.020 A 
ATOM     13  C   UNL d   1     -44.509  13.091  21.715  0.00  0.00     0.026 A 
ATOM     14  C   UNL d   1     -44.259  12.482  22.227  0.00  0.00     0.100 A 
ATOM     15  C   UNL d   1     -44.747  12.214  22.818  0.00  0.00     0.026 A 
ATOM     16  C   UNL d   1     -45.489  12.552  22.904  0.00  0.00     0.020 A 
BRANCH  14  17
ATOM     17  O   UNL d   1     -43.514  12.142  22.140  0.00  0.00    -0.305 OA
BRANCH  17  18
ATOM     18  C   UNL d   1     -43.053  12.347  21.487  0.00  0.00     0.123 C 
ATOM     19  C   UNL d   1     -42.272  12.571  21.580  0.00  0.00     0.029 C 
ENDBRANCH  17  18
ENDBRANCH  14  17
ENDBRANCH   3  11
BRANCH   7  20
ATOM     20  C   UNL d   1     -49.174  13.201  22.952  0.00  0.00     0.048 A 
ATOM     21  S   UNL d   1     -49.629  12.774  22.370  0.00  0.00    -0.085 SA
ATOM     22  C   UNL d   1     -50.097  12.250  22.781  0.00  0.00     0.035 A 
ATOM     23  C   UNL d   1     -49.977  12.309  23.573  0.00  0.00     0.007 A 
ATOM     24  C   UNL d   1     -49.388  12.915  23.695  0.00  0.00     0.009 A 
ENDBRANCH   7  20
BRANCH   6  25
ATOM     25  C   UNL d   1     -49.542  14.919  22.879  0.00  0.00     0.088 A 
ATOM     26  C   UNL d   1     -49.773  15.237  23.600  0.00  0.00     0.020 A 
ATOM     27  C   UNL d   1     -50.532  15.576  23.698  0.00  0.00     0.002 A 
ATOM     28  C   UNL d   1     -51.052  15.586  23.052  0.00  0.00     0.000 A 
ATOM     29  C   UNL d   1     -50.815  15.263  22.324  0.00  0.00     0.002 A 
ATOM     30  C   UNL d   1     -50.058  14.932  22.248  0.00  0.00     0.020 A 
ENDBRANCH   6  25
TORSDOF 5
ENDMDL
