MODEL 1
REMARK VINA RESULT:      28.2      0.000      0.000
REMARK  4 active torsions:
REMARK  status: ('A' for Active; 'I' for Inactive)
REMARK    1  A    between atoms: C_6  and  C_1 
REMARK       I    between atoms: N_11  and  C_6 
REMARK    2  A    between atoms: O_14  and  C_9 
REMARK    3  A    between atoms: C_16  and  N_11 
REMARK    4  A    between atoms: C_12  and  C_16 
ROOT
ATOM      1  C   UNL d   1      58.626  49.686  51.078  0.00  0.00     0.121 A 
ATOM      2  C   UNL d   1      58.938  49.685  51.850  0.00  0.00     0.305 A 
ATOM      3  O   UNL d   1      59.765  49.679  51.961  0.00  0.00    -0.271 OA
ATOM      4  C   UNL d   1      59.140  49.682  50.412  0.00  0.00     0.012 A 
ATOM      5  C   UNL d   1      60.274  49.675  51.311  0.00  0.00     0.125 A 
ATOM      6  C   UNL d   1      59.959  49.676  50.540  0.00  0.00     0.025 A 
ATOM      7  O   UNL d   1      58.433  49.690  52.504  0.00  0.00    -0.259 OA
ATOM      8  C   UNL d   1      61.087  49.669  51.419  0.00  0.00     0.117 A 
ATOM      9  C   UNL d   1      60.469  49.671  49.889  0.00  0.00     0.002 A 
ATOM     10  C   UNL d   1      61.285  49.666  50.005  0.00  0.00     0.002 A 
ATOM     11  C   UNL d   1      61.594  49.664  50.770  0.00  0.00     0.026 A 
ENDROOT
BRANCH   1  12
ATOM     12  C   UNL d   1      57.811  49.692  50.962  0.00  0.00     0.284 C 
ATOM     13  O   UNL d   1      57.301  49.690  51.610  0.00  0.00    -0.265 OA
ATOM     14  N   UNL d   1      57.506  49.700  50.197  0.00  0.00    -0.206 NA
BRANCH  14  15
ATOM     15  C   UNL d   1      56.684  49.706  50.076  0.00  0.00     0.102 C 
BRANCH  15  16
ATOM     16  C   UNL d   1      56.370  49.399  49.378  0.00  0.00     0.021 C 
ATOM     17  C   UNL d   1      56.423  48.592  49.223  0.00  0.00     0.002 C 
ENDBRANCH  15  16
ENDBRANCH  14  15
ENDBRANCH   1  12
BRANCH   8  18
ATOM     18  O   UNL d   1      61.395  49.667  52.184  0.00  0.00    -0.326 OA
ATOM     19  C   UNL d   1      62.211  49.661  52.300  0.00  0.00     0.181 C 
ENDBRANCH   8  18
TORSDOF 4
ENDMDL
