MODEL 1
REMARK VINA RESULT:      26.4      0.000      0.000
REMARK  5 active torsions:
REMARK  status: ('A' for Active; 'I' for Inactive)
REMARK    1  A    between atoms: N_5  and  C_3 
REMARK    2  A    between atoms: O_13  and  C_4 
REMARK       I    between atoms: C_6  and  N_5 
REMARK    3  A    between atoms: C_9  and  C_6 
REMARK    4  A    between atoms: O_14  and  C_7 
REMARK    5  A    between atoms: O_18  and  C_15 
ROOT
ATOM      1  N   UNL d   1     -54.719-101.314 -41.958  0.00  0.00    -0.189 NA
ATOM      2  C   UNL d   1     -54.789-102.060 -41.593  0.00  0.00     0.281 C 
ATOM      3  O   UNL d   1     -54.876-102.753 -42.063  0.00  0.00    -0.265 OA
ENDROOT
BRANCH   1   4
ATOM      4  C   UNL d   1     -54.735-101.259 -42.782  0.00  0.00     0.173 A 
ATOM      5  N   UNL d   1     -54.758-100.515 -43.154  0.00  0.00    -0.186 NA
ATOM      6  C   UNL d   1     -54.774-100.469 -43.974  0.00  0.00     0.273 A 
ATOM      7  N   UNL d   1     -54.766-101.176 -44.419  0.00  0.00    -0.181 NA
ATOM      8  C   UNL d   1     -54.744-101.886 -44.064  0.00  0.00     0.185 A 
ATOM      9  C   UNL d   1     -54.727-101.951 -43.234  0.00  0.00     0.083 A 
BRANCH   6  10
ATOM     10  O   UNL d   1     -54.797 -99.750 -44.332  0.00  0.00    -0.297 OA
ATOM     11  C   UNL d   1     -55.428 -99.251 -44.225  0.00  0.00     0.185 C 
ENDBRANCH   6  10
BRANCH   8  12
ATOM     12  O   UNL d   1     -54.736-102.574 -44.536  0.00  0.00    -0.312 OA
ATOM     13  C   UNL d   1     -54.915-102.499 -45.348  0.00  0.00     0.183 C 
ENDBRANCH   8  12
ENDBRANCH   1   4
BRANCH   2  14
ATOM     14  C   UNL d   1     -54.772-102.101 -40.769  0.00  0.00     0.058 A 
ATOM     15  C   UNL d   1     -54.744-101.414 -40.309  0.00  0.00     0.007 A 
ATOM     16  C   UNL d   1     -54.727-101.453 -39.516  0.00  0.00     0.024 A 
ATOM     17  C   UNL d   1     -54.737-102.190 -39.117  0.00  0.00     0.094 A 
ATOM     18  C   UNL d   1     -54.765-102.880 -39.567  0.00  0.00     0.024 A 
ATOM     19  C   UNL d   1     -54.782-102.817 -40.388  0.00  0.00     0.007 A 
BRANCH  17  20
ATOM     20  O   UNL d   1     -54.721-102.239 -38.304  0.00  0.00    -0.328 OA
ATOM     21  C   UNL d   1     -55.084-102.853 -37.926  0.00  0.00     0.181 C 
ENDBRANCH  17  20
ENDBRANCH   2  14
TORSDOF 5
ENDMDL
MODEL 2
REMARK VINA RESULT:      27.3      0.562      1.613
REMARK  5 active torsions:
REMARK  status: ('A' for Active; 'I' for Inactive)
REMARK    1  A    between atoms: N_5  and  C_3 
REMARK    2  A    between atoms: O_13  and  C_4 
REMARK       I    between atoms: C_6  and  N_5 
REMARK    3  A    between atoms: C_9  and  C_6 
REMARK    4  A    between atoms: O_14  and  C_7 
REMARK    5  A    between atoms: O_18  and  C_15 
ROOT
ATOM      1  N   UNL d   1     -54.785-101.054 -42.223  0.00  0.00    -0.189 NA
ATOM      2  C   UNL d   1     -54.747-101.839 -41.943  0.00  0.00     0.281 C 
ATOM      3  O   UNL d   1     -54.712-102.480 -42.487  0.00  0.00    -0.265 OA
ENDROOT
BRANCH   1   4
ATOM      4  C   UNL d   1     -54.786-100.911 -43.037  0.00  0.00     0.173 A 
ATOM      5  N   UNL d   1     -54.770-101.545 -43.575  0.00  0.00    -0.186 NA
ATOM      6  C   UNL d   1     -54.772-101.395 -44.383  0.00  0.00     0.273 A 
ATOM      7  N   UNL d   1     -54.791-100.602 -44.646  0.00  0.00    -0.181 NA
ATOM      8  C   UNL d   1     -54.807 -99.997 -44.132  0.00  0.00     0.185 A 
ATOM      9  C   UNL d   1     -54.805-100.132 -43.310  0.00  0.00     0.083 A 
BRANCH   6  10
ATOM     10  O   UNL d   1     -54.756-102.007 -44.903  0.00  0.00    -0.297 OA
ATOM     11  C   UNL d   1     -55.379-102.524 -44.957  0.00  0.00     0.185 C 
ENDBRANCH   6  10
BRANCH   8  12
ATOM     12  O   UNL d   1     -54.825 -99.217 -44.426  0.00  0.00    -0.312 OA
ATOM     13  C   UNL d   1     -55.544 -98.794 -44.381  0.00  0.00     0.183 C 
ENDBRANCH   8  12
ENDBRANCH   1   4
BRANCH   2  14
ATOM     14  C   UNL d   1     -54.746-101.969 -41.128  0.00  0.00     0.058 A 
ATOM     15  C   UNL d   1     -54.722-101.336 -40.596  0.00  0.00     0.007 A 
ATOM     16  C   UNL d   1     -54.720-101.460 -39.812  0.00  0.00     0.024 A 
ATOM     17  C   UNL d   1     -54.744-102.236 -39.495  0.00  0.00     0.094 A 
ATOM     18  C   UNL d   1     -54.768-102.873 -40.018  0.00  0.00     0.024 A 
ATOM     19  C   UNL d   1     -54.769-102.721 -40.827  0.00  0.00     0.007 A 
BRANCH  17  20
ATOM     20  O   UNL d   1     -54.743-102.372 -38.692  0.00  0.00    -0.328 OA
ATOM     21  C   UNL d   1     -55.332-102.809 -38.353  0.00  0.00     0.181 C 
ENDBRANCH  17  20
ENDBRANCH   2  14
TORSDOF 5
ENDMDL
