MODEL 1
REMARK VINA RESULT:      -5.3      0.000      0.000
REMARK  5 active torsions:
REMARK  status: ('A' for Active; 'I' for Inactive)
REMARK    1  A    between atoms: C_6  and  N_1 
REMARK    2  A    between atoms: C_11  and  C_6 
REMARK    3  A    between atoms: C_14  and  C_11 
REMARK    4  A    between atoms: C_12  and  O_13 
REMARK    5  A    between atoms: O_13  and  C_14 
ROOT
ATOM      1  C   UNL d   1      58.476  -0.507  29.546  0.00  0.00     0.238 C 
ATOM      2  O   UNL d   1      58.025  -0.203  28.925  0.00  0.00    -0.283 OA
ENDROOT
BRANCH   1   3
ATOM      3  C   UNL d   1      59.182  -0.907  29.391  0.00  0.00     0.126 C 
BRANCH   3   4
ATOM      4  N   UNL d   1      59.162  -1.669  29.058  0.00  0.00    -0.284 N 
ATOM      5  C   UNL d   1      58.499  -2.052  28.759  0.00  0.00     0.183 A 
ATOM      6  N   UNL d   1      58.727  -2.796  28.483  0.00  0.00    -0.224 NA
ATOM      7  C   UNL d   1      59.537  -2.871  28.614  0.00  0.00     0.099 A 
ATOM      8  C   UNL d   1      59.810  -2.178  28.968  0.00  0.00     0.083 A 
ATOM      9  C   UNL d   1      60.061  -3.482  28.455  0.00  0.00     0.021 A 
ATOM     10  C   UNL d   1      60.607  -2.095  29.164  0.00  0.00     0.019 A 
ATOM     11  C   UNL d   1      61.133  -2.711  29.004  0.00  0.00     0.002 A 
ATOM     12  C   UNL d   1      60.862  -3.409  28.647  0.00  0.00     0.002 A 
ENDBRANCH   3   4
ENDBRANCH   1   3
BRANCH   1  13
ATOM     13  C   UNL d   1      58.218  -0.410  30.336  0.00  0.00     0.166 C 
BRANCH  13  14
ATOM     14  O   UNL d   1      57.444  -0.117  30.493  0.00  0.00    -0.302 OA
BRANCH  14  15
ATOM     15  C   UNL d   1      57.155  -0.050  31.273  0.00  0.00     0.100 A 
ATOM     16  C   UNL d   1      56.680  -0.634  31.580  0.00  0.00     0.025 A 
ATOM     17  C   UNL d   1      56.392  -0.567  32.360  0.00  0.00     0.002 A 
ATOM     18  C   UNL d   1      55.915  -1.052  32.811  0.00  0.00     0.000 A 
ATOM     19  C   UNL d   1      56.590   0.090  32.812  0.00  0.00     0.000 A 
ATOM     20  C   UNL d   1      55.818  -0.696  33.542  0.00  0.00     0.000 A 
ATOM     21  C   UNL d   1      56.233   0.007  33.543  0.00  0.00     0.000 A 
ATOM     22  C   UNL d   1      57.078   0.682  32.485  0.00  0.00     0.002 A 
ATOM     23  C   UNL d   1      57.353   0.606  31.725  0.00  0.00     0.025 A 
ENDBRANCH  14  15
ENDBRANCH  13  14
ENDBRANCH   1  13
TORSDOF 5
ENDMDL
MODEL 2
REMARK VINA RESULT:      -4.8      1.120      1.768
REMARK  5 active torsions:
REMARK  status: ('A' for Active; 'I' for Inactive)
REMARK    1  A    between atoms: C_6  and  N_1 
REMARK    2  A    between atoms: C_11  and  C_6 
REMARK    3  A    between atoms: C_14  and  C_11 
REMARK    4  A    between atoms: C_12  and  O_13 
REMARK    5  A    between atoms: O_13  and  C_14 
ROOT
ATOM      1  C   UNL d   1      57.681   0.228  30.460  0.00  0.00     0.238 C 
ATOM      2  O   UNL d   1      57.345   0.672  29.851  0.00  0.00    -0.283 OA
ENDROOT
BRANCH   1   3
ATOM      3  C   UNL d   1      58.192  -0.398  30.287  0.00  0.00     0.126 C 
BRANCH   3   4
ATOM      4  N   UNL d   1      58.856  -0.269  29.804  0.00  0.00    -0.284 N 
ATOM      5  C   UNL d   1      59.199   0.458  29.631  0.00  0.00     0.183 A 
ATOM      6  N   UNL d   1      59.845   0.334  29.133  0.00  0.00    -0.224 NA
ATOM      7  C   UNL d   1      59.900  -0.477  28.998  0.00  0.00     0.099 A 
ATOM      8  C   UNL d   1      59.292  -0.852  29.410  0.00  0.00     0.083 A 
ATOM      9  C   UNL d   1      60.426  -0.921  28.553  0.00  0.00     0.021 A 
ATOM     10  C   UNL d   1      59.211  -1.674  29.377  0.00  0.00     0.019 A 
ATOM     11  C   UNL d   1      59.741  -2.119  28.928  0.00  0.00     0.002 A 
ATOM     12  C   UNL d   1      60.353  -1.744  28.513  0.00  0.00     0.002 A 
ENDBRANCH   3   4
ENDBRANCH   1   3
BRANCH   1  13
ATOM     13  C   UNL d   1      57.504   0.412  31.257  0.00  0.00     0.166 C 
BRANCH  13  14
ATOM     14  O   UNL d   1      57.101  -0.150  31.739  0.00  0.00    -0.302 OA
BRANCH  14  15
ATOM     15  C   UNL d   1      56.747   0.072  32.462  0.00  0.00     0.100 A 
ATOM     16  C   UNL d   1      55.964  -0.099  32.597  0.00  0.00     0.025 A 
ATOM     17  C   UNL d   1      55.610   0.123  33.320  0.00  0.00     0.002 A 
ATOM     18  C   UNL d   1      54.853   0.030  33.610  0.00  0.00     0.000 A 
ATOM     19  C   UNL d   1      56.057   0.513  33.888  0.00  0.00     0.000 A 
ATOM     20  C   UNL d   1      54.831   0.362  34.358  0.00  0.00     0.000 A 
ATOM     21  C   UNL d   1      55.572   0.659  34.530  0.00  0.00     0.000 A 
ATOM     22  C   UNL d   1      56.859   0.682  33.737  0.00  0.00     0.002 A 
ATOM     23  C   UNL d   1      57.193   0.461  33.030  0.00  0.00     0.025 A 
ENDBRANCH  14  15
ENDBRANCH  13  14
ENDBRANCH   1  13
TORSDOF 5
ENDMDL
MODEL 3
REMARK VINA RESULT:      -4.8      1.884      5.580
REMARK  5 active torsions:
REMARK  status: ('A' for Active; 'I' for Inactive)
REMARK    1  A    between atoms: C_6  and  N_1 
REMARK    2  A    between atoms: C_11  and  C_6 
REMARK    3  A    between atoms: C_14  and  C_11 
REMARK    4  A    between atoms: C_12  and  O_13 
REMARK    5  A    between atoms: O_13  and  C_14 
ROOT
ATOM      1  C   UNL d   1      56.807  -0.715  31.764  0.00  0.00     0.238 C 
ATOM      2  O   UNL d   1      56.635  -1.494  31.973  0.00  0.00    -0.283 OA
ENDROOT
BRANCH   1   3
ATOM      3  C   UNL d   1      56.367  -0.091  32.083  0.00  0.00     0.126 C 
BRANCH   3   4
ATOM      4  N   UNL d   1      56.479   0.131  32.876  0.00  0.00    -0.284 N 
ATOM      5  C   UNL d   1      57.201   0.230  33.257  0.00  0.00     0.183 A 
ATOM      6  N   UNL d   1      57.058   0.452  34.039  0.00  0.00    -0.224 NA
ATOM      7  C   UNL d   1      56.241   0.490  34.139  0.00  0.00     0.099 A 
ATOM      8  C   UNL d   1      55.880   0.293  33.425  0.00  0.00     0.083 A 
ATOM      9  C   UNL d   1      55.781   0.680  34.791  0.00  0.00     0.021 A 
ATOM     10  C   UNL d   1      55.057   0.285  33.362  0.00  0.00     0.019 A 
ATOM     11  C   UNL d   1      54.595   0.475  34.018  0.00  0.00     0.002 A 
ATOM     12  C   UNL d   1      54.956   0.675  34.739  0.00  0.00     0.002 A 
ENDBRANCH   3   4
ENDBRANCH   1   3
BRANCH   1  13
ATOM     13  C   UNL d   1      57.428  -0.553  31.227  0.00  0.00     0.166 C 
BRANCH  13  14
ATOM     14  O   UNL d   1      57.466  -0.962  30.492  0.00  0.00    -0.302 OA
BRANCH  14  15
ATOM     15  C   UNL d   1      58.124  -0.882  29.984  0.00  0.00     0.100 A 
ATOM     16  C   UNL d   1      58.533  -1.543  29.746  0.00  0.00     0.025 A 
ATOM     17  C   UNL d   1      59.191  -1.464  29.239  0.00  0.00     0.002 A 
ATOM     18  C   UNL d   1      59.700  -2.012  28.913  0.00  0.00     0.000 A 
ATOM     19  C   UNL d   1      59.420  -0.717  28.984  0.00  0.00     0.000 A 
ATOM     20  C   UNL d   1      60.244  -1.605  28.456  0.00  0.00     0.000 A 
ATOM     21  C   UNL d   1      60.072  -0.808  28.500  0.00  0.00     0.000 A 
ATOM     22  C   UNL d   1      58.992  -0.047  29.236  0.00  0.00     0.002 A 
ATOM     23  C   UNL d   1      58.353  -0.136  29.729  0.00  0.00     0.025 A 
ENDBRANCH  14  15
ENDBRANCH  13  14
ENDBRANCH   1  13
TORSDOF 5
ENDMDL
