MODEL 1
REMARK VINA RESULT:      27.3      0.000      0.000
REMARK  5 active torsions:
REMARK  status: ('A' for Active; 'I' for Inactive)
REMARK    1  A    between atoms: S_6  and  C_3 
REMARK    2  A    between atoms: C_10  and  C_4 
REMARK    3  A    between atoms: C_5  and  C_7 
REMARK    4  A    between atoms: C_9  and  C_5 
REMARK    5  A    between atoms: C_7  and  S_6 
ROOT
ATOM      1  N   UNL d   1      13.870  13.077  -3.064  0.00  0.00    -0.148 NA
ATOM      2  N   UNL d   1      13.993  13.083  -2.246  0.00  0.00    -0.141 NA
ATOM      3  C   UNL d   1      13.758  12.440  -1.785  0.00  0.00     0.133 A 
ATOM      4  C   UNL d   1      13.508  12.423  -3.419  0.00  0.00     0.103 A 
ATOM      5  C   UNL d   1      13.271  11.780  -2.966  0.00  0.00     0.023 A 
ATOM      6  C   UNL d   1      13.393  11.782  -2.152  0.00  0.00     0.029 A 
ENDROOT
BRANCH   3   7
ATOM      7  S   UNL d   1      13.882  12.449  -0.976  0.00  0.00    -0.062 SA
BRANCH   7   8
ATOM      8  C   UNL d   1      14.178  13.127  -0.611  0.00  0.00     0.079 C 
BRANCH   8   9
ATOM      9  C   UNL d   1      14.977  13.156  -0.362  0.00  0.00     0.202 C 
ATOM     10  O   UNL d   1      15.388  12.464  -0.237  0.00  0.00    -0.286 OA
BRANCH   9  11
ATOM     11  C   UNL d   1      15.338  13.883  -0.247  0.00  0.00     0.040 A 
ATOM     12  C   UNL d   1      14.883  14.569  -0.216  0.00  0.00     0.003 A 
ATOM     13  C   UNL d   1      15.237  15.304  -0.101  0.00  0.00     0.000 A 
ATOM     14  C   UNL d   1      16.066  15.344  -0.016  0.00  0.00     0.000 A 
ATOM     15  C   UNL d   1      16.522  14.657  -0.047  0.00  0.00     0.000 A 
ATOM     16  C   UNL d   1      16.151  13.930  -0.163  0.00  0.00     0.003 A 
ENDBRANCH   9  11
ENDBRANCH   8   9
ENDBRANCH   7   8
ENDBRANCH   3   7
BRANCH   4  17
ATOM     17  C   UNL d   1      13.384  12.417  -4.237  0.00  0.00     0.019 A 
ATOM     18  C   UNL d   1      13.657  13.050  -4.704  0.00  0.00     0.002 A 
ATOM     19  C   UNL d   1      13.532  13.044  -5.526  0.00  0.00     0.000 A 
ATOM     20  C   UNL d   1      13.135  12.407  -5.884  0.00  0.00     0.000 A 
ATOM     21  C   UNL d   1      12.867  11.785  -5.424  0.00  0.00     0.000 A 
ATOM     22  C   UNL d   1      12.986  11.780  -4.602  0.00  0.00     0.002 A 
ENDBRANCH   4  17
TORSDOF 5
ENDMDL
