MODEL 1
REMARK VINA RESULT:      -9.2      0.000      0.000
REMARK  4 active torsions:
REMARK  status: ('A' for Active; 'I' for Inactive)
REMARK    1  A    between atoms: C_3  and  C_1 
REMARK    2  A    between atoms: N_2  and  C_9 
REMARK    3  A    between atoms: N_6  and  C_3 
REMARK    4  A    between atoms: C_10  and  C_5 
ROOT
ATOM      1  C   UNL d   1      54.143  32.909  54.161  0.00  0.00     0.126 A 
ATOM      2  O   UNL d   1      53.593  32.302  54.302  0.00  0.00    -0.305 OA
ATOM      3  C   UNL d   1      53.752  31.706  53.758  0.00  0.00     0.100 A 
ATOM      4  C   UNL d   1      54.605  32.669  53.554  0.00  0.00     0.029 A 
ATOM      5  C   UNL d   1      54.379  31.944  53.302  0.00  0.00     0.027 A 
ENDROOT
BRANCH   3   6
ATOM      6  C   UNL d   1      53.397  30.967  53.623  0.00  0.00     0.024 A 
ATOM      7  C   UNL d   1      53.521  30.344  54.171  0.00  0.00     0.025 A 
ATOM      8  C   UNL d   1      53.166  29.605  54.036  0.00  0.00     0.127 A 
ATOM      9  C   UNL d   1      52.694  29.487  53.364  0.00  0.00     0.024 A 
ATOM     10  C   UNL d   1      52.580  30.103  52.836  0.00  0.00     0.002 A 
ATOM     11  C   UNL d   1      52.932  30.837  52.969  0.00  0.00     0.002 A 
BRANCH   8  12
ATOM     12  N   UNL d   1      53.285  28.999  54.567  0.00  0.00    -0.114 N 
ATOM     13  O   UNL d   1      52.962  28.989  55.335  0.00  0.00    -0.532 OA
ATOM     14  O   UNL d   1      53.730  28.333  54.420  0.00  0.00    -0.532 OA
ENDBRANCH   8  12
ENDBRANCH   3   6
BRANCH   1  15
ATOM     15  C   UNL d   1      54.231  33.642  54.553  0.00  0.00     0.143 C 
ATOM     16  S   UNL d   1      54.857  33.783  55.057  0.00  0.00    -0.057 SA
BRANCH  15  17
ATOM     17  N   UNL d   1      53.680  34.252  54.441  0.00  0.00    -0.290 N 
ATOM     18  C   UNL d   1      53.257  34.504  55.083  0.00  0.00     0.108 A 
ATOM     19  C   UNL d   1      52.709  35.114  54.964  0.00  0.00     0.142 A 
ATOM     20  O   UNL d   1      52.605  35.437  54.246  0.00  0.00    -0.300 OA
ATOM     21  C   UNL d   1      53.010  35.203  53.608  0.00  0.00     0.142 A 
ATOM     22  C   UNL d   1      53.580  34.576  53.707  0.00  0.00     0.108 A 
ENDBRANCH  15  17
ENDBRANCH   1  15
TORSDOF 4
ENDMDL
MODEL 2
REMARK VINA RESULT:      -8.6      1.281      1.532
REMARK  4 active torsions:
REMARK  status: ('A' for Active; 'I' for Inactive)
REMARK    1  A    between atoms: C_3  and  C_1 
REMARK    2  A    between atoms: N_2  and  C_9 
REMARK    3  A    between atoms: N_6  and  C_3 
REMARK    4  A    between atoms: C_10  and  C_5 
ROOT
ATOM      1  C   UNL d   1      53.130  32.952  53.740  0.00  0.00     0.126 A 
ATOM      2  O   UNL d   1      52.712  32.240  53.646  0.00  0.00    -0.305 OA
ATOM      3  C   UNL d   1      53.272  31.640  53.594  0.00  0.00     0.100 A 
ATOM      4  C   UNL d   1      53.907  32.768  53.742  0.00  0.00     0.029 A 
ATOM      5  C   UNL d   1      54.006  31.978  53.654  0.00  0.00     0.027 A 
ENDROOT
BRANCH   3   6
ATOM      6  C   UNL d   1      53.200  30.818  53.497  0.00  0.00     0.024 A 
ATOM      7  C   UNL d   1      53.289  30.316  54.163  0.00  0.00     0.025 A 
ATOM      8  C   UNL d   1      53.217  29.494  54.067  0.00  0.00     0.127 A 
ATOM      9  C   UNL d   1      53.058  29.176  53.317  0.00  0.00     0.024 A 
ATOM     10  C   UNL d   1      52.974  29.675  52.674  0.00  0.00     0.002 A 
ATOM     11  C   UNL d   1      53.045  30.492  52.769  0.00  0.00     0.002 A 
BRANCH   8  12
ATOM     12  N   UNL d   1      53.303  29.005  54.712  0.00  0.00    -0.114 N 
ATOM     13  O   UNL d   1      53.710  28.278  54.690  0.00  0.00    -0.532 OA
ATOM     14  O   UNL d   1      53.006  29.159  55.455  0.00  0.00    -0.532 OA
ENDBRANCH   8  12
ENDBRANCH   3   6
BRANCH   1  15
ATOM     15  C   UNL d   1      52.834  33.729  53.821  0.00  0.00     0.143 C 
ATOM     16  S   UNL d   1      53.176  34.265  54.334  0.00  0.00    -0.057 SA
BRANCH  15  17
ATOM     17  N   UNL d   1      52.178  33.983  53.380  0.00  0.00    -0.290 N 
ATOM     18  C   UNL d   1      52.313  34.288  52.643  0.00  0.00     0.108 A 
ATOM     19  C   UNL d   1      51.653  34.539  52.208  0.00  0.00     0.142 A 
ATOM     20  O   UNL d   1      50.919  34.481  52.505  0.00  0.00    -0.300 OA
ATOM     21  C   UNL d   1      50.770  34.185  53.224  0.00  0.00     0.142 A 
ATOM     22  C   UNL d   1      51.434  33.920  53.690  0.00  0.00     0.108 A 
ENDBRANCH  15  17
ENDBRANCH   1  15
TORSDOF 4
ENDMDL
MODEL 3
REMARK VINA RESULT:      -7.8      1.295      4.710
REMARK  4 active torsions:
REMARK  status: ('A' for Active; 'I' for Inactive)
REMARK    1  A    between atoms: C_3  and  C_1 
REMARK    2  A    between atoms: N_2  and  C_9 
REMARK    3  A    between atoms: N_6  and  C_3 
REMARK    4  A    between atoms: C_10  and  C_5 
ROOT
ATOM      1  C   UNL d   1      53.444  31.059  53.603  0.00  0.00     0.126 A 
ATOM      2  O   UNL d   1      53.353  31.630  54.200  0.00  0.00    -0.305 OA
ATOM      3  C   UNL d   1      53.860  32.251  54.015  0.00  0.00     0.100 A 
ATOM      4  C   UNL d   1      53.987  31.342  53.090  0.00  0.00     0.029 A 
ATOM      5  C   UNL d   1      54.247  32.061  53.328  0.00  0.00     0.027 A 
ENDROOT
BRANCH   3   6
ATOM      6  C   UNL d   1      54.018  32.973  54.394  0.00  0.00     0.024 A 
ATOM      7  C   UNL d   1      53.516  33.631  54.253  0.00  0.00     0.025 A 
ATOM      8  C   UNL d   1      53.674  34.353  54.632  0.00  0.00     0.127 A 
ATOM      9  C   UNL d   1      54.322  34.420  55.145  0.00  0.00     0.024 A 
ATOM     10  C   UNL d   1      54.805  33.772  55.275  0.00  0.00     0.002 A 
ATOM     11  C   UNL d   1      54.649  33.054  54.899  0.00  0.00     0.002 A 
BRANCH   8  12
ATOM     12  N   UNL d   1      53.188  34.992  54.496  0.00  0.00    -0.114 N 
ATOM     13  O   UNL d   1      52.926  35.508  55.095  0.00  0.00    -0.532 OA
ATOM     14  O   UNL d   1      52.897  35.208  53.766  0.00  0.00    -0.532 OA
ENDBRANCH   8  12
ENDBRANCH   3   6
BRANCH   1  15
ATOM     15  C   UNL d   1      53.062  30.320  53.519  0.00  0.00     0.143 C 
ATOM     16  S   UNL d   1      52.549  30.174  52.902  0.00  0.00    -0.057 SA
BRANCH  15  17
ATOM     17  N   UNL d   1      53.193  29.709  54.064  0.00  0.00    -0.290 N 
ATOM     18  C   UNL d   1      53.704  29.118  53.856  0.00  0.00     0.108 A 
ATOM     19  C   UNL d   1      53.831  28.511  54.406  0.00  0.00     0.142 A 
ATOM     20  O   UNL d   1      53.463  28.512  55.110  0.00  0.00    -0.300 OA
ATOM     21  C   UNL d   1      52.960  29.082  55.330  0.00  0.00     0.142 A 
ATOM     22  C   UNL d   1      52.815  29.718  54.779  0.00  0.00     0.108 A 
ENDBRANCH  15  17
ENDBRANCH   1  15
TORSDOF 4
ENDMDL
MODEL 4
REMARK VINA RESULT:      -7.2      1.716      4.564
REMARK  4 active torsions:
REMARK  status: ('A' for Active; 'I' for Inactive)
REMARK    1  A    between atoms: C_3  and  C_1 
REMARK    2  A    between atoms: N_2  and  C_9 
REMARK    3  A    between atoms: N_6  and  C_3 
REMARK    4  A    between atoms: C_10  and  C_5 
ROOT
ATOM      1  C   UNL d   1      53.682  31.695  53.554  0.00  0.00     0.126 A 
ATOM      2  O   UNL d   1      53.116  32.195  53.206  0.00  0.00    -0.305 OA
ATOM      3  C   UNL d   1      53.144  32.908  53.615  0.00  0.00     0.100 A 
ATOM      4  C   UNL d   1      54.026  32.108  54.145  0.00  0.00     0.029 A 
ATOM      5  C   UNL d   1      53.710  32.843  54.193  0.00  0.00     0.027 A 
ENDROOT
BRANCH   3   6
ATOM      6  C   UNL d   1      52.718  33.616  53.530  0.00  0.00     0.024 A 
ATOM      7  C   UNL d   1      52.000  33.616  53.095  0.00  0.00     0.025 A 
ATOM      8  C   UNL d   1      51.574  34.323  53.010  0.00  0.00     0.127 A 
ATOM      9  C   UNL d   1      51.858  35.023  53.354  0.00  0.00     0.024 A 
ATOM     10  C   UNL d   1      52.559  35.012  53.776  0.00  0.00     0.002 A 
ATOM     11  C   UNL d   1      52.984  34.309  53.861  0.00  0.00     0.002 A 
BRANCH   8  12
ATOM     12  N   UNL d   1      50.878  34.324  52.588  0.00  0.00    -0.114 N 
ATOM     13  O   UNL d   1      50.842  34.268  51.758  0.00  0.00    -0.532 OA
ATOM     14  O   UNL d   1      50.135  34.380  52.917  0.00  0.00    -0.532 OA
ENDBRANCH   8  12
ENDBRANCH   3   6
BRANCH   1  15
ATOM     15  C   UNL d   1      53.883  30.909  53.354  0.00  0.00     0.143 C 
ATOM     16  S   UNL d   1      54.555  30.738  52.923  0.00  0.00    -0.057 SA
BRANCH  15  17
ATOM     17  N   UNL d   1      53.403  30.275  53.589  0.00  0.00    -0.290 N 
ATOM     18  C   UNL d   1      52.797  30.057  53.100  0.00  0.00     0.108 A 
ATOM     19  C   UNL d   1      52.321  29.423  53.341  0.00  0.00     0.142 A 
ATOM     20  O   UNL d   1      52.458  29.045  54.026  0.00  0.00    -0.300 OA
ATOM     21  C   UNL d   1      53.047  29.245  54.516  0.00  0.00     0.142 A 
ATOM     22  C   UNL d   1      53.549  29.895  54.288  0.00  0.00     0.108 A 
ENDBRANCH  15  17
ENDBRANCH   1  15
TORSDOF 4
ENDMDL
MODEL 5
REMARK VINA RESULT:      -7.1      2.578      4.736
REMARK  4 active torsions:
REMARK  status: ('A' for Active; 'I' for Inactive)
REMARK    1  A    between atoms: C_3  and  C_1 
REMARK    2  A    between atoms: N_2  and  C_9 
REMARK    3  A    between atoms: N_6  and  C_3 
REMARK    4  A    between atoms: C_10  and  C_5 
ROOT
ATOM      1  C   UNL d   1      52.682  33.981  53.724  0.00  0.00     0.126 A 
ATOM      2  O   UNL d   1      51.902  33.754  53.549  0.00  0.00    -0.305 OA
ATOM      3  C   UNL d   1      51.598  34.319  53.035  0.00  0.00     0.100 A 
ATOM      4  C   UNL d   1      52.824  34.657  53.322  0.00  0.00     0.029 A 
ATOM      5  C   UNL d   1      52.177  34.872  52.901  0.00  0.00     0.027 A 
ENDROOT
BRANCH   3   6
ATOM      6  C   UNL d   1      50.857  34.398  52.668  0.00  0.00     0.024 A 
ATOM      7  C   UNL d   1      50.260  34.854  53.040  0.00  0.00     0.025 A 
ATOM      8  C   UNL d   1      49.518  34.933  52.674  0.00  0.00     0.127 A 
ATOM      9  C   UNL d   1      49.373  34.561  51.946  0.00  0.00     0.024 A 
ATOM     10  C   UNL d   1      49.964  34.118  51.592  0.00  0.00     0.002 A 
ATOM     11  C   UNL d   1      50.701  34.040  51.955  0.00  0.00     0.002 A 
BRANCH   8  12
ATOM     12  N   UNL d   1      48.938  35.376  53.034  0.00  0.00    -0.114 N 
ATOM     13  O   UNL d   1      48.182  35.499  52.705  0.00  0.00    -0.532 OA
ATOM     14  O   UNL d   1      49.017  35.751  53.752  0.00  0.00    -0.532 OA
ENDBRANCH   8  12
ENDBRANCH   3   6
BRANCH   1  15
ATOM     15  C   UNL d   1      53.242  33.605  54.217  0.00  0.00     0.143 C 
ATOM     16  S   UNL d   1      53.477  33.937  54.925  0.00  0.00    -0.057 SA
BRANCH  15  17
ATOM     17  N   UNL d   1      53.578  32.878  54.001  0.00  0.00    -0.290 N 
ATOM     18  C   UNL d   1      54.245  32.890  53.544  0.00  0.00     0.108 A 
ATOM     19  C   UNL d   1      54.576  32.160  53.332  0.00  0.00     0.142 A 
ATOM     20  O   UNL d   1      54.248  31.477  53.571  0.00  0.00    -0.300 OA
ATOM     21  C   UNL d   1      53.596  31.448  54.019  0.00  0.00     0.142 A 
ATOM     22  C   UNL d   1      53.239  32.187  54.249  0.00  0.00     0.108 A 
ENDBRANCH  15  17
ENDBRANCH   1  15
TORSDOF 4
ENDMDL
MODEL 6
REMARK VINA RESULT:      -7.0      3.312      5.203
REMARK  4 active torsions:
REMARK  status: ('A' for Active; 'I' for Inactive)
REMARK    1  A    between atoms: C_3  and  C_1 
REMARK    2  A    between atoms: N_2  and  C_9 
REMARK    3  A    between atoms: N_6  and  C_3 
REMARK    4  A    between atoms: C_10  and  C_5 
ROOT
ATOM      1  C   UNL d   1      51.638  33.885  53.121  0.00  0.00     0.126 A 
ATOM      2  O   UNL d   1      51.192  34.509  52.800  0.00  0.00    -0.305 OA
ATOM      3  C   UNL d   1      50.410  34.256  52.777  0.00  0.00     0.100 A 
ATOM      4  C   UNL d   1      51.128  33.291  53.278  0.00  0.00     0.029 A 
ATOM      5  C   UNL d   1      50.383  33.502  53.075  0.00  0.00     0.027 A 
ENDROOT
BRANCH   3   6
ATOM      6  C   UNL d   1      49.713  34.625  52.518  0.00  0.00     0.024 A 
ATOM      7  C   UNL d   1      49.296  35.132  53.041  0.00  0.00     0.025 A 
ATOM      8  C   UNL d   1      48.599  35.502  52.783  0.00  0.00     0.127 A 
ATOM      9  C   UNL d   1      48.319  35.369  52.013  0.00  0.00     0.024 A 
ATOM     10  C   UNL d   1      48.733  34.872  51.511  0.00  0.00     0.002 A 
ATOM     11  C   UNL d   1      49.427  34.504  51.767  0.00  0.00     0.002 A 
BRANCH   8  12
ATOM     12  N   UNL d   1      48.194  35.994  53.289  0.00  0.00    -0.114 N 
ATOM     13  O   UNL d   1      47.377  35.930  53.438  0.00  0.00    -0.532 OA
ATOM     14  O   UNL d   1      48.529  36.605  53.711  0.00  0.00    -0.532 OA
ENDBRANCH   8  12
ENDBRANCH   3   6
BRANCH   1  15
ATOM     15  C   UNL d   1      52.460  33.847  53.267  0.00  0.00     0.143 C 
ATOM     16  S   UNL d   1      52.952  33.377  52.815  0.00  0.00    -0.057 SA
BRANCH  15  17
ATOM     17  N   UNL d   1      52.804  34.287  53.880  0.00  0.00    -0.290 N 
ATOM     18  C   UNL d   1      53.053  33.890  54.539  0.00  0.00     0.108 A 
ATOM     19  C   UNL d   1      53.395  34.336  55.147  0.00  0.00     0.142 A 
ATOM     20  O   UNL d   1      53.476  35.124  55.083  0.00  0.00    -0.300 OA
ATOM     21  C   UNL d   1      53.238  35.528  54.445  0.00  0.00     0.142 A 
ATOM     22  C   UNL d   1      52.882  35.089  53.806  0.00  0.00     0.108 A 
ENDBRANCH  15  17
ENDBRANCH   1  15
TORSDOF 4
ENDMDL
