MODEL 1
REMARK VINA RESULT:      -1.8      0.000      0.000
REMARK  4 active torsions:
REMARK  status: ('A' for Active; 'I' for Inactive)
REMARK    1  A    between atoms: N_10  and  C_2 
REMARK    2  A    between atoms: N_11  and  C_6 
REMARK    3  A    between atoms: C_12  and  N_11 
REMARK    4  A    between atoms: O_19  and  C_15 
ROOT
ATOM      1  N   UNL d   1     -41.397-121.682 -52.619  0.00  0.00    -0.041 NA
ATOM      2  C   UNL d   1     -41.465-122.415 -52.884  0.00  0.00     0.738 A 
ATOM      3  C   UNL d   1     -41.307-121.552 -51.852  0.00  0.00     0.187 A 
ATOM      4  N   UNL d   1     -41.441-123.021 -52.381  0.00  0.00    -0.041 NA
ATOM      5  C   UNL d   1     -41.282-122.155 -51.346  0.00  0.00     0.094 A 
ATOM      6  C   UNL d   1     -41.350-122.898 -51.610  0.00  0.00     0.185 A 
ATOM      7  N   UNL d   1     -41.147-120.679 -50.808  0.00  0.00    -0.162 NA
ATOM      8  N   UNL d   1     -41.239-120.810 -51.588  0.00  0.00    -0.208 N 
ATOM      9  C   UNL d   1     -41.123-121.285 -50.305  0.00  0.00     0.127 A 
ATOM     10  C   UNL d   1     -41.263-120.207 -52.089  0.00  0.00     0.123 C 
ENDROOT
BRANCH   6  11
ATOM     11  N   UNL d   1     -41.326-123.533 -51.093  0.00  0.00    -0.226 NA
BRANCH  11  12
ATOM     12  C   UNL d   1     -41.909-123.625 -50.521  0.00  0.00     0.085 A 
ATOM     13  C   UNL d   1     -41.716-123.619 -49.711  0.00  0.00     0.043 A 
ATOM     14  C   UNL d   1     -42.300-123.711 -49.136  0.00  0.00     0.096 A 
ATOM     15  C   UNL d   1     -43.092-123.811 -49.370  0.00  0.00     0.024 A 
ATOM     16  C   UNL d   1     -43.288-123.817 -50.168  0.00  0.00     0.004 A 
ATOM     17  C   UNL d   1     -42.695-123.724 -50.745  0.00  0.00     0.019 A 
BRANCH  14  18
ATOM     18  O   UNL d   1     -42.106-123.705 -48.334  0.00  0.00    -0.328 OA
ATOM     19  C   UNL d   1     -42.516-123.490 -47.646  0.00  0.00     0.181 C 
ENDBRANCH  14  18
ENDBRANCH  11  12
ENDBRANCH   6  11
BRANCH   2  20
ATOM     20  N   UNL d   1     -41.561-122.558 -53.697  0.00  0.00    -0.133 N 
ATOM     21  C   UNL d   1     -42.011-122.044 -54.157  0.00  0.00     0.125 A 
ATOM     22  C   UNL d   1     -42.106-122.188 -54.966  0.00  0.00     0.142 A 
ATOM     23  O   UNL d   1     -41.748-122.851 -55.318  0.00  0.00    -0.300 OA
ATOM     24  C   UNL d   1     -41.295-123.369 -54.855  0.00  0.00     0.142 A 
ATOM     25  C   UNL d   1     -41.201-123.222 -54.045  0.00  0.00     0.125 A 
ENDBRANCH   2  20
TORSDOF 4
ENDMDL
