MODEL 1
REMARK VINA RESULT:      42.1      0.000      0.000
REMARK  3 active torsions:
REMARK  status: ('A' for Active; 'I' for Inactive)
REMARK    1  A    between atoms: C_7  and  N_1 
REMARK    2  A    between atoms: C_6  and  C_2 
REMARK    3  A    between atoms: O_19  and  C_9 
ROOT
ATOM      1  N   UNL d   1      14.046  13.635  -2.444  0.00  0.00    -0.259 N 
ATOM      2  C   UNL d   1      13.869  12.854  -2.228  0.00  0.00     0.137 A 
ATOM      3  C   UNL d   1      13.837  13.753  -3.219  0.00  0.00     0.282 A 
ATOM      4  N   UNL d   1      13.539  12.484  -2.901  0.00  0.00    -0.287 N 
ATOM      5  C   UNL d   1      13.519  13.046  -3.519  0.00  0.00     0.122 A 
ATOM      6  O   UNL d   1      13.918  14.453  -3.657  0.00  0.00    -0.265 OA
ATOM      7  C   UNL d   1      13.225  11.779  -3.193  0.00  0.00     0.082 A 
ATOM      8  C   UNL d   1      13.192  12.672  -4.179  0.00  0.00     0.024 A 
ATOM      9  C   UNL d   1      13.010  11.896  -3.984  0.00  0.00     0.021 A 
ENDROOT
BRANCH   2  10
ATOM     10  C   UNL d   1      13.990  12.496  -1.494  0.00  0.00     0.056 A 
ATOM     11  C   UNL d   1      14.700  12.138  -1.321  0.00  0.00     0.097 A 
ATOM     12  C   UNL d   1      14.827  11.780  -0.593  0.00  0.00     0.024 A 
ATOM     13  C   UNL d   1      14.220  11.787  -0.031  0.00  0.00     0.002 A 
ATOM     14  C   UNL d   1      13.510  12.146  -0.203  0.00  0.00     0.000 A 
ATOM     15  C   UNL d   1      13.384  12.507  -0.942  0.00  0.00     0.005 A 
BRANCH  11  16
ATOM     16  O   UNL d   1      15.305  12.134  -1.891  0.00  0.00    -0.328 OA
ATOM     17  C   UNL d   1      16.050  11.783  -1.712  0.00  0.00     0.181 C 
ENDBRANCH  11  16
ENDBRANCH   2  10
BRANCH   1  18
ATOM     18  C   UNL d   1      14.381  14.196  -1.943  0.00  0.00     0.068 A 
ATOM     19  C   UNL d   1      14.464  14.970  -2.199  0.00  0.00     0.018 A 
ATOM     20  C   UNL d   1      14.799  15.538  -1.703  0.00  0.00     0.013 A 
ATOM     21  C   UNL d   1      15.052  15.320  -0.943  0.00  0.00     0.058 A 
ATOM     22  C   UNL d   1      14.969  14.541  -0.685  0.00  0.00     0.013 A 
ATOM     23 CL   UNL d   1      15.387  15.888  -0.447  0.00  0.00    -0.082 Cl
ATOM     24  C   UNL d   1      14.633  13.978  -1.184  0.00  0.00     0.018 A 
ENDBRANCH   1  18
TORSDOF 3
ENDMDL
