MODEL 1
REMARK VINA RESULT:      -8.6      0.000      0.000
REMARK  6 active torsions:
REMARK  status: ('A' for Active; 'I' for Inactive)
REMARK    1  A    between atoms: C_21  and  N_1 
REMARK       I    between atoms: N_7  and  C_10 
REMARK    2  A    between atoms: C_15  and  N_8 
REMARK    3  A    between atoms: C_10  and  C_27 
REMARK    4  A    between atoms: C_29  and  C_21 
REMARK    5  A    between atoms: O_28  and  C_24 
REMARK    6  A    between atoms: C_27  and  C_29 
ROOT
ATOM      1  N   UNL d   1      49.554  34.659  51.976  0.00  0.00    -0.269 N 
ATOM      2  N   UNL d   1      48.075  35.351  52.004  0.00  0.00    -0.301 N 
ATOM      3  C   UNL d   1      50.311  34.305  51.971  0.00  0.00     0.265 C 
ATOM      4  C   UNL d   1      49.176  34.813  51.271  0.00  0.00     0.102 A 
ATOM      5  C   UNL d   1      49.214  34.842  52.702  0.00  0.00     0.102 A 
ATOM      6  C   UNL d   1      48.426  35.163  51.275  0.00  0.00     0.100 A 
ATOM      7  C   UNL d   1      48.457  35.196  52.707  0.00  0.00     0.100 A 
ATOM      8  O   UNL d   1      50.682  34.108  51.254  0.00  0.00    -0.267 OA
ENDROOT
BRANCH   3   9
ATOM      9  C   UNL d   1      50.682  34.156  52.702  0.00  0.00     0.063 C 
BRANCH   9  10
ATOM     10  C   UNL d   1      51.427  33.769  52.695  0.00  0.00     0.024 C 
BRANCH  10  11
ATOM     11  C   UNL d   1      51.627  33.274  53.339  0.00  0.00     0.088 C 
BRANCH  11  12
ATOM     12  N   UNL d   1      52.430  33.163  53.544  0.00  0.00    -0.224 N 
ATOM     13  C   UNL d   1      52.790  33.640  54.128  0.00  0.00     0.276 A 
ATOM     14  C   UNL d   1      53.584  33.518  54.319  0.00  0.00     0.104 A 
ATOM     15  O   UNL d   1      52.357  34.217  54.501  0.00  0.00    -0.266 OA
ATOM     16  S   UNL d   1      54.077  33.893  54.859  0.00  0.00    -0.080 SA
ATOM     17  C   UNL d   1      54.024  32.930  53.939  0.00  0.00     0.097 A 
ATOM     18  C   UNL d   1      54.802  33.540  54.808  0.00  0.00     0.037 A 
ATOM     19  C   UNL d   1      54.784  32.944  54.244  0.00  0.00     0.027 A 
ATOM     20  N   UNL d   1      53.668  32.460  53.364  0.00  0.00    -0.191 NA
ATOM     21  C   UNL d   1      52.877  32.571  53.163  0.00  0.00     0.356 A 
ATOM     22  O   UNL d   1      52.508  32.098  52.580  0.00  0.00    -0.244 OA
ENDBRANCH  11  12
ENDBRANCH  10  11
ENDBRANCH   9  10
ENDBRANCH   3   9
BRANCH   2  23
ATOM     23  C   UNL d   1      47.326  35.702  52.024  0.00  0.00     0.064 A 
ATOM     24  C   UNL d   1      47.153  36.330  52.529  0.00  0.00     0.020 A 
ATOM     25  C   UNL d   1      46.411  36.668  52.540  0.00  0.00     0.026 A 
ATOM     26  C   UNL d   1      45.817  36.386  52.043  0.00  0.00     0.094 A 
ATOM     27  C   UNL d   1      45.990  35.753  51.535  0.00  0.00     0.026 A 
ATOM     28  C   UNL d   1      46.740  35.410  51.523  0.00  0.00     0.020 A 
BRANCH  26  29
ATOM     29  O   UNL d   1      45.054  36.709  52.033  0.00  0.00    -0.328 OA
ATOM     30  C   UNL d   1      44.515  36.492  52.632  0.00  0.00     0.181 C 
ENDBRANCH  26  29
ENDBRANCH   2  23
TORSDOF 6
ENDMDL
MODEL 2
REMARK VINA RESULT:      -7.9      2.053      6.832
REMARK  6 active torsions:
REMARK  status: ('A' for Active; 'I' for Inactive)
REMARK    1  A    between atoms: C_21  and  N_1 
REMARK       I    between atoms: N_7  and  C_10 
REMARK    2  A    between atoms: C_15  and  N_8 
REMARK    3  A    between atoms: C_10  and  C_27 
REMARK    4  A    between atoms: C_29  and  C_21 
REMARK    5  A    between atoms: O_28  and  C_24 
REMARK    6  A    between atoms: C_27  and  C_29 
ROOT
ATOM      1  N   UNL d   1      50.651  34.262  52.884  0.00  0.00    -0.269 N 
ATOM      2  N   UNL d   1      52.113  33.874  53.498  0.00  0.00    -0.301 N 
ATOM      3  C   UNL d   1      49.902  34.468  52.574  0.00  0.00     0.265 C 
ATOM      4  C   UNL d   1      51.024  33.587  52.621  0.00  0.00     0.102 A 
ATOM      5  C   UNL d   1      50.988  34.754  53.449  0.00  0.00     0.102 A 
ATOM      6  C   UNL d   1      51.765  33.382  52.926  0.00  0.00     0.100 A 
ATOM      7  C   UNL d   1      51.737  34.548  53.758  0.00  0.00     0.100 A 
ATOM      8  O   UNL d   1      49.535  33.992  52.001  0.00  0.00    -0.267 OA
ENDROOT
BRANCH   3   9
ATOM      9  C   UNL d   1      49.537  35.161  52.855  0.00  0.00     0.063 C 
BRANCH   9  10
ATOM     10  C   UNL d   1      48.713  35.254  52.725  0.00  0.00     0.024 C 
BRANCH  10  11
ATOM     11  C   UNL d   1      48.356  35.987  52.916  0.00  0.00     0.088 C 
BRANCH  11  12
ATOM     12  N   UNL d   1      47.525  36.042  52.976  0.00  0.00    -0.224 N 
ATOM     13  C   UNL d   1      47.146  35.983  53.719  0.00  0.00     0.276 A 
ATOM     14  C   UNL d   1      46.324  36.038  53.761  0.00  0.00     0.104 A 
ATOM     15  O   UNL d   1      47.590  35.871  54.389  0.00  0.00    -0.266 OA
ATOM     16  S   UNL d   1      45.808  36.002  54.400  0.00  0.00    -0.080 SA
ATOM     17  C   UNL d   1      45.872  36.152  53.077  0.00  0.00     0.097 A 
ATOM     18  C   UNL d   1      45.060  36.091  54.110  0.00  0.00     0.037 A 
ATOM     19  C   UNL d   1      45.084  36.185  53.295  0.00  0.00     0.027 A 
ATOM     20  N   UNL d   1      46.246  36.210  52.345  0.00  0.00    -0.191 NA
ATOM     21  C   UNL d   1      47.066  36.156  52.288  0.00  0.00     0.356 A 
ATOM     22  O   UNL d   1      47.453  36.214  51.549  0.00  0.00    -0.244 OA
ENDBRANCH  11  12
ENDBRANCH  10  11
ENDBRANCH   9  10
ENDBRANCH   3   9
BRANCH   2  23
ATOM     23  C   UNL d   1      52.854  33.682  53.813  0.00  0.00     0.064 A 
ATOM     24  C   UNL d   1      53.376  33.178  53.421  0.00  0.00     0.020 A 
ATOM     25  C   UNL d   1      54.104  32.996  53.741  0.00  0.00     0.026 A 
ATOM     26  C   UNL d   1      54.332  33.314  54.466  0.00  0.00     0.094 A 
ATOM     27  C   UNL d   1      53.807  33.821  54.862  0.00  0.00     0.026 A 
ATOM     28  C   UNL d   1      53.071  34.006  54.539  0.00  0.00     0.020 A 
BRANCH  26  29
ATOM     29  O   UNL d   1      55.064  33.146  54.814  0.00  0.00    -0.328 OA
ATOM     30  C   UNL d   1      55.442  33.738  55.265  0.00  0.00     0.181 C 
ENDBRANCH  26  29
ENDBRANCH   2  23
TORSDOF 6
ENDMDL
MODEL 3
REMARK VINA RESULT:      -7.6      1.384      2.000
REMARK  6 active torsions:
REMARK  status: ('A' for Active; 'I' for Inactive)
REMARK    1  A    between atoms: C_21  and  N_1 
REMARK       I    between atoms: N_7  and  C_10 
REMARK    2  A    between atoms: C_15  and  N_8 
REMARK    3  A    between atoms: C_10  and  C_27 
REMARK    4  A    between atoms: C_29  and  C_21 
REMARK    5  A    between atoms: O_28  and  C_24 
REMARK    6  A    between atoms: C_27  and  C_29 
ROOT
ATOM      1  N   UNL d   1      50.138  34.712  52.891  0.00  0.00    -0.269 N 
ATOM      2  N   UNL d   1      48.694  35.171  52.281  0.00  0.00    -0.301 N 
ATOM      3  C   UNL d   1      50.878  34.473  53.196  0.00  0.00     0.265 C 
ATOM      4  C   UNL d   1      49.656  35.196  53.336  0.00  0.00     0.102 A 
ATOM      5  C   UNL d   1      49.920  34.448  52.144  0.00  0.00     0.102 A 
ATOM      6  C   UNL d   1      48.923  35.433  53.035  0.00  0.00     0.100 A 
ATOM      7  C   UNL d   1      49.180  34.687  51.839  0.00  0.00     0.100 A 
ATOM      8  O   UNL d   1      51.128  34.723  53.948  0.00  0.00    -0.267 OA
ENDROOT
BRANCH   3   9
ATOM      9  C   UNL d   1      51.357  33.979  52.727  0.00  0.00     0.063 C 
BRANCH   9  10
ATOM     10  C   UNL d   1      51.931  33.504  53.113  0.00  0.00     0.024 C 
BRANCH  10  11
ATOM     11  C   UNL d   1      52.485  33.084  52.645  0.00  0.00     0.088 C 
BRANCH  11  12
ATOM     12  N   UNL d   1      52.883  32.423  52.965  0.00  0.00    -0.224 N 
ATOM     13  C   UNL d   1      52.571  31.652  52.872  0.00  0.00     0.276 A 
ATOM     14  C   UNL d   1      52.976  31.010  53.194  0.00  0.00     0.104 A 
ATOM     15  O   UNL d   1      51.876  31.545  52.467  0.00  0.00    -0.266 OA
ATOM     16  S   UNL d   1      52.809  30.204  53.192  0.00  0.00    -0.080 SA
ATOM     17  C   UNL d   1      53.685  31.120  53.606  0.00  0.00     0.097 A 
ATOM     18  C   UNL d   1      53.403  29.835  53.594  0.00  0.00     0.037 A 
ATOM     19  C   UNL d   1      53.951  30.387  53.856  0.00  0.00     0.027 A 
ATOM     20  N   UNL d   1      53.991  31.880  53.697  0.00  0.00    -0.191 NA
ATOM     21  C   UNL d   1      53.597  32.530  53.381  0.00  0.00     0.356 A 
ATOM     22  O   UNL d   1      53.902  33.304  53.469  0.00  0.00    -0.244 OA
ENDBRANCH  11  12
ENDBRANCH  10  11
ENDBRANCH   9  10
ENDBRANCH   3   9
BRANCH   2  23
ATOM     23  C   UNL d   1      47.964  35.400  51.966  0.00  0.00     0.064 A 
ATOM     24  C   UNL d   1      47.692  35.114  51.242  0.00  0.00     0.020 A 
ATOM     25  C   UNL d   1      46.971  35.346  50.942  0.00  0.00     0.026 A 
ATOM     26  C   UNL d   1      46.497  35.875  51.360  0.00  0.00     0.094 A 
ATOM     27  C   UNL d   1      46.769  36.164  52.089  0.00  0.00     0.026 A 
ATOM     28  C   UNL d   1      47.499  35.929  52.394  0.00  0.00     0.020 A 
BRANCH  26  29
ATOM     29  O   UNL d   1      45.760  36.129  51.080  0.00  0.00    -0.328 OA
ATOM     30  C   UNL d   1      45.175  35.559  50.909  0.00  0.00     0.181 C 
ENDBRANCH  26  29
ENDBRANCH   2  23
TORSDOF 6
ENDMDL
MODEL 4
REMARK VINA RESULT:      -7.1      2.161      6.885
REMARK  6 active torsions:
REMARK  status: ('A' for Active; 'I' for Inactive)
REMARK    1  A    between atoms: C_21  and  N_1 
REMARK       I    between atoms: N_7  and  C_10 
REMARK    2  A    between atoms: C_15  and  N_8 
REMARK    3  A    between atoms: C_10  and  C_27 
REMARK    4  A    between atoms: C_29  and  C_21 
REMARK    5  A    between atoms: O_28  and  C_24 
REMARK    6  A    between atoms: C_27  and  C_29 
ROOT
ATOM      1  N   UNL d   1      50.603  34.251  53.028  0.00  0.00    -0.269 N 
ATOM      2  N   UNL d   1      51.752  33.096  53.143  0.00  0.00    -0.301 N 
ATOM      3  C   UNL d   1      50.012  34.838  52.961  0.00  0.00     0.265 C 
ATOM      4  C   UNL d   1      51.091  34.242  53.681  0.00  0.00     0.102 A 
ATOM      5  C   UNL d   1      50.671  33.696  52.426  0.00  0.00     0.102 A 
ATOM      6  C   UNL d   1      51.676  33.661  53.748  0.00  0.00     0.100 A 
ATOM      7  C   UNL d   1      51.262  33.109  52.492  0.00  0.00     0.100 A 
ATOM      8  O   UNL d   1      49.917  35.413  53.554  0.00  0.00    -0.267 OA
ENDROOT
BRANCH   3   9
ATOM      9  C   UNL d   1      49.523  34.831  52.288  0.00  0.00     0.063 C 
BRANCH   9  10
ATOM     10  C   UNL d   1      48.753  35.157  52.355  0.00  0.00     0.024 C 
BRANCH  10  11
ATOM     11  C   UNL d   1      48.421  35.544  51.691  0.00  0.00     0.088 C 
BRANCH  11  12
ATOM     12  N   UNL d   1      47.591  35.579  51.602  0.00  0.00    -0.224 N 
ATOM     13  C   UNL d   1      47.141  36.146  52.022  0.00  0.00     0.276 A 
ATOM     14  C   UNL d   1      46.322  36.168  51.924  0.00  0.00     0.104 A 
ATOM     15  O   UNL d   1      47.514  36.666  52.522  0.00  0.00    -0.266 OA
ATOM     16  S   UNL d   1      45.747  36.652  52.256  0.00  0.00    -0.080 SA
ATOM     17  C   UNL d   1      45.943  35.637  51.415  0.00  0.00     0.097 A 
ATOM     18  C   UNL d   1      45.035  36.420  51.955  0.00  0.00     0.037 A 
ATOM     19  C   UNL d   1      45.140  35.795  51.435  0.00  0.00     0.027 A 
ATOM     20  N   UNL d   1      46.387  35.079  51.001  0.00  0.00    -0.191 NA
ATOM     21  C   UNL d   1      47.205  35.046  51.090  0.00  0.00     0.356 A 
ATOM     22  O   UNL d   1      47.662  34.483  50.674  0.00  0.00    -0.244 OA
ENDBRANCH  11  12
ENDBRANCH  10  11
ENDBRANCH   9  10
ENDBRANCH   3   9
BRANCH   2  23
ATOM     23  C   UNL d   1      52.333  32.509  53.197  0.00  0.00     0.064 A 
ATOM     24  C   UNL d   1      52.187  31.731  52.966  0.00  0.00     0.020 A 
ATOM     25  C   UNL d   1      52.767  31.161  53.023  0.00  0.00     0.026 A 
ATOM     26  C   UNL d   1      53.513  31.353  53.314  0.00  0.00     0.094 A 
ATOM     27  C   UNL d   1      53.661  32.136  53.546  0.00  0.00     0.026 A 
ATOM     28  C   UNL d   1      53.076  32.714  53.489  0.00  0.00     0.020 A 
BRANCH  26  29
ATOM     29  O   UNL d   1      54.121  30.794  53.383  0.00  0.00    -0.328 OA
ATOM     30  C   UNL d   1      53.924  30.001  53.553  0.00  0.00     0.181 C 
ENDBRANCH  26  29
ENDBRANCH   2  23
TORSDOF 6
ENDMDL
MODEL 5
REMARK VINA RESULT:      -6.1     11.008     11.525
REMARK  6 active torsions:
REMARK  status: ('A' for Active; 'I' for Inactive)
REMARK    1  A    between atoms: C_21  and  N_1 
REMARK       I    between atoms: N_7  and  C_10 
REMARK    2  A    between atoms: C_15  and  N_8 
REMARK    3  A    between atoms: C_10  and  C_27 
REMARK    4  A    between atoms: C_29  and  C_21 
REMARK    5  A    between atoms: O_28  and  C_24 
REMARK    6  A    between atoms: C_27  and  C_29 
ROOT
ATOM      1  N   UNL d   1      45.036  27.681  57.796  0.00  0.00    -0.269 N 
ATOM      2  N   UNL d   1      44.836  28.844  58.925  0.00  0.00    -0.301 N 
ATOM      3  C   UNL d   1      45.133  27.080  57.223  0.00  0.00     0.265 C 
ATOM      4  C   UNL d   1      45.429  28.389  57.708  0.00  0.00     0.102 A 
ATOM      5  C   UNL d   1      44.542  27.533  58.436  0.00  0.00     0.102 A 
ATOM      6  C   UNL d   1      45.334  28.984  58.275  0.00  0.00     0.100 A 
ATOM      7  C   UNL d   1      44.445  28.134  59.009  0.00  0.00     0.100 A 
ATOM      8  O   UNL d   1      45.626  27.198  56.565  0.00  0.00    -0.267 OA
ENDROOT
BRANCH   3   9
ATOM      9  C   UNL d   1      44.724  26.363  57.330  0.00  0.00     0.063 C 
BRANCH   9  10
ATOM     10  C   UNL d   1      44.912  25.721  56.824  0.00  0.00     0.024 C 
BRANCH  10  11
ATOM     11  C   UNL d   1      44.358  25.098  56.742  0.00  0.00     0.088 C 
BRANCH  11  12
ATOM     12  N   UNL d   1      44.614  24.345  56.487  0.00  0.00    -0.224 N 
ATOM     13  C   UNL d   1      44.687  24.172  55.673  0.00  0.00     0.276 A 
ATOM     14  C   UNL d   1      44.941  23.423  55.438  0.00  0.00     0.104 A 
ATOM     15  O   UNL d   1      44.507  24.741  55.122  0.00  0.00    -0.266 OA
ATOM     16  S   UNL d   1      45.063  23.099  54.692  0.00  0.00    -0.080 SA
ATOM     17  C   UNL d   1      45.125  22.844  55.999  0.00  0.00     0.097 A 
ATOM     18  C   UNL d   1      45.315  22.339  54.799  0.00  0.00     0.037 A 
ATOM     19  C   UNL d   1      45.357  22.168  55.600  0.00  0.00     0.027 A 
ATOM     20  N   UNL d   1      45.053  23.015  56.802  0.00  0.00    -0.191 NA
ATOM     21  C   UNL d   1      44.800  23.758  57.050  0.00  0.00     0.356 A 
ATOM     22  O   UNL d   1      44.725  23.939  57.863  0.00  0.00    -0.244 OA
ENDBRANCH  11  12
ENDBRANCH  10  11
ENDBRANCH   9  10
ENDBRANCH   3   9
BRANCH   2  23
ATOM     23  C   UNL d   1      44.731  29.430  59.500  0.00  0.00     0.064 A 
ATOM     24  C   UNL d   1      44.413  29.260  60.241  0.00  0.00     0.020 A 
ATOM     25  C   UNL d   1      44.314  29.845  60.800  0.00  0.00     0.026 A 
ATOM     26  C   UNL d   1      44.531  30.622  60.632  0.00  0.00     0.094 A 
ATOM     27  C   UNL d   1      44.851  30.795  59.886  0.00  0.00     0.026 A 
ATOM     28  C   UNL d   1      44.952  30.203  59.320  0.00  0.00     0.020 A 
BRANCH  26  29
ATOM     29  O   UNL d   1      44.442  31.237  61.180  0.00  0.00    -0.328 OA
ATOM     30  C   UNL d   1      44.574  31.080  61.989  0.00  0.00     0.181 C 
ENDBRANCH  26  29
ENDBRANCH   2  23
TORSDOF 6
ENDMDL
