MODEL 1
REMARK VINA RESULT:      -8.0      0.000      0.000
REMARK  6 active torsions:
REMARK  status: ('A' for Active; 'I' for Inactive)
REMARK    1  A    between atoms: C_6  and  C_1 
REMARK    2  A    between atoms: C_8  and  C_6 
REMARK    3  A    between atoms: O_14  and  C_10 
REMARK    4  A    between atoms: C_12  and  C_20 
REMARK    5  A    between atoms: O_21  and  C_12 
REMARK    6  A    between atoms: C_20  and  O_14 
ROOT
ATOM      1  C   UNL d   1      53.334  32.912  53.555  0.00  0.00     0.141 A 
ATOM      2  C   UNL d   1      52.244  33.653  53.311  0.00  0.00     0.105 A 
ATOM      3  O   UNL d   1      53.037  33.684  53.576  0.00  0.00    -0.304 OA
ATOM      4  C   UNL d   1      52.059  32.875  53.131  0.00  0.00     0.064 A 
ATOM      5  C   UNL d   1      52.732  32.401  53.279  0.00  0.00     0.220 A 
ATOM      6  C   UNL d   1      51.674  34.248  53.215  0.00  0.00     0.046 A 
ATOM      7  C   UNL d   1      51.302  32.682  52.853  0.00  0.00     0.007 A 
ATOM      8  C   UNL d   1      50.926  34.052  52.940  0.00  0.00     0.102 A 
ATOM      9  O   UNL d   1      52.792  31.586  53.174  0.00  0.00    -0.284 OA
ATOM     10  C   UNL d   1      50.742  33.274  52.760  0.00  0.00     0.025 A 
ATOM     11  C   UNL d   1      51.860  35.031  53.397  0.00  0.00     0.004 C 
ENDROOT
BRANCH   1  12
ATOM     12  C   UNL d   1      54.101  32.679  53.772  0.00  0.00     0.053 C 
BRANCH  12  13
ATOM     13  C   UNL d   1      54.469  33.028  54.414  0.00  0.00     0.102 A 
ATOM     14  O   UNL d   1      54.271  32.912  55.203  0.00  0.00    -0.305 OA
ATOM     15  C   UNL d   1      54.781  33.369  55.664  0.00  0.00     0.123 A 
ATOM     16  C   UNL d   1      55.298  33.768  55.153  0.00  0.00     0.029 A 
ATOM     17  C   UNL d   1      55.102  33.556  54.388  0.00  0.00     0.027 A 
ENDBRANCH  12  13
ENDBRANCH   1  12
BRANCH   8  18
ATOM     18  O   UNL d   1      50.359  34.640  52.843  0.00  0.00    -0.300 OA
BRANCH  18  19
ATOM     19  C   UNL d   1      49.603  34.452  52.567  0.00  0.00     0.191 C 
BRANCH  19  20
ATOM     20  C   UNL d   1      49.022  35.042  52.502  0.00  0.00     0.321 C 
ATOM     21  O   UNL d   1      48.807  35.484  53.164  0.00  0.00    -0.257 OA
BRANCH  20  22
ATOM     22  O   UNL d   1      48.662  35.186  51.784  0.00  0.00    -0.294 OA
ATOM     23  C   UNL d   1      47.913  35.517  51.751  0.00  0.00     0.185 C 
ENDBRANCH  20  22
ENDBRANCH  19  20
ENDBRANCH  18  19
ENDBRANCH   8  18
TORSDOF 6
ENDMDL
MODEL 2
REMARK VINA RESULT:      -7.5      1.183      2.075
REMARK  6 active torsions:
REMARK  status: ('A' for Active; 'I' for Inactive)
REMARK    1  A    between atoms: C_6  and  C_1 
REMARK    2  A    between atoms: C_8  and  C_6 
REMARK    3  A    between atoms: O_14  and  C_10 
REMARK    4  A    between atoms: C_12  and  C_20 
REMARK    5  A    between atoms: O_21  and  C_12 
REMARK    6  A    between atoms: C_20  and  O_14 
ROOT
ATOM      1  C   UNL d   1      53.223  32.424  53.428  0.00  0.00     0.141 A 
ATOM      2  C   UNL d   1      52.039  33.015  53.215  0.00  0.00     0.105 A 
ATOM      3  O   UNL d   1      52.417  32.276  53.315  0.00  0.00    -0.304 OA
ATOM      4  C   UNL d   1      52.605  33.606  53.267  0.00  0.00     0.064 A 
ATOM      5  C   UNL d   1      53.350  33.250  53.399  0.00  0.00     0.220 A 
ATOM      6  C   UNL d   1      51.244  33.212  53.084  0.00  0.00     0.046 A 
ATOM      7  C   UNL d   1      52.383  34.401  53.187  0.00  0.00     0.007 A 
ATOM      8  C   UNL d   1      51.029  34.000  53.006  0.00  0.00     0.102 A 
ATOM      9  O   UNL d   1      54.072  33.638  53.486  0.00  0.00    -0.284 OA
ATOM     10  C   UNL d   1      51.595  34.591  53.057  0.00  0.00     0.025 A 
ATOM     11  C   UNL d   1      50.675  32.617  53.032  0.00  0.00     0.004 C 
ENDROOT
BRANCH   1  12
ATOM     12  C   UNL d   1      53.811  31.851  53.550  0.00  0.00     0.053 C 
BRANCH  12  13
ATOM     13  C   UNL d   1      53.604  31.066  53.649  0.00  0.00     0.102 A 
ATOM     14  O   UNL d   1      53.408  30.707  54.362  0.00  0.00    -0.305 OA
ATOM     15  C   UNL d   1      53.236  29.914  54.210  0.00  0.00     0.123 A 
ATOM     16  C   UNL d   1      53.328  29.785  53.396  0.00  0.00     0.029 A 
ATOM     17  C   UNL d   1      53.553  30.494  53.057  0.00  0.00     0.027 A 
ENDBRANCH  12  13
ENDBRANCH   1  12
BRANCH   8  18
ATOM     18  O   UNL d   1      50.241  34.198  52.876  0.00  0.00    -0.300 OA
BRANCH  18  19
ATOM     19  C   UNL d   1      49.986  34.980  52.959  0.00  0.00     0.191 C 
BRANCH  19  20
ATOM     20  C   UNL d   1      49.191  35.178  52.822  0.00  0.00     0.321 C 
ATOM     21  O   UNL d   1      48.835  34.984  52.104  0.00  0.00    -0.257 OA
BRANCH  20  22
ATOM     22  O   UNL d   1      48.760  35.565  53.396  0.00  0.00    -0.294 OA
ATOM     23  C   UNL d   1      48.073  35.968  53.201  0.00  0.00     0.185 C 
ENDBRANCH  20  22
ENDBRANCH  19  20
ENDBRANCH  18  19
ENDBRANCH   8  18
TORSDOF 6
ENDMDL
MODEL 3
REMARK VINA RESULT:      -7.3      2.623      3.753
REMARK  6 active torsions:
REMARK  status: ('A' for Active; 'I' for Inactive)
REMARK    1  A    between atoms: C_6  and  C_1 
REMARK    2  A    between atoms: C_8  and  C_6 
REMARK    3  A    between atoms: O_14  and  C_10 
REMARK    4  A    between atoms: C_12  and  C_20 
REMARK    5  A    between atoms: O_21  and  C_12 
REMARK    6  A    between atoms: C_20  and  O_14 
ROOT
ATOM      1  C   UNL d   1      53.345  30.571  53.441  0.00  0.00     0.141 A 
ATOM      2  C   UNL d   1      53.467  31.838  53.862  0.00  0.00     0.105 A 
ATOM      3  O   UNL d   1      53.677  31.046  54.032  0.00  0.00    -0.304 OA
ATOM      4  C   UNL d   1      53.015  31.846  53.179  0.00  0.00     0.064 A 
ATOM      5  C   UNL d   1      52.931  31.060  52.905  0.00  0.00     0.220 A 
ATOM      6  C   UNL d   1      53.639  32.547  54.256  0.00  0.00     0.046 A 
ATOM      7  C   UNL d   1      52.728  32.565  52.879  0.00  0.00     0.007 A 
ATOM      8  C   UNL d   1      53.353  33.256  53.956  0.00  0.00     0.102 A 
ATOM      9  O   UNL d   1      52.520  30.814  52.235  0.00  0.00    -0.284 OA
ATOM     10  C   UNL d   1      52.901  33.265  53.272  0.00  0.00     0.025 A 
ATOM     11  C   UNL d   1      54.094  32.539  54.944  0.00  0.00     0.004 C 
ENDROOT
BRANCH   1  12
ATOM     12  C   UNL d   1      53.412  29.745  53.387  0.00  0.00     0.053 C 
BRANCH  12  13
ATOM     13  C   UNL d   1      53.343  29.283  54.059  0.00  0.00     0.102 A 
ATOM     14  O   UNL d   1      52.654  29.156  54.487  0.00  0.00    -0.305 OA
ATOM     15  C   UNL d   1      52.834  28.658  55.120  0.00  0.00     0.123 A 
ATOM     16  C   UNL d   1      53.643  28.477  55.079  0.00  0.00     0.029 A 
ATOM     17  C   UNL d   1      53.950  28.863  54.427  0.00  0.00     0.027 A 
ENDBRANCH  12  13
ENDBRANCH   1  12
BRANCH   8  18
ATOM     18  O   UNL d   1      53.522  33.962  54.344  0.00  0.00    -0.300 OA
BRANCH  18  19
ATOM     19  C   UNL d   1      53.014  34.610  54.275  0.00  0.00     0.191 C 
BRANCH  19  20
ATOM     20  C   UNL d   1      53.149  35.297  54.721  0.00  0.00     0.321 C 
ATOM     21  O   UNL d   1      53.103  35.271  55.544  0.00  0.00    -0.257 OA
BRANCH  20  22
ATOM     22  O   UNL d   1      53.326  36.001  54.348  0.00  0.00    -0.294 OA
ATOM     23  C   UNL d   1      53.306  36.709  54.760  0.00  0.00     0.185 C 
ENDBRANCH  20  22
ENDBRANCH  19  20
ENDBRANCH  18  19
ENDBRANCH   8  18
TORSDOF 6
ENDMDL
MODEL 4
REMARK VINA RESULT:      -7.0      1.809      4.991
REMARK  6 active torsions:
REMARK  status: ('A' for Active; 'I' for Inactive)
REMARK    1  A    between atoms: C_6  and  C_1 
REMARK    2  A    between atoms: C_8  and  C_6 
REMARK    3  A    between atoms: O_14  and  C_10 
REMARK    4  A    between atoms: C_12  and  C_20 
REMARK    5  A    between atoms: O_21  and  C_12 
REMARK    6  A    between atoms: C_20  and  O_14 
ROOT
ATOM      1  C   UNL d   1      52.423  33.754  52.987  0.00  0.00     0.141 A 
ATOM      2  C   UNL d   1      52.725  32.459  53.159  0.00  0.00     0.105 A 
ATOM      3  O   UNL d   1      52.202  32.986  52.773  0.00  0.00    -0.304 OA
ATOM      4  C   UNL d   1      53.258  32.898  53.601  0.00  0.00     0.064 A 
ATOM      5  C   UNL d   1      53.080  33.710  53.502  0.00  0.00     0.220 A 
ATOM      6  C   UNL d   1      52.773  31.631  53.154  0.00  0.00     0.046 A 
ATOM      7  C   UNL d   1      53.845  32.515  54.044  0.00  0.00     0.007 A 
ATOM      8  C   UNL d   1      53.355  31.256  53.594  0.00  0.00     0.102 A 
ATOM      9  O   UNL d   1      53.476  34.345  53.847  0.00  0.00    -0.284 OA
ATOM     10  C   UNL d   1      53.888  31.696  54.036  0.00  0.00     0.025 A 
ATOM     11  C   UNL d   1      52.237  31.189  52.709  0.00  0.00     0.004 C 
ENDROOT
BRANCH   1  12
ATOM     12  C   UNL d   1      52.056  34.454  52.734  0.00  0.00     0.053 C 
BRANCH  12  13
ATOM     13  C   UNL d   1      51.247  34.473  52.615  0.00  0.00     0.102 A 
ATOM     14  O   UNL d   1      50.678  34.579  53.198  0.00  0.00    -0.305 OA
ATOM     15  C   UNL d   1      49.936  34.562  52.837  0.00  0.00     0.123 A 
ATOM     16  C   UNL d   1      50.051  34.444  52.025  0.00  0.00     0.029 A 
ATOM     17  C   UNL d   1      50.856  34.390  51.894  0.00  0.00     0.027 A 
ENDBRANCH  12  13
ENDBRANCH   1  12
BRANCH   8  18
ATOM     18  O   UNL d   1      53.405  30.435  53.591  0.00  0.00    -0.300 OA
BRANCH  18  19
ATOM     19  C   UNL d   1      53.524  30.019  54.295  0.00  0.00     0.191 C 
BRANCH  19  20
ATOM     20  C   UNL d   1      53.328  29.214  54.346  0.00  0.00     0.321 C 
ATOM     21  O   UNL d   1      53.231  28.770  53.657  0.00  0.00    -0.257 OA
BRANCH  20  22
ATOM     22  O   UNL d   1      53.230  28.860  55.074  0.00  0.00    -0.294 OA
ATOM     23  C   UNL d   1      53.536  28.114  55.220  0.00  0.00     0.185 C 
ENDBRANCH  20  22
ENDBRANCH  19  20
ENDBRANCH  18  19
ENDBRANCH   8  18
TORSDOF 6
ENDMDL
MODEL 5
REMARK VINA RESULT:      -6.8      2.069      4.481
REMARK  6 active torsions:
REMARK  status: ('A' for Active; 'I' for Inactive)
REMARK    1  A    between atoms: C_6  and  C_1 
REMARK    2  A    between atoms: C_8  and  C_6 
REMARK    3  A    between atoms: O_14  and  C_10 
REMARK    4  A    between atoms: C_12  and  C_20 
REMARK    5  A    between atoms: O_21  and  C_12 
REMARK    6  A    between atoms: C_20  and  O_14 
ROOT
ATOM      1  C   UNL d   1      52.664  33.929  53.113  0.00  0.00     0.141 A 
ATOM      2  C   UNL d   1      53.065  32.687  53.420  0.00  0.00     0.105 A 
ATOM      3  O   UNL d   1      53.219  33.498  53.552  0.00  0.00    -0.304 OA
ATOM      4  C   UNL d   1      52.426  32.622  52.910  0.00  0.00     0.064 A 
ATOM      5  C   UNL d   1      52.166  33.392  52.710  0.00  0.00     0.220 A 
ATOM      6  C   UNL d   1      53.436  32.004  53.709  0.00  0.00     0.046 A 
ATOM      7  C   UNL d   1      52.151  31.874  52.682  0.00  0.00     0.007 A 
ATOM      8  C   UNL d   1      53.160  31.265  53.481  0.00  0.00     0.102 A 
ATOM      9  O   UNL d   1      51.539  33.585  52.212  0.00  0.00    -0.284 OA
ATOM     10  C   UNL d   1      52.522  31.201  52.971  0.00  0.00     0.025 A 
ATOM     11  C   UNL d   1      54.079  32.069  54.222  0.00  0.00     0.004 C 
ENDROOT
BRANCH   1  12
ATOM     12  C   UNL d   1      52.609  34.756  53.078  0.00  0.00     0.053 C 
BRANCH  12  13
ATOM     13  C   UNL d   1      52.752  35.206  53.746  0.00  0.00     0.102 A 
ATOM     14  O   UNL d   1      52.211  35.366  54.343  0.00  0.00    -0.305 OA
ATOM     15  C   UNL d   1      52.585  35.838  54.908  0.00  0.00     0.123 A 
ATOM     16  C   UNL d   1      53.364  35.967  54.655  0.00  0.00     0.029 A 
ATOM     17  C   UNL d   1      53.461  35.579  53.943  0.00  0.00     0.027 A 
ENDBRANCH  12  13
ENDBRANCH   1  12
BRANCH   8  18
ATOM     18  O   UNL d   1      53.526  30.586  53.766  0.00  0.00    -0.300 OA
BRANCH  18  19
ATOM     19  C   UNL d   1      53.123  29.865  53.778  0.00  0.00     0.191 C 
BRANCH  19  20
ATOM     20  C   UNL d   1      53.426  29.222  54.207  0.00  0.00     0.321 C 
ATOM     21  O   UNL d   1      54.157  28.900  54.004  0.00  0.00    -0.257 OA
BRANCH  20  22
ATOM     22  O   UNL d   1      53.002  28.907  54.828  0.00  0.00    -0.294 OA
ATOM     23  C   UNL d   1      53.362  28.403  55.366  0.00  0.00     0.185 C 
ENDBRANCH  20  22
ENDBRANCH  19  20
ENDBRANCH  18  19
ENDBRANCH   8  18
TORSDOF 6
ENDMDL
MODEL 6
REMARK VINA RESULT:      -5.7      9.506     10.617
REMARK  6 active torsions:
REMARK  status: ('A' for Active; 'I' for Inactive)
REMARK    1  A    between atoms: C_6  and  C_1 
REMARK    2  A    between atoms: C_8  and  C_6 
REMARK    3  A    between atoms: O_14  and  C_10 
REMARK    4  A    between atoms: C_12  and  C_20 
REMARK    5  A    between atoms: O_21  and  C_12 
REMARK    6  A    between atoms: C_20  and  O_14 
ROOT
ATOM      1  C   UNL d   1      45.104  29.957  58.437  0.00  0.00     0.141 A 
ATOM      2  C   UNL d   1      45.059  28.682  58.026  0.00  0.00     0.105 A 
ATOM      3  O   UNL d   1      45.277  29.180  58.662  0.00  0.00    -0.304 OA
ATOM      4  C   UNL d   1      44.757  29.149  57.422  0.00  0.00     0.064 A 
ATOM      5  C   UNL d   1      44.779  29.948  57.667  0.00  0.00     0.220 A 
ATOM      6  C   UNL d   1      45.102  27.860  57.932  0.00  0.00     0.046 A 
ATOM      7  C   UNL d   1      44.495  28.797  56.718  0.00  0.00     0.007 A 
ATOM      8  C   UNL d   1      44.842  27.517  57.233  0.00  0.00     0.102 A 
ATOM      9  O   UNL d   1      44.530  30.602  57.233  0.00  0.00    -0.284 OA
ATOM     10  C   UNL d   1      44.540  27.983  56.630  0.00  0.00     0.025 A 
ATOM     11  C   UNL d   1      45.406  27.391  58.539  0.00  0.00     0.004 C 
ENDROOT
BRANCH   1  12
ATOM     12  C   UNL d   1      45.230  30.636  58.899  0.00  0.00     0.053 C 
BRANCH  12  13
ATOM     13  C   UNL d   1      45.013  30.642  59.687  0.00  0.00     0.102 A 
ATOM     14  O   UNL d   1      45.453  30.333  60.309  0.00  0.00    -0.305 OA
ATOM     15  C   UNL d   1      45.030  30.457  61.008  0.00  0.00     0.123 A 
ATOM     16  C   UNL d   1      44.324  30.845  60.812  0.00  0.00     0.029 A 
ATOM     17  C   UNL d   1      44.318  30.956  60.002  0.00  0.00     0.027 A 
ENDBRANCH  12  13
ENDBRANCH   1  12
BRANCH   8  18
ATOM     18  O   UNL d   1      44.884  26.701  57.138  0.00  0.00    -0.300 OA
BRANCH  18  19
ATOM     19  C   UNL d   1      44.675  26.351  56.419  0.00  0.00     0.191 C 
BRANCH  19  20
ATOM     20  C   UNL d   1      44.739  25.529  56.318  0.00  0.00     0.321 C 
ATOM     21  O   UNL d   1      44.395  25.018  56.867  0.00  0.00    -0.257 OA
BRANCH  20  22
ATOM     22  O   UNL d   1      45.141  25.224  55.677  0.00  0.00    -0.294 OA
ATOM     23  C   UNL d   1      44.792  24.662  55.193  0.00  0.00     0.185 C 
ENDBRANCH  20  22
ENDBRANCH  19  20
ENDBRANCH  18  19
ENDBRANCH   8  18
TORSDOF 6
ENDMDL
MODEL 7
REMARK VINA RESULT:      -5.5      1.617      2.438
REMARK  6 active torsions:
REMARK  status: ('A' for Active; 'I' for Inactive)
REMARK    1  A    between atoms: C_6  and  C_1 
REMARK    2  A    between atoms: C_8  and  C_6 
REMARK    3  A    between atoms: O_14  and  C_10 
REMARK    4  A    between atoms: C_12  and  C_20 
REMARK    5  A    between atoms: O_21  and  C_12 
REMARK    6  A    between atoms: C_20  and  O_14 
ROOT
ATOM      1  C   UNL d   1      51.511  34.130  52.998  0.00  0.00     0.141 A 
ATOM      2  C   UNL d   1      50.270  34.598  52.805  0.00  0.00     0.105 A 
ATOM      3  O   UNL d   1      50.878  34.509  53.373  0.00  0.00    -0.304 OA
ATOM      4  C   UNL d   1      50.527  34.280  52.095  0.00  0.00     0.064 A 
ATOM      5  C   UNL d   1      51.302  33.983  52.202  0.00  0.00     0.220 A 
ATOM      6  C   UNL d   1      49.514  34.934  52.860  0.00  0.00     0.046 A 
ATOM      7  C   UNL d   1      50.032  34.293  51.430  0.00  0.00     0.007 A 
ATOM      8  C   UNL d   1      49.027  34.946  52.199  0.00  0.00     0.102 A 
ATOM      9  O   UNL d   1      51.771  33.617  51.632  0.00  0.00    -0.284 OA
ATOM     10  C   UNL d   1      49.284  34.627  51.489  0.00  0.00     0.025 A 
ATOM     11  C   UNL d   1      49.255  35.255  53.574  0.00  0.00     0.004 C 
ENDROOT
BRANCH   1  12
ATOM     12  C   UNL d   1      52.235  33.928  53.351  0.00  0.00     0.053 C 
BRANCH  12  13
ATOM     13  C   UNL d   1      52.607  34.455  53.855  0.00  0.00     0.102 A 
ATOM     14  O   UNL d   1      52.824  35.225  53.670  0.00  0.00    -0.305 OA
ATOM     15  C   UNL d   1      53.182  35.556  54.337  0.00  0.00     0.123 A 
ATOM     16  C   UNL d   1      53.183  34.983  54.936  0.00  0.00     0.029 A 
ATOM     17  C   UNL d   1      52.829  34.310  54.636  0.00  0.00     0.027 A 
ENDBRANCH  12  13
ENDBRANCH   1  12
BRANCH   8  18
ATOM     18  O   UNL d   1      48.276  35.278  52.250  0.00  0.00    -0.300 OA
BRANCH  18  19
ATOM     19  C   UNL d   1      47.804  35.353  51.576  0.00  0.00     0.191 C 
BRANCH  19  20
ATOM     20  C   UNL d   1      47.040  35.674  51.633  0.00  0.00     0.321 C 
ATOM     21  O   UNL d   1      46.937  36.453  51.882  0.00  0.00    -0.257 OA
BRANCH  20  22
ATOM     22  O   UNL d   1      46.389  35.220  51.443  0.00  0.00    -0.294 OA
ATOM     23  C   UNL d   1      45.646  35.561  51.382  0.00  0.00     0.185 C 
ENDBRANCH  20  22
ENDBRANCH  19  20
ENDBRANCH  18  19
ENDBRANCH   8  18
TORSDOF 6
ENDMDL
MODEL 8
REMARK VINA RESULT:      -5.3      9.579     10.692
REMARK  6 active torsions:
REMARK  status: ('A' for Active; 'I' for Inactive)
REMARK    1  A    between atoms: C_6  and  C_1 
REMARK    2  A    between atoms: C_8  and  C_6 
REMARK    3  A    between atoms: O_14  and  C_10 
REMARK    4  A    between atoms: C_12  and  C_20 
REMARK    5  A    between atoms: O_21  and  C_12 
REMARK    6  A    between atoms: C_20  and  O_14 
ROOT
ATOM      1  C   UNL d   1      44.695  28.658  57.183  0.00  0.00     0.141 A 
ATOM      2  C   UNL d   1      44.688  29.130  58.438  0.00  0.00     0.105 A 
ATOM      3  O   UNL d   1      44.581  28.442  57.975  0.00  0.00    -0.304 OA
ATOM      4  C   UNL d   1      44.864  29.756  57.939  0.00  0.00     0.064 A 
ATOM      5  C   UNL d   1      44.871  29.475  57.152  0.00  0.00     0.220 A 
ATOM      6  C   UNL d   1      44.643  29.252  59.257  0.00  0.00     0.046 A 
ATOM      7  C   UNL d   1      44.997  30.512  58.253  0.00  0.00     0.007 A 
ATOM      8  C   UNL d   1      44.777  30.002  59.563  0.00  0.00     0.102 A 
ATOM      9  O   UNL d   1      45.023  29.916  56.473  0.00  0.00    -0.284 OA
ATOM     10  C   UNL d   1      44.953  30.628  59.064  0.00  0.00     0.025 A 
ATOM     11  C   UNL d   1      44.466  28.622  59.760  0.00  0.00     0.004 C 
ENDROOT
BRANCH   1  12
ATOM     12  C   UNL d   1      44.643  28.151  56.529  0.00  0.00     0.053 C 
BRANCH  12  13
ATOM     13  C   UNL d   1      44.839  27.360  56.606  0.00  0.00     0.102 A 
ATOM     14  O   UNL d   1      45.598  27.060  56.697  0.00  0.00    -0.305 OA
ATOM     15  C   UNL d   1      45.543  26.238  56.754  0.00  0.00     0.123 A 
ATOM     16  C   UNL d   1      44.742  26.033  56.697  0.00  0.00     0.029 A 
ATOM     17  C   UNL d   1      44.315  26.724  56.607  0.00  0.00     0.027 A 
ENDBRANCH  12  13
ENDBRANCH   1  12
BRANCH   8  18
ATOM     18  O   UNL d   1      44.733  30.126  60.376  0.00  0.00    -0.300 OA
BRANCH  18  19
ATOM     19  C   UNL d   1      44.765  30.891  60.686  0.00  0.00     0.191 C 
BRANCH  19  20
ATOM     20  C   UNL d   1      44.679  31.017  61.502  0.00  0.00     0.321 C 
ATOM     21  O   UNL d   1      44.766  30.387  62.028  0.00  0.00    -0.257 OA
BRANCH  20  22
ATOM     22  O   UNL d   1      44.508  31.762  61.787  0.00  0.00    -0.294 OA
ATOM     23  C   UNL d   1      44.315  31.873  62.576  0.00  0.00     0.185 C 
ENDBRANCH  20  22
ENDBRANCH  19  20
ENDBRANCH  18  19
ENDBRANCH   8  18
TORSDOF 6
ENDMDL
MODEL 9
REMARK VINA RESULT:      -5.3      1.965      6.497
REMARK  6 active torsions:
REMARK  status: ('A' for Active; 'I' for Inactive)
REMARK    1  A    between atoms: C_6  and  C_1 
REMARK    2  A    between atoms: C_8  and  C_6 
REMARK    3  A    between atoms: O_14  and  C_10 
REMARK    4  A    between atoms: C_12  and  C_20 
REMARK    5  A    between atoms: O_21  and  C_12 
REMARK    6  A    between atoms: C_20  and  O_14 
ROOT
ATOM      1  C   UNL d   1      46.654  35.890  52.004  0.00  0.00     0.141 A 
ATOM      2  C   UNL d   1      47.881  35.535  52.413  0.00  0.00     0.105 A 
ATOM      3  O   UNL d   1      47.190  35.952  52.632  0.00  0.00    -0.304 OA
ATOM      4  C   UNL d   1      47.769  35.223  51.663  0.00  0.00     0.064 A 
ATOM      5  C   UNL d   1      47.007  35.437  51.395  0.00  0.00     0.220 A 
ATOM      6  C   UNL d   1      48.595  35.407  52.814  0.00  0.00     0.046 A 
ATOM      7  C   UNL d   1      48.371  34.778  51.305  0.00  0.00     0.007 A 
ATOM      8  C   UNL d   1      49.188  34.967  52.456  0.00  0.00     0.102 A 
ATOM      9  O   UNL d   1      46.666  35.241  50.672  0.00  0.00    -0.284 OA
ATOM     10  C   UNL d   1      49.077  34.654  51.706  0.00  0.00     0.025 A 
ATOM     11  C   UNL d   1      48.707  35.721  53.569  0.00  0.00     0.004 C 
ENDROOT
BRANCH   1  12
ATOM     12  C   UNL d   1      45.893  36.221  51.979  0.00  0.00     0.053 C 
BRANCH  12  13
ATOM     13  C   UNL d   1      45.383  36.124  52.611  0.00  0.00     0.102 A 
ATOM     14  O   UNL d   1      45.012  35.423  52.826  0.00  0.00    -0.305 OA
ATOM     15  C   UNL d   1      44.548  35.573  53.493  0.00  0.00     0.123 A 
ATOM     16  C   UNL d   1      44.636  36.374  53.688  0.00  0.00     0.029 A 
ATOM     17  C   UNL d   1      45.148  36.707  53.145  0.00  0.00     0.027 A 
ENDBRANCH  12  13
ENDBRANCH   1  12
BRANCH   8  18
ATOM     18  O   UNL d   1      49.898  34.838  52.851  0.00  0.00    -0.300 OA
BRANCH  18  19
ATOM     19  C   UNL d   1      50.482  34.357  52.520  0.00  0.00     0.191 C 
BRANCH  19  20
ATOM     20  C   UNL d   1      51.177  34.190  52.942  0.00  0.00     0.321 C 
ATOM     21  O   UNL d   1      51.190  33.570  53.486  0.00  0.00    -0.257 OA
BRANCH  20  22
ATOM     22  O   UNL d   1      51.848  34.636  52.820  0.00  0.00    -0.294 OA
ATOM     23  C   UNL d   1      52.546  34.457  53.212  0.00  0.00     0.185 C 
ENDBRANCH  20  22
ENDBRANCH  19  20
ENDBRANCH  18  19
ENDBRANCH   8  18
TORSDOF 6
ENDMDL
