MODEL 1
REMARK VINA RESULT:      37.3      0.000      0.000
REMARK  3 active torsions:
REMARK  status: ('A' for Active; 'I' for Inactive)
REMARK    1  A    between atoms: N_12  and  C_6 
REMARK    2  A    between atoms: C_18  and  N_12 
REMARK    3  A    between atoms: C_19  and  C_18 
ROOT
ATOM      1  N   UNL d   1      45.945 -17.777  43.576  0.00  0.00    -0.175 N 
ATOM      2  C   UNL d   1      46.073 -17.402  42.887  0.00  0.00     0.167 A 
ATOM      3  N   UNL d   1      46.004 -18.600  43.608  0.00  0.00    -0.142 NA
ATOM      4  C   UNL d   1      45.761 -17.371  44.233  0.00  0.00     0.283 A 
ATOM      5  N   UNL d   1      46.021 -16.611  42.839  0.00  0.00    -0.227 NA
ATOM      6  C   UNL d   1      46.194 -19.037  42.935  0.00  0.00     0.182 A 
ATOM      7  C   UNL d   1      45.703 -16.548  44.201  0.00  0.00     0.076 A 
ATOM      8  C   UNL d   1      46.263 -17.840  42.214  0.00  0.00     0.039 A 
ATOM      9  C   UNL d   1      45.831 -16.173  43.513  0.00  0.00     0.088 A 
ATOM     10  C   UNL d   1      46.322 -18.661  42.247  0.00  0.00     0.041 A 
ATOM     11  O   UNL d   1      45.627 -17.764  44.954  0.00  0.00    -0.265 OA
ATOM     12  C   UNL d   1      45.513 -16.110  44.875  0.00  0.00     0.006 A 
ATOM     13  C   UNL d   1      46.397 -17.447  41.494  0.00  0.00     0.003 A 
ATOM     14  C   UNL d   1      46.512 -19.099  41.573  0.00  0.00     0.003 A 
ATOM     15  C   UNL d   1      45.772 -15.350  43.480  0.00  0.00     0.019 A 
ATOM     16  C   UNL d   1      45.458 -15.277  44.821  0.00  0.00     0.000 A 
ATOM     17  C   UNL d   1      46.587 -17.884  40.821  0.00  0.00     0.000 A 
ATOM     18  C   UNL d   1      46.646 -18.706  40.853  0.00  0.00     0.000 A 
ATOM     19  C   UNL d   1      45.578 -14.924  44.174  0.00  0.00     0.002 A 
ENDROOT
BRANCH   6  20
ATOM     20  N   UNL d   1      46.264 -19.877  42.925  0.00  0.00    -0.220 NA
BRANCH  20  21
ATOM     21  C   UNL d   1      45.957 -20.329  43.547  0.00  0.00     0.146 C 
BRANCH  21  22
ATOM     22  C   UNL d   1      46.266 -20.284  44.295  0.00  0.00     0.255 C 
ATOM     23  O   UNL d   1      45.744 -20.175  44.942  0.00  0.00    -0.281 OA
ENDBRANCH  21  22
ENDBRANCH  20  21
ENDBRANCH   6  20
TORSDOF 3
ENDMDL
