MODEL 1
REMARK VINA RESULT:      67.8      0.000      0.000
REMARK  6 active torsions:
REMARK  status: ('A' for Active; 'I' for Inactive)
REMARK    1  A    between atoms: N_6  and  C_1 
REMARK    2  A    between atoms: C_18  and  N_4 
REMARK       I    between atoms: C_8  and  N_6 
REMARK    3  A    between atoms: C_7  and  C_8 
REMARK    4  A    between atoms: C_11  and  C_7 
REMARK    5  A    between atoms: C_19  and  C_9 
REMARK    6  A    between atoms: C_12  and  C_11 
ROOT
ATOM      1  C   UNL d   1      44.936 -17.516  38.979  0.00  0.00     0.128 C 
ATOM      2  C   UNL d   1      44.151 -17.343  39.050  0.00  0.00     0.106 C 
ATOM      3  N   UNL d   1      43.322 -17.143  39.070  0.00  0.00    -0.191 NA
ENDROOT
BRANCH   1   4
ATOM      4  C   UNL d   1      45.350 -17.820  39.644  0.00  0.00     0.289 C 
ATOM      5  N   UNL d   1      44.921 -18.253  40.197  0.00  0.00    -0.201 NA
ATOM      6  O   UNL d   1      46.127 -17.692  39.734  0.00  0.00    -0.264 OA
BRANCH   5   7
ATOM      7  C   UNL d   1      45.332 -18.561  40.868  0.00  0.00     0.160 A 
ATOM      8  C   UNL d   1      45.340 -18.292  41.648  0.00  0.00     0.298 A 
ATOM      9  N   UNL d   1      45.839 -18.806  42.070  0.00  0.00    -0.209 N 
ATOM     10  O   UNL d   1      44.955 -17.669  41.958  0.00  0.00    -0.263 OA
ATOM     11  N   UNL d   1      46.107 -19.357  41.525  0.00  0.00    -0.238 N 
ATOM     12  C   UNL d   1      45.816 -19.237  40.777  0.00  0.00     0.104 A 
ATOM     13  C   UNL d   1      46.646 -20.000  41.731  0.00  0.00     0.120 C 
ATOM     14  C   UNL d   1      45.977 -19.691  40.107  0.00  0.00     0.022 C 
BRANCH   9  15
ATOM     15  C   UNL d   1      46.055 -18.809  42.866  0.00  0.00     0.085 A 
ATOM     16  C   UNL d   1      46.425 -18.141  43.178  0.00  0.00     0.019 A 
ATOM     17  C   UNL d   1      46.647 -18.137  43.986  0.00  0.00     0.002 A 
ATOM     18  C   UNL d   1      46.497 -18.791  44.458  0.00  0.00     0.000 A 
ATOM     19  C   UNL d   1      46.122 -19.467  44.135  0.00  0.00     0.002 A 
ATOM     20  C   UNL d   1      45.906 -19.464  43.338  0.00  0.00     0.019 A 
ENDBRANCH   9  15
ENDBRANCH   5   7
ENDBRANCH   1   4
BRANCH   1  21
ATOM     21  C   UNL d   1      45.364 -17.411  38.283  0.00  0.00     0.040 C 
BRANCH  21  22
ATOM     22  C   UNL d   1      45.255 -16.693  37.807  0.00  0.00     0.101 A 
ATOM     23  O   UNL d   1      45.704 -15.962  37.859  0.00  0.00    -0.307 OA
ATOM     24  C   UNL d   1      45.392 -15.448  37.295  0.00  0.00     0.100 A 
ATOM     25  C   UNL d   1      44.784 -15.839  36.915  0.00  0.00     0.027 A 
ATOM     26  C   UNL d   1      44.723 -16.601  37.250  0.00  0.00     0.027 A 
BRANCH  24  27
ATOM     27  C   UNL d   1      45.672 -14.665  37.157  0.00  0.00     0.023 A 
ATOM     28  C   UNL d   1      46.367 -14.556  36.747  0.00  0.00     0.003 A 
ATOM     29  C   UNL d   1      46.646 -13.774  36.610  0.00  0.00     0.011 A 
ATOM     30  C   UNL d   1      46.216 -13.141  36.890  0.00  0.00     0.058 A 
ATOM     31  C   UNL d   1      45.521 -13.251  37.300  0.00  0.00     0.011 A 
ATOM     32 CL   UNL d   1      46.495 -12.358  36.753  0.00  0.00    -0.082 Cl
ATOM     33  C   UNL d   1      45.242 -14.034  37.437  0.00  0.00     0.003 A 
ENDBRANCH  24  27
ENDBRANCH  21  22
ENDBRANCH   1  21
TORSDOF 6
ENDMDL
