MODEL 1
REMARK VINA RESULT:     140.8      0.000      0.000
REMARK  7 active torsions:
REMARK  status: ('A' for Active; 'I' for Inactive)
REMARK       I    between atoms: C_5  and  N_1 
REMARK    1  A    between atoms: C_11  and  C_3 
REMARK    2  A    between atoms: C_12  and  C_5 
REMARK    3  A    between atoms: N_7  and  C_12 
REMARK    4  A    between atoms: C_13  and  C_8 
REMARK    5  A    between atoms: C_29  and  N_10 
REMARK    6  A    between atoms: O_28  and  C_16 
REMARK    7  A    between atoms: O_30  and  C_23 
ROOT
ATOM      1  N   UNL d   1     -56.249 -99.668 -43.683  0.00  0.00    -0.193 N 
ATOM      2  N   UNL d   1     -56.874 -99.295 -43.316  0.00  0.00    -0.162 NA
ATOM      3  C   UNL d   1     -57.578 -99.564 -43.645  0.00  0.00     0.109 A 
ATOM      4  C   UNL d   1     -55.447 -99.560 -43.522  0.00  0.00     0.298 C 
ATOM      5  C   UNL d   1     -56.554-100.181 -44.253  0.00  0.00     0.088 A 
ATOM      6  C   UNL d   1     -57.379-100.114 -44.226  0.00  0.00     0.041 A 
ATOM      7  O   UNL d   1     -54.889 -99.983 -43.947  0.00  0.00    -0.264 OA
ENDROOT
BRANCH   4   8
ATOM      8  C   UNL d   1     -55.217 -99.037 -42.945  0.00  0.00     0.146 C 
BRANCH   8   9
ATOM      9  N   UNL d   1     -55.112 -99.299 -42.174  0.00  0.00    -0.262 N 
ATOM     10  C   UNL d   1     -55.301-100.070 -41.972  0.00  0.00     0.322 A 
ATOM     11  C   UNL d   1     -55.195-100.334 -41.197  0.00  0.00     0.322 A 
ATOM     12  O   UNL d   1     -55.597-100.585 -42.545  0.00  0.00    -0.261 OA
ATOM     13  O   UNL d   1     -55.386-101.112 -40.996  0.00  0.00    -0.261 OA
ATOM     14  N   UNL d   1     -54.901 -99.826 -40.625  0.00  0.00    -0.267 N 
ATOM     15  C   UNL d   1     -54.711 -99.050 -40.826  0.00  0.00     0.102 A 
ATOM     16  C   UNL d   1     -54.817 -98.787 -41.601  0.00  0.00     0.102 A 
BRANCH  14  17
ATOM     17  C   UNL d   1     -54.796-100.090 -39.850  0.00  0.00     0.083 C 
ATOM     18  C   UNL d   1     -54.714-100.898 -39.698  0.00  0.00     0.021 C 
ENDBRANCH  14  17
ENDBRANCH   8   9
ENDBRANCH   4   8
BRANCH   5  19
ATOM     19  C   UNL d   1     -56.132-100.666 -44.752  0.00  0.00     0.020 A 
ATOM     20  C   UNL d   1     -55.641-101.245 -44.442  0.00  0.00     0.028 A 
ATOM     21  C   UNL d   1     -55.213-101.736 -44.957  0.00  0.00     0.116 A 
ATOM     22  C   UNL d   1     -55.282-101.642 -45.766  0.00  0.00     0.116 A 
ATOM     23  C   UNL d   1     -55.778-101.057 -46.073  0.00  0.00     0.026 A 
ATOM     24  C   UNL d   1     -56.203-100.569 -45.559  0.00  0.00     0.004 A 
BRANCH  21  25
ATOM     25  O   UNL d   1     -54.724-102.313 -44.646  0.00  0.00    -0.326 OA
ATOM     26  C   UNL d   1     -54.926-102.706 -43.960  0.00  0.00     0.181 C 
ENDBRANCH  21  25
BRANCH  22  27
ATOM     27  O   UNL d   1     -54.863-102.123 -46.268  0.00  0.00    -0.326 OA
ATOM     28  C   UNL d   1     -55.210-102.402 -46.954  0.00  0.00     0.181 C 
ENDBRANCH  22  27
ENDBRANCH   5  19
BRANCH   3  29
ATOM     29  C   UNL d   1     -58.338 -99.328 -43.433  0.00  0.00     0.049 A 
ATOM     30  S   UNL d   1     -58.651 -99.323 -42.684  0.00  0.00    -0.085 SA
ATOM     31  C   UNL d   1     -59.426 -99.048 -42.716  0.00  0.00     0.035 A 
ATOM     32  C   UNL d   1     -59.589 -98.879 -43.512  0.00  0.00     0.007 A 
ATOM     33  C   UNL d   1     -58.914 -99.053 -43.961  0.00  0.00     0.009 A 
ENDBRANCH   3  29
TORSDOF 7
ENDMDL
