MODEL 1
REMARK VINA RESULT:      -5.7      0.000      0.000
REMARK  3 active torsions:
REMARK  status: ('A' for Active; 'I' for Inactive)
REMARK    1  A    between atoms: C_2  and  C_1 
REMARK    2  A    between atoms: N_5  and  C_2 
REMARK    3  A    between atoms: C_9  and  C_4 
ROOT
ATOM      1  C   UNL d   1      58.292  -0.084  29.890  0.00  0.00     0.126 A 
ATOM      2  O   UNL d   1      57.681  -0.406  30.339  0.00  0.00    -0.305 OA
ATOM      3  C   UNL d   1      57.589   0.070  31.008  0.00  0.00     0.100 A 
ATOM      4  C   UNL d   1      58.572   0.588  30.285  0.00  0.00     0.029 A 
ATOM      5  C   UNL d   1      58.143   0.682  30.967  0.00  0.00     0.027 A 
ENDROOT
BRANCH   1   6
ATOM      6  C   UNL d   1      58.621  -0.319  29.180  0.00  0.00     0.143 C 
ATOM      7  S   UNL d   1      58.509   0.139  28.503  0.00  0.00    -0.057 SA
BRANCH   6   8
ATOM      8  N   UNL d   1      59.064  -1.009  29.136  0.00  0.00    -0.290 N 
ATOM      9  C   UNL d   1      58.698  -1.734  28.986  0.00  0.00     0.108 A 
ATOM     10  C   UNL d   1      59.149  -2.426  28.942  0.00  0.00     0.142 A 
ATOM     11  O   UNL d   1      59.965  -2.383  29.051  0.00  0.00    -0.300 OA
ATOM     12  C   UNL d   1      60.331  -1.660  29.201  0.00  0.00     0.142 A 
ATOM     13  C   UNL d   1      59.878  -0.978  29.243  0.00  0.00     0.108 A 
ENDBRANCH   6   8
ENDBRANCH   1   6
BRANCH   3  14
ATOM     14  C   UNL d   1      57.043  -0.050  31.602  0.00  0.00     0.023 A 
ATOM     15  C   UNL d   1      56.706   0.599  31.984  0.00  0.00     0.003 A 
ATOM     16  C   UNL d   1      56.159   0.489  32.579  0.00  0.00     0.007 A 
ATOM     17  C   UNL d   1      55.936  -0.275  32.806  0.00  0.00     0.035 A 
ATOM     18  C   UNL d   1      56.272  -0.929  32.425  0.00  0.00     0.007 A 
ATOM     19 BR   UNL d   1      55.383  -0.386  33.408  0.00  0.00    -0.049 Br
ATOM     20  C   UNL d   1      56.817  -0.818  31.832  0.00  0.00     0.003 A 
ENDBRANCH   3  14
TORSDOF 3
ENDMDL
MODEL 2
REMARK VINA RESULT:      -4.4      1.077      1.587
REMARK  3 active torsions:
REMARK  status: ('A' for Active; 'I' for Inactive)
REMARK    1  A    between atoms: C_2  and  C_1 
REMARK    2  A    between atoms: N_5  and  C_2 
REMARK    3  A    between atoms: C_9  and  C_4 
ROOT
ATOM      1  C   UNL d   1      58.183  -0.205  30.113  0.00  0.00     0.126 A 
ATOM      2  O   UNL d   1      57.738   0.174  30.693  0.00  0.00    -0.305 OA
ATOM      3  C   UNL d   1      57.348  -0.411  31.128  0.00  0.00     0.100 A 
ATOM      4  C   UNL d   1      58.065  -1.021  30.194  0.00  0.00     0.029 A 
ATOM      5  C   UNL d   1      57.556  -1.146  30.812  0.00  0.00     0.027 A 
ENDROOT
BRANCH   1   6
ATOM      6  C   UNL d   1      58.674   0.091  29.531  0.00  0.00     0.143 C 
ATOM      7  S   UNL d   1      58.352   0.383  28.830  0.00  0.00    -0.057 SA
BRANCH   6   8
ATOM      8  N   UNL d   1      59.489   0.100  29.639  0.00  0.00    -0.290 N 
ATOM      9  C   UNL d   1      59.843   0.677  30.111  0.00  0.00     0.108 A 
ATOM     10  C   UNL d   1      60.664   0.681  30.216  0.00  0.00     0.142 A 
ATOM     11  O   UNL d   1      61.120   0.104  29.845  0.00  0.00    -0.300 OA
ATOM     12  C   UNL d   1      60.767  -0.473  29.374  0.00  0.00     0.142 A 
ATOM     13  C   UNL d   1      59.953  -0.471  29.274  0.00  0.00     0.108 A 
ENDBRANCH   6   8
ENDBRANCH   1   6
BRANCH   3  14
ATOM     14  C   UNL d   1      56.847  -0.277  31.757  0.00  0.00     0.023 A 
ATOM     15  C   UNL d   1      56.443  -0.911  32.097  0.00  0.00     0.003 A 
ATOM     16  C   UNL d   1      55.939  -0.787  32.728  0.00  0.00     0.007 A 
ATOM     17  C   UNL d   1      55.829  -0.025  33.032  0.00  0.00     0.035 A 
ATOM     18  C   UNL d   1      56.234   0.612  32.693  0.00  0.00     0.007 A 
ATOM     19 BR   UNL d   1      55.320   0.099  33.669  0.00  0.00    -0.049 Br
ATOM     20  C   UNL d   1      56.735   0.488  32.065  0.00  0.00     0.003 A 
ENDBRANCH   3  14
TORSDOF 3
ENDMDL
MODEL 3
REMARK VINA RESULT:      -3.5      2.412      4.385
REMARK  3 active torsions:
REMARK  status: ('A' for Active; 'I' for Inactive)
REMARK    1  A    between atoms: C_2  and  C_1 
REMARK    2  A    between atoms: N_5  and  C_2 
REMARK    3  A    between atoms: C_9  and  C_4 
ROOT
ATOM      1  C   UNL d   1      57.308   0.140  31.886  0.00  0.00     0.126 A 
ATOM      2  O   UNL d   1      57.809  -0.404  31.521  0.00  0.00    -0.305 OA
ATOM      3  C   UNL d   1      57.866  -0.192  30.724  0.00  0.00     0.100 A 
ATOM      4  C   UNL d   1      57.059   0.682  31.311  0.00  0.00     0.029 A 
ATOM      5  C   UNL d   1      57.399   0.480  30.603  0.00  0.00     0.027 A 
ENDROOT
BRANCH   1   6
ATOM      6  C   UNL d   1      57.053   0.203  32.659  0.00  0.00     0.143 C 
ATOM      7  S   UNL d   1      57.465   0.682  33.190  0.00  0.00    -0.057 SA
BRANCH   6   8
ATOM      8  N   UNL d   1      56.388  -0.207  32.913  0.00  0.00    -0.290 N 
ATOM      9  C   UNL d   1      56.362  -1.031  32.871  0.00  0.00     0.108 A 
ATOM     10  C   UNL d   1      55.690  -1.439  33.128  0.00  0.00     0.142 A 
ATOM     11  O   UNL d   1      55.049  -1.014  33.424  0.00  0.00    -0.300 OA
ATOM     12  C   UNL d   1      55.074  -0.191  33.466  0.00  0.00     0.142 A 
ATOM     13  C   UNL d   1      55.745   0.207  33.210  0.00  0.00     0.108 A 
ENDBRANCH   6   8
ENDBRANCH   1   6
BRANCH   3  14
ATOM     14  C   UNL d   1      58.307  -0.583  30.161  0.00  0.00     0.023 A 
ATOM     15  C   UNL d   1      58.107  -1.356  29.952  0.00  0.00     0.003 A 
ATOM     16  C   UNL d   1      58.544  -1.756  29.389  0.00  0.00     0.007 A 
ATOM     17  C   UNL d   1      59.191  -1.390  29.023  0.00  0.00     0.035 A 
ATOM     18  C   UNL d   1      59.393  -0.615  29.232  0.00  0.00     0.007 A 
ATOM     19 BR   UNL d   1      59.631  -1.795  28.455  0.00  0.00    -0.049 Br
ATOM     20  C   UNL d   1      58.958  -0.218  29.792  0.00  0.00     0.003 A 
ENDBRANCH   3  14
TORSDOF 3
ENDMDL
