MODEL 1
REMARK VINA RESULT:      -5.1      0.000      0.000
REMARK  4 active torsions:
REMARK  status: ('A' for Active; 'I' for Inactive)
REMARK    1  A    between atoms: C_6  and  N_1 
REMARK    2  A    between atoms: N_7  and  C_5 
REMARK    3  A    between atoms: C_8  and  C_6 
REMARK    4  A    between atoms: C_12  and  N_7 
ROOT
ATOM      1  N   UNL d   1     -41.422-122.394 -53.448  0.00  0.00    -0.227 N 
ATOM      2  C   UNL d   1     -41.340-123.079 -52.997  0.00  0.00     0.300 A 
ATOM      3  S   UNL d   1     -41.241-123.028 -52.184  0.00  0.00    -0.003 SA
ATOM      4  C   UNL d   1     -41.307-121.604 -52.267  0.00  0.00     0.292 A 
ATOM      5  C   UNL d   1     -41.224-122.289 -51.817  0.00  0.00     0.172 A 
ATOM      6  O   UNL d   1     -41.356-123.817 -53.364  0.00  0.00    -0.259 OA
ATOM      7  O   UNL d   1     -41.319-120.722 -52.087  0.00  0.00    -0.264 OA
ENDROOT
BRANCH   5   8
ATOM      8  N   UNL d   1     -41.125-122.236 -50.999  0.00  0.00    -0.234 NA
BRANCH   8   9
ATOM      9  C   UNL d   1     -41.648-122.626 -50.494  0.00  0.00     0.082 A 
ATOM     10  C   UNL d   1     -41.447-123.377 -50.194  0.00  0.00     0.019 A 
ATOM     11  C   UNL d   1     -41.966-123.765 -49.692  0.00  0.00     0.002 A 
ATOM     12  C   UNL d   1     -42.686-123.414 -49.485  0.00  0.00     0.000 A 
ATOM     13  C   UNL d   1     -42.883-122.662 -49.788  0.00  0.00     0.002 A 
ATOM     14  C   UNL d   1     -43.214-123.797 -48.981  0.00  0.00     0.000 C 
ATOM     15  C   UNL d   1     -42.355-122.278 -50.293  0.00  0.00     0.019 A 
ENDBRANCH   8   9
ENDBRANCH   5   8
BRANCH   1  16
ATOM     16  C   UNL d   1     -41.538-122.222 -54.330  0.00  0.00     0.157 C 
BRANCH  16  17
ATOM     17  C   UNL d   1     -42.286-121.770 -54.615  0.00  0.00     0.230 C 
ATOM     18  O   UNL d   1     -43.015-122.246 -54.875  0.00  0.00    -0.643 OA
ATOM     19  O   UNL d   1     -42.290-120.873 -54.634  0.00  0.00    -0.643 OA
ENDBRANCH  16  17
ENDBRANCH   1  16
TORSDOF 4
ENDMDL
MODEL 2
REMARK VINA RESULT:      -3.5      1.483      4.263
REMARK  4 active torsions:
REMARK  status: ('A' for Active; 'I' for Inactive)
REMARK    1  A    between atoms: C_6  and  N_1 
REMARK    2  A    between atoms: N_7  and  C_5 
REMARK    3  A    between atoms: C_8  and  C_6 
REMARK    4  A    between atoms: C_12  and  N_7 
ROOT
ATOM      1  N   UNL d   1     -41.885-121.988 -51.068  0.00  0.00    -0.227 N 
ATOM      2  C   UNL d   1     -41.399-121.511 -51.533  0.00  0.00     0.300 A 
ATOM      3  S   UNL d   1     -41.145-121.775 -52.268  0.00  0.00    -0.003 SA
ATOM      4  C   UNL d   1     -41.862-122.995 -52.076  0.00  0.00     0.292 A 
ATOM      5  C   UNL d   1     -41.377-122.518 -52.541  0.00  0.00     0.172 A 
ATOM      6  O   UNL d   1     -41.168-120.768 -51.261  0.00  0.00    -0.259 OA
ATOM      7  O   UNL d   1     -42.227-123.813 -52.167  0.00  0.00    -0.264 OA
ENDROOT
BRANCH   5   8
ATOM      8  N   UNL d   1     -41.123-122.785 -53.280  0.00  0.00    -0.234 NA
BRANCH   8   9
ATOM      9  C   UNL d   1     -41.543-122.579 -53.959  0.00  0.00     0.082 A 
ATOM     10  C   UNL d   1     -41.866-123.177 -54.441  0.00  0.00     0.019 A 
ATOM     11  C   UNL d   1     -42.283-122.972 -55.116  0.00  0.00     0.002 A 
ATOM     12  C   UNL d   1     -42.384-122.175 -55.319  0.00  0.00     0.000 A 
ATOM     13  C   UNL d   1     -42.058-121.580 -54.833  0.00  0.00     0.002 A 
ATOM     14  C   UNL d   1     -42.802-121.961 -55.996  0.00  0.00     0.000 C 
ATOM     15  C   UNL d   1     -41.639-121.795 -54.156  0.00  0.00     0.019 A 
ENDBRANCH   8   9
ENDBRANCH   5   8
BRANCH   1  16
ATOM     16  C   UNL d   1     -42.270-121.900 -50.252  0.00  0.00     0.157 C 
BRANCH  16  17
ATOM     17  C   UNL d   1     -42.249-122.601 -49.658  0.00  0.00     0.230 C 
ATOM     18  O   UNL d   1     -41.462-122.816 -49.259  0.00  0.00    -0.643 OA
ATOM     19  O   UNL d   1     -42.998-123.061 -49.478  0.00  0.00    -0.643 OA
ENDBRANCH  16  17
ENDBRANCH   1  16
TORSDOF 4
ENDMDL
MODEL 3
REMARK VINA RESULT:      -3.1      1.566      3.978
REMARK  4 active torsions:
REMARK  status: ('A' for Active; 'I' for Inactive)
REMARK    1  A    between atoms: C_6  and  N_1 
REMARK    2  A    between atoms: N_7  and  C_5 
REMARK    3  A    between atoms: C_8  and  C_6 
REMARK    4  A    between atoms: C_12  and  N_7 
ROOT
ATOM      1  N   UNL d   1     -41.802-122.552 -50.653  0.00  0.00    -0.227 N 
ATOM      2  C   UNL d   1     -41.404-123.036 -51.187  0.00  0.00     0.300 A 
ATOM      3  S   UNL d   1     -41.178-122.742 -51.920  0.00  0.00    -0.003 SA
ATOM      4  C   UNL d   1     -41.749-121.476 -51.586  0.00  0.00     0.292 A 
ATOM      5  C   UNL d   1     -41.350-121.960 -52.121  0.00  0.00     0.172 A 
ATOM      6  O   UNL d   1     -41.231-123.816 -50.987  0.00  0.00    -0.259 OA
ATOM      7  O   UNL d   1     -42.033-120.621 -51.590  0.00  0.00    -0.264 OA
ENDROOT
BRANCH   5   8
ATOM      8  N   UNL d   1     -41.123-121.663 -52.857  0.00  0.00    -0.234 NA
BRANCH   8   9
ATOM      9  C   UNL d   1     -41.487-121.941 -53.543  0.00  0.00     0.082 A 
ATOM     10  C   UNL d   1     -42.180-121.572 -53.821  0.00  0.00     0.019 A 
ATOM     11  C   UNL d   1     -42.541-121.848 -54.503  0.00  0.00     0.002 A 
ATOM     12  C   UNL d   1     -42.220-122.491 -54.914  0.00  0.00     0.000 A 
ATOM     13  C   UNL d   1     -41.525-122.857 -54.632  0.00  0.00     0.002 A 
ATOM     14  C   UNL d   1     -42.576-122.775 -55.601  0.00  0.00     0.000 C 
ATOM     15  C   UNL d   1     -41.168-122.573 -53.945  0.00  0.00     0.019 A 
ENDBRANCH   8   9
ENDBRANCH   5   8
BRANCH   1  16
ATOM     16  C   UNL d   1     -42.135-122.664 -49.817  0.00  0.00     0.157 C 
BRANCH  16  17
ATOM     17  C   UNL d   1     -43.031-122.834 -49.699  0.00  0.00     0.230 C 
ATOM     18  O   UNL d   1     -43.619-122.144 -49.745  0.00  0.00    -0.643 OA
ATOM     19  O   UNL d   1     -43.313-123.671 -49.540  0.00  0.00    -0.643 OA
ENDBRANCH  16  17
ENDBRANCH   1  16
TORSDOF 4
ENDMDL
