MODEL 1
REMARK VINA RESULT:      16.4      0.000      0.000
REMARK  2 active torsions:
REMARK  status: ('A' for Active; 'I' for Inactive)
REMARK    1  A    between atoms: N_6  and  C_1 
REMARK    2  A    between atoms: C_7  and  C_2 
REMARK       I    between atoms: C_8  and  N_6 
ROOT
ATOM      1  C   UNL d   1     -51.098  25.885  33.323  0.00  0.00     0.119 A 
ATOM      2  C   UNL d   1     -51.825  25.546  33.339  0.00  0.00     0.084 A 
ATOM      3  S   UNL d   1     -50.525  25.278  33.313  0.00  0.00    -0.068 SA
ATOM      4  C   UNL d   1     -51.732  24.742  33.339  0.00  0.00     0.013 A 
ATOM      5  C   UNL d   1     -50.918  24.575  33.323  0.00  0.00     0.031 A 
ATOM      6  C   UNL d   1     -52.281  24.127  33.351  0.00  0.00     0.001 A 
ATOM      7  C   UNL d   1     -50.676  23.786  33.320  0.00  0.00     0.006 A 
ATOM      8  C   UNL d   1     -52.020  23.339  33.348  0.00  0.00     0.000 A 
ATOM      9  C   UNL d   1     -51.232  23.189  33.333  0.00  0.00     0.001 A 
ENDROOT
BRANCH   1  10
ATOM     10  N   UNL d   1     -50.951  26.726  33.318  0.00  0.00    -0.201 NA
ATOM     11  C   UNL d   1     -50.187  27.030  33.341  0.00  0.00     0.280 C 
ATOM     12  O   UNL d   1     -49.526  26.513  33.371  0.00  0.00    -0.265 OA
ATOM     13  C   UNL d   1     -50.058  27.845  33.336  0.00  0.00     0.068 C 
ENDBRANCH   1  10
BRANCH   2  14
ATOM     14  C   UNL d   1     -52.550  25.979  33.352  0.00  0.00     0.299 C 
ATOM     15  O   UNL d   1     -52.505  26.809  33.366  0.00  0.00    -0.264 OA
ATOM     16  N   UNL d   1     -53.279  25.604  33.352  0.00  0.00    -0.102 N 
ENDBRANCH   2  14
TORSDOF 2
ENDMDL
