MODEL 1
REMARK VINA RESULT:      54.7      0.000      0.000
REMARK  6 active torsions:
REMARK  status: ('A' for Active; 'I' for Inactive)
REMARK    1  A    between atoms: C_8  and  C_6 
REMARK    2  A    between atoms: C_10  and  C_8 
REMARK       I    between atoms: N_13  and  C_10 
REMARK    3  A    between atoms: C_11  and  C_14 
REMARK    4  A    between atoms: O_20  and  C_11 
REMARK    5  A    between atoms: C_19  and  N_13 
REMARK    6  A    between atoms: C_23  and  O_20 
ROOT
ATOM      1  C   UNL d   1      61.077  49.014  50.640  0.00  0.00     0.280 C 
ATOM      2  N   UNL d   1      60.678  49.688  50.377  0.00  0.00    -0.208 NA
ATOM      3  O   UNL d   1      61.900  49.024  50.695  0.00  0.00    -0.265 OA
ENDROOT
BRANCH   1   4
ATOM      4  C   UNL d   1      60.656  48.337  50.846  0.00  0.00     0.074 C 
BRANCH   4   5
ATOM      5  C   UNL d   1      60.920  47.593  50.596  0.00  0.00     0.095 A 
ATOM      6  C   UNL d   1      60.851  46.888  51.016  0.00  0.00     0.288 A 
ATOM      7  N   UNL d   1      61.185  46.290  50.565  0.00  0.00    -0.169 N 
ATOM      8  O   UNL d   1      60.505  46.801  51.760  0.00  0.00    -0.265 OA
ATOM      9  C   UNL d   1      61.464  46.623  49.860  0.00  0.00     0.200 A 
ATOM     10  N   UNL d   1      61.349  45.482  50.547  0.00  0.00    -0.138 NA
ATOM     11  N   UNL d   1      61.801  46.021  49.406  0.00  0.00    -0.197 NA
ATOM     12  S   UNL d   1      61.300  47.432  49.879  0.00  0.00    -0.043 SA
ATOM     13  C   UNL d   1      61.730  45.312  49.830  0.00  0.00     0.222 A 
ENDBRANCH   4   5
ENDBRANCH   1   4
BRANCH   2  14
ATOM     14  C   UNL d   1      59.855  49.675  50.323  0.00  0.00     0.085 A 
ATOM     15  C   UNL d   1      59.404  49.693  51.016  0.00  0.00     0.019 A 
ATOM     16  C   UNL d   1      58.586  49.680  50.976  0.00  0.00     0.007 A 
ATOM     17  C   UNL d   1      58.208  49.649  50.236  0.00  0.00     0.064 A 
ATOM     18  C   UNL d   1      58.663  49.631  49.543  0.00  0.00     0.007 A 
ATOM     19  C   UNL d   1      59.484  49.644  49.588  0.00  0.00     0.019 A 
BRANCH  17  20
ATOM     20  C   UNL d   1      57.389  49.636  50.187  0.00  0.00     0.300 C 
ATOM     21  O   UNL d   1      56.936  49.549  50.876  0.00  0.00    -0.259 OA
BRANCH  20  22
ATOM     22  O   UNL d   1      57.016  49.708  49.457  0.00  0.00    -0.271 OA
BRANCH  22  23
ATOM     23  C   UNL d   1      56.326  49.277  49.304  0.00  0.00     0.126 C 
ATOM     24  C   UNL d   1      56.300  48.468  49.467  0.00  0.00     0.029 C 
ENDBRANCH  22  23
ENDBRANCH  20  22
ENDBRANCH  17  20
ENDBRANCH   2  14
TORSDOF 6
ENDMDL
