MODEL 1
REMARK VINA RESULT:      -2.8      0.000      0.000
REMARK  4 active torsions:
REMARK  status: ('A' for Active; 'I' for Inactive)
REMARK    1  A    between atoms: N_14  and  C_6 
REMARK    2  A    between atoms: C_19  and  N_14 
REMARK    3  A    between atoms: O_17  and  C_20 
REMARK    4  A    between atoms: C_20  and  C_19 
ROOT
ATOM      1  N   UNL d   1      33.201  21.888 -20.901  0.00  0.00    -0.183 N 
ATOM      2  C   UNL d   1      33.188  21.660 -21.700  0.00  0.00     0.169 A 
ATOM      3  C   UNL d   1      33.201  20.869 -21.908  0.00  0.00     0.073 A 
ATOM      4  C   UNL d   1      33.227  20.308 -21.314  0.00  0.00     0.185 A 
ATOM      5  N   UNL d   1      33.241  20.535 -20.516  0.00  0.00    -0.142 NA
ATOM      6  C   UNL d   1      33.188  22.683 -20.713  0.00  0.00     0.218 A 
ATOM      7  N   UNL d   1      33.162  22.234 -22.287  0.00  0.00    -0.226 NA
ATOM      8  C   UNL d   1      33.188  20.644 -22.697  0.00  0.00     0.007 A 
ATOM      9  N   UNL d   1      33.241  19.503 -21.509  0.00  0.00    -0.225 NA
ATOM     10  C   UNL d   1      33.161  23.254 -21.291  0.00  0.00     0.071 A 
ATOM     11  C   UNL d   1      33.201  19.854 -22.905  0.00  0.00     0.019 A 
ATOM     12  C   UNL d   1      33.148  23.026 -22.089  0.00  0.00     0.087 A 
ATOM     13  C   UNL d   1      33.228  19.275 -22.307  0.00  0.00     0.083 A 
ATOM     14  C   UNL d   1      33.161  21.221 -23.287  0.00  0.00     0.000 C 
ATOM     15  C   UNL d   1      33.121  23.625 -22.697  0.00  0.00     0.021 C 
ATOM     16  C   UNL d   1      33.241  18.486 -22.508  0.00  0.00     0.021 C 
ENDROOT
BRANCH   6  17
ATOM     17  N   UNL d   1      33.202  22.909 -19.888  0.00  0.00    -0.378 NA
BRANCH  17  18
ATOM     18  C   UNL d   1      33.240  23.293 -19.135  0.00  0.00     0.189 C 
BRANCH  18  19
ATOM     19  C   UNL d   1      32.747  23.029 -18.498  0.00  0.00     0.151 C 
BRANCH  19  20
ATOM     20  O   UNL d   1      32.620  23.526 -17.831  0.00  0.00    -0.323 OA
ATOM     21  C   UNL d   1      32.458  23.198 -17.060  0.00  0.00     0.182 C 
ENDBRANCH  19  20
ENDBRANCH  18  19
ENDBRANCH  17  18
ENDBRANCH   6  17
TORSDOF 4
ENDMDL
MODEL 2
REMARK VINA RESULT:      -2.2      1.011      1.575
REMARK  4 active torsions:
REMARK  status: ('A' for Active; 'I' for Inactive)
REMARK    1  A    between atoms: N_14  and  C_6 
REMARK    2  A    between atoms: C_19  and  N_14 
REMARK    3  A    between atoms: O_17  and  C_20 
REMARK    4  A    between atoms: C_20  and  C_19 
ROOT
ATOM      1  N   UNL d   1      33.241  21.224 -22.246  0.00  0.00    -0.183 N 
ATOM      2  C   UNL d   1      33.241  20.811 -22.965  0.00  0.00     0.169 A 
ATOM      3  C   UNL d   1      33.241  19.993 -22.977  0.00  0.00     0.073 A 
ATOM      4  C   UNL d   1      33.241  19.591 -22.265  0.00  0.00     0.185 A 
ATOM      5  N   UNL d   1      33.241  20.004 -21.545  0.00  0.00    -0.142 NA
ATOM      6  C   UNL d   1      33.241  22.041 -22.254  0.00  0.00     0.218 A 
ATOM      7  N   UNL d   1      33.241  21.226 -23.674  0.00  0.00    -0.226 NA
ATOM      8  C   UNL d   1      33.241  19.584 -23.689  0.00  0.00     0.007 A 
ATOM      9  N   UNL d   1      33.240  18.762 -22.260  0.00  0.00    -0.225 NA
ATOM     10  C   UNL d   1      33.241  22.457 -22.953  0.00  0.00     0.071 A 
ATOM     11  C   UNL d   1      33.240  18.767 -23.701  0.00  0.00     0.019 A 
ATOM     12  C   UNL d   1      33.241  22.044 -23.673  0.00  0.00     0.087 A 
ATOM     13  C   UNL d   1      33.240  18.349 -22.980  0.00  0.00     0.083 A 
ATOM     14  C   UNL d   1      33.241  20.003 -24.401  0.00  0.00     0.000 C 
ATOM     15  C   UNL d   1      33.241  22.479 -24.407  0.00  0.00     0.021 C 
ATOM     16  C   UNL d   1      33.240  17.535 -22.985  0.00  0.00     0.021 C 
ENDROOT
BRANCH   6  17
ATOM     17  N   UNL d   1      33.241  22.459 -21.507  0.00  0.00    -0.378 NA
BRANCH  17  18
ATOM     18  C   UNL d   1      33.237  23.015 -20.869  0.00  0.00     0.189 C 
BRANCH  18  19
ATOM     19  C   UNL d   1      32.594  23.021 -20.316  0.00  0.00     0.151 C 
BRANCH  19  20
ATOM     20  O   UNL d   1      32.626  23.522 -19.641  0.00  0.00    -0.323 OA
ATOM     21  C   UNL d   1      32.659  23.200 -18.852  0.00  0.00     0.182 C 
ENDBRANCH  19  20
ENDBRANCH  18  19
ENDBRANCH  17  18
ENDBRANCH   6  17
TORSDOF 4
ENDMDL
MODEL 3
REMARK VINA RESULT:      -2.0      4.441      6.318
REMARK  4 active torsions:
REMARK  status: ('A' for Active; 'I' for Inactive)
REMARK    1  A    between atoms: N_14  and  C_6 
REMARK    2  A    between atoms: C_19  and  N_14 
REMARK    3  A    between atoms: O_17  and  C_20 
REMARK    4  A    between atoms: C_20  and  C_19 
ROOT
ATOM      1  N   UNL d   1      31.724  17.511 -24.342  0.00  0.00    -0.183 N 
ATOM      2  C   UNL d   1      31.407  16.841 -23.969  0.00  0.00     0.169 A 
ATOM      3  C   UNL d   1      30.600  16.705 -23.969  0.00  0.00     0.073 A 
ATOM      4  C   UNL d   1      30.112  17.243 -24.343  0.00  0.00     0.185 A 
ATOM      5  N   UNL d   1      30.428  17.914 -24.716  0.00  0.00    -0.142 NA
ATOM      6  C   UNL d   1      32.532  17.630 -24.331  0.00  0.00     0.218 A 
ATOM      7  N   UNL d   1      31.908  16.307 -23.596  0.00  0.00    -0.226 NA
ATOM      8  C   UNL d   1      30.288  16.042 -23.600  0.00  0.00     0.007 A 
ATOM      9  N   UNL d   1      29.293  17.120 -24.352  0.00  0.00    -0.225 NA
ATOM     10  C   UNL d   1      33.032  17.105 -23.964  0.00  0.00     0.071 A 
ATOM     11  C   UNL d   1      29.482  15.906 -23.600  0.00  0.00     0.019 A 
ATOM     12  C   UNL d   1      32.715  16.434 -23.591  0.00  0.00     0.087 A 
ATOM     13  C   UNL d   1      28.977  16.449 -23.979  0.00  0.00     0.083 A 
ATOM     14  C   UNL d   1      30.792  15.506 -23.226  0.00  0.00     0.000 C 
ATOM     15  C   UNL d   1      33.239  15.881 -23.204  0.00  0.00     0.021 C 
ATOM     16  C   UNL d   1      28.173  16.320 -23.982  0.00  0.00     0.021 C 
ENDROOT
BRANCH   6  17
ATOM     17  N   UNL d   1      32.850  18.324 -24.718  0.00  0.00    -0.378 NA
BRANCH  17  18
ATOM     18  C   UNL d   1      32.999  19.066 -25.097  0.00  0.00     0.189 C 
BRANCH  18  19
ATOM     19  C   UNL d   1      33.166  19.754 -24.632  0.00  0.00     0.151 C 
BRANCH  19  20
ATOM     20  O   UNL d   1      33.025  20.520 -24.949  0.00  0.00    -0.323 OA
ATOM     21  C   UNL d   1      33.241  21.224 -24.518  0.00  0.00     0.182 C 
ENDBRANCH  19  20
ENDBRANCH  18  19
ENDBRANCH  17  18
ENDBRANCH   6  17
TORSDOF 4
ENDMDL
MODEL 4
REMARK VINA RESULT:      -1.7      1.042      2.422
REMARK  4 active torsions:
REMARK  status: ('A' for Active; 'I' for Inactive)
REMARK    1  A    between atoms: N_14  and  C_6 
REMARK    2  A    between atoms: C_19  and  N_14 
REMARK    3  A    between atoms: O_17  and  C_20 
REMARK    4  A    between atoms: C_20  and  C_19 
ROOT
ATOM      1  N   UNL d   1      33.221  22.678 -21.305  0.00  0.00    -0.183 N 
ATOM      2  C   UNL d   1      33.226  22.106 -21.906  0.00  0.00     0.169 A 
ATOM      3  C   UNL d   1      33.225  22.327 -22.694  0.00  0.00     0.073 A 
ATOM      4  C   UNL d   1      33.219  23.124 -22.877  0.00  0.00     0.185 A 
ATOM      5  N   UNL d   1      33.215  23.696 -22.277  0.00  0.00    -0.142 NA
ATOM      6  C   UNL d   1      33.223  22.438 -20.525  0.00  0.00     0.218 A 
ATOM      7  N   UNL d   1      33.232  21.308 -21.709  0.00  0.00    -0.226 NA
ATOM      8  C   UNL d   1      33.230  21.761 -23.288  0.00  0.00     0.007 A 
ATOM      9  N   UNL d   1      33.218  23.364 -23.670  0.00  0.00    -0.225 NA
ATOM     10  C   UNL d   1      33.228  21.650 -20.325  0.00  0.00     0.071 A 
ATOM     11  C   UNL d   1      33.229  21.981 -24.075  0.00  0.00     0.019 A 
ATOM     12  C   UNL d   1      33.233  21.077 -20.925  0.00  0.00     0.087 A 
ATOM     13  C   UNL d   1      33.223  22.791 -24.271  0.00  0.00     0.083 A 
ATOM     14  C   UNL d   1      33.235  20.959 -23.089  0.00  0.00     0.000 C 
ATOM     15  C   UNL d   1      33.239  20.249 -20.717  0.00  0.00     0.021 C 
ATOM     16  C   UNL d   1      33.222  23.018 -25.053  0.00  0.00     0.021 C 
ENDROOT
BRANCH   6  17
ATOM     17  N   UNL d   1      33.218  23.035 -19.911  0.00  0.00    -0.378 NA
BRANCH  17  18
ATOM     18  C   UNL d   1      33.217  23.489 -19.198  0.00  0.00     0.189 C 
BRANCH  18  19
ATOM     19  C   UNL d   1      32.670  23.304 -18.577  0.00  0.00     0.151 C 
BRANCH  19  20
ATOM     20  O   UNL d   1      32.763  23.650 -17.816  0.00  0.00    -0.323 OA
ATOM     21  C   UNL d   1      32.313  23.374 -17.146  0.00  0.00     0.182 C 
ENDBRANCH  19  20
ENDBRANCH  18  19
ENDBRANCH  17  18
ENDBRANCH   6  17
TORSDOF 4
ENDMDL
MODEL 5
REMARK VINA RESULT:      -0.9      1.797      4.325
REMARK  4 active torsions:
REMARK  status: ('A' for Active; 'I' for Inactive)
REMARK    1  A    between atoms: N_14  and  C_6 
REMARK    2  A    between atoms: C_19  and  N_14 
REMARK    3  A    between atoms: O_17  and  C_20 
REMARK    4  A    between atoms: C_20  and  C_19 
ROOT
ATOM      1  N   UNL d   1      32.997  22.545 -21.007  0.00  0.00    -0.183 N 
ATOM      2  C   UNL d   1      33.058  22.080 -20.322  0.00  0.00     0.169 A 
ATOM      3  C   UNL d   1      33.039  22.426 -19.580  0.00  0.00     0.073 A 
ATOM      4  C   UNL d   1      32.959  23.238 -19.528  0.00  0.00     0.185 A 
ATOM      5  N   UNL d   1      32.898  23.702 -20.213  0.00  0.00    -0.142 NA
ATOM      6  C   UNL d   1      33.018  22.182 -21.739  0.00  0.00     0.218 A 
ATOM      7  N   UNL d   1      33.138  21.265 -20.388  0.00  0.00    -0.226 NA
ATOM      8  C   UNL d   1      33.100  21.966 -18.903  0.00  0.00     0.007 A 
ATOM      9  N   UNL d   1      32.939  23.602 -18.784  0.00  0.00    -0.225 NA
ATOM     10  C   UNL d   1      33.097  21.376 -21.809  0.00  0.00     0.071 A 
ATOM     11  C   UNL d   1      33.081  22.311 -18.162  0.00  0.00     0.019 A 
ATOM     12  C   UNL d   1      33.158  20.911 -21.124  0.00  0.00     0.087 A 
ATOM     13  C   UNL d   1      33.000  23.138 -18.099  0.00  0.00     0.083 A 
ATOM     14  C   UNL d   1      33.180  21.147 -18.970  0.00  0.00     0.000 C 
ATOM     15  C   UNL d   1      33.241  20.065 -21.196  0.00  0.00     0.021 C 
ATOM     16  C   UNL d   1      32.981  23.488 -17.364  0.00  0.00     0.021 C 
ENDROOT
BRANCH   6  17
ATOM     17  N   UNL d   1      32.954  22.669 -22.440  0.00  0.00    -0.378 NA
BRANCH  17  18
ATOM     18  C   UNL d   1      32.721  23.146 -23.098  0.00  0.00     0.189 C 
BRANCH  18  19
ATOM     19  C   UNL d   1      33.127  23.076 -23.839  0.00  0.00     0.151 C 
BRANCH  19  20
ATOM     20  O   UNL d   1      32.978  23.631 -24.454  0.00  0.00    -0.323 OA
ATOM     21  C   UNL d   1      32.326  23.528 -24.994  0.00  0.00     0.182 C 
ENDBRANCH  19  20
ENDBRANCH  18  19
ENDBRANCH  17  18
ENDBRANCH   6  17
TORSDOF 4
ENDMDL
MODEL 6
REMARK VINA RESULT:      -0.8      1.966      3.329
REMARK  4 active torsions:
REMARK  status: ('A' for Active; 'I' for Inactive)
REMARK    1  A    between atoms: N_14  and  C_6 
REMARK    2  A    between atoms: C_19  and  N_14 
REMARK    3  A    between atoms: O_17  and  C_20 
REMARK    4  A    between atoms: C_20  and  C_19 
ROOT
ATOM      1  N   UNL d   1      32.862  19.123 -22.761  0.00  0.00    -0.183 N 
ATOM      2  C   UNL d   1      32.875  18.843 -23.542  0.00  0.00     0.169 A 
ATOM      3  C   UNL d   1      32.764  18.049 -23.703  0.00  0.00     0.073 A 
ATOM      4  C   UNL d   1      32.641  17.536 -23.078  0.00  0.00     0.185 A 
ATOM      5  N   UNL d   1      32.629  17.815 -22.297  0.00  0.00    -0.142 NA
ATOM      6  C   UNL d   1      32.974  19.920 -22.620  0.00  0.00     0.218 A 
ATOM      7  N   UNL d   1      32.999  19.369 -24.161  0.00  0.00    -0.226 NA
ATOM      8  C   UNL d   1      32.777  17.772 -24.476  0.00  0.00     0.007 A 
ATOM      9  N   UNL d   1      32.528  16.728 -23.225  0.00  0.00    -0.225 NA
ATOM     10  C   UNL d   1      33.098  20.444 -23.229  0.00  0.00     0.071 A 
ATOM     11  C   UNL d   1      32.667  16.979 -24.637  0.00  0.00     0.019 A 
ATOM     12  C   UNL d   1      33.110  20.164 -24.010  0.00  0.00     0.087 A 
ATOM     13  C   UNL d   1      32.541  16.449 -24.006  0.00  0.00     0.083 A 
ATOM     14  C   UNL d   1      32.902  18.301 -25.097  0.00  0.00     0.000 C 
ATOM     15  C   UNL d   1      33.240  20.713 -24.651  0.00  0.00     0.021 C 
ATOM     16  C   UNL d   1      32.431  15.657 -24.160  0.00  0.00     0.021 C 
ENDROOT
BRANCH   6  17
ATOM     17  N   UNL d   1      32.959  20.199 -21.811  0.00  0.00    -0.378 NA
BRANCH  17  18
ATOM     18  C   UNL d   1      32.784  20.529 -21.052  0.00  0.00     0.189 C 
BRANCH  18  19
ATOM     19  C   UNL d   1      33.065  21.302 -20.849  0.00  0.00     0.151 C 
BRANCH  19  20
ATOM     20  O   UNL d   1      32.731  21.713 -20.195  0.00  0.00    -0.323 OA
ATOM     21  C   UNL d   1      33.154  22.344 -19.806  0.00  0.00     0.182 C 
ENDBRANCH  19  20
ENDBRANCH  18  19
ENDBRANCH  17  18
ENDBRANCH   6  17
TORSDOF 4
ENDMDL
