MODEL 1
REMARK VINA RESULT:      -3.2      0.000      0.000
REMARK  3 active torsions:
REMARK  status: ('A' for Active; 'I' for Inactive)
REMARK    1  A    between atoms: N_2  and  S_1 
REMARK    2  A    between atoms: N_3  and  S_1 
REMARK    3  A    between atoms: C_6  and  N_3 
ROOT
ATOM      1  S   UNL d   1      31.624  17.196 -24.167  0.00  0.00     0.351 S 
ATOM      2  O   UNL d   1      31.782  16.740 -23.499  0.00  0.00    -0.180 OA
ATOM      3  O   UNL d   1      31.466  17.651 -24.834  0.00  0.00    -0.180 OA
ENDROOT
BRANCH   1   4
ATOM      4  N   UNL d   1      32.125  17.784 -23.883  0.00  0.00    -0.215 N 
ATOM      5  C   UNL d   1      32.395  18.376 -24.398  0.00  0.00     0.093 C 
ATOM      6  C   UNL d   1      32.892  18.957 -24.113  0.00  0.00     0.020 C 
ATOM      7  C   UNL d   1      33.213  18.904 -23.364  0.00  0.00     0.003 C 
ATOM      8  C   UNL d   1      33.032  18.255 -22.890  0.00  0.00     0.020 C 
ATOM      9  C   UNL d   1      32.530  17.660 -23.166  0.00  0.00     0.093 C 
ENDBRANCH   1   4
BRANCH   1  10
ATOM     10  N   UNL d   1      31.110  16.648 -24.507  0.00  0.00    -0.144 NA
BRANCH  10  11
ATOM     11  C   UNL d   1      30.321  16.575 -24.225  0.00  0.00     0.095 A 
ATOM     12  C   UNL d   1      29.733  17.100 -24.495  0.00  0.00     0.020 A 
ATOM     13  C   UNL d   1      28.954  17.020 -24.227  0.00  0.00     0.002 A 
ATOM     14  C   UNL d   1      28.764  16.419 -23.683  0.00  0.00     0.000 A 
ATOM     15  C   UNL d   1      29.343  15.885 -23.404  0.00  0.00     0.002 A 
ATOM     16  C   UNL d   1      27.985  16.358 -23.405  0.00  0.00     0.000 C 
ATOM     17  C   UNL d   1      30.130  15.967 -23.685  0.00  0.00     0.020 A 
ENDBRANCH  10  11
ENDBRANCH   1  10
TORSDOF 3
ENDMDL
MODEL 2
REMARK VINA RESULT:      -3.2      0.838      3.711
REMARK  3 active torsions:
REMARK  status: ('A' for Active; 'I' for Inactive)
REMARK    1  A    between atoms: N_2  and  S_1 
REMARK    2  A    between atoms: N_3  and  S_1 
REMARK    3  A    between atoms: C_6  and  N_3 
ROOT
ATOM      1  S   UNL d   1      30.872  16.312 -23.934  0.00  0.00     0.351 S 
ATOM      2  O   UNL d   1      31.133  15.972 -23.230  0.00  0.00    -0.180 OA
ATOM      3  O   UNL d   1      30.610  16.651 -24.636  0.00  0.00    -0.180 OA
ENDROOT
BRANCH   1   4
ATOM      4  N   UNL d   1      30.092  16.155 -23.719  0.00  0.00    -0.215 N 
ATOM      5  C   UNL d   1      29.936  15.636 -23.090  0.00  0.00     0.093 C 
ATOM      6  C   UNL d   1      29.163  15.483 -22.880  0.00  0.00     0.020 C 
ATOM      7  C   UNL d   1      28.543  15.744 -23.345  0.00  0.00     0.003 C 
ATOM      8  C   UNL d   1      28.702  16.167 -24.033  0.00  0.00     0.020 C 
ATOM      9  C   UNL d   1      29.481  16.329 -24.257  0.00  0.00     0.093 C 
ENDBRANCH   1   4
BRANCH   1  10
ATOM     10  N   UNL d   1      31.626  16.497 -24.208  0.00  0.00    -0.144 NA
BRANCH  10  11
ATOM     11  C   UNL d   1      32.031  17.173 -23.913  0.00  0.00     0.095 A 
ATOM     12  C   UNL d   1      32.500  17.111 -23.228  0.00  0.00     0.020 A 
ATOM     13  C   UNL d   1      32.907  17.774 -22.945  0.00  0.00     0.002 A 
ATOM     14  C   UNL d   1      32.840  18.501 -23.344  0.00  0.00     0.000 A 
ATOM     15  C   UNL d   1      32.374  18.578 -24.033  0.00  0.00     0.002 A 
ATOM     16  C   UNL d   1      33.237  19.165 -23.044  0.00  0.00     0.000 C 
ATOM     17  C   UNL d   1      31.968  17.901 -24.319  0.00  0.00     0.020 A 
ENDBRANCH  10  11
ENDBRANCH   1  10
TORSDOF 3
ENDMDL
