MODEL 1
REMARK VINA RESULT:      -2.8      0.000      0.000
REMARK  3 active torsions:
REMARK  status: ('A' for Active; 'I' for Inactive)
REMARK    1  A    between atoms: C_4  and  N_1 
REMARK    2  A    between atoms: C_2  and  O_5 
REMARK       I    between atoms: N_3  and  C_2 
REMARK    3  A    between atoms: O_5  and  C_10 
ROOT
ATOM      1  C   UNL d   1      28.993  16.129 -24.044  0.00  0.00     0.129 A 
ATOM      2  C   UNL d   1      29.700  16.469 -23.800  0.00  0.00     0.048 A 
ATOM      3  C   UNL d   1      30.392  16.302 -24.209  0.00  0.00     0.106 A 
ATOM      4  C   UNL d   1      28.980  15.623 -24.696  0.00  0.00     0.024 A 
ATOM      5  C   UNL d   1      29.676  15.464 -25.097  0.00  0.00     0.004 A 
ATOM      6  C   UNL d   1      30.383  15.804 -24.853  0.00  0.00     0.025 A 
ENDROOT
BRANCH   3   7
ATOM      7  O   UNL d   1      31.104  16.644 -23.963  0.00  0.00    -0.259 OA
BRANCH   7   8
ATOM      8  C   UNL d   1      31.396  17.323 -24.321  0.00  0.00     0.377 C 
ATOM      9  N   UNL d   1      32.011  17.767 -23.971  0.00  0.00    -0.252 N 
ATOM     10  C   UNL d   1      32.297  18.457 -24.350  0.00  0.00     0.085 A 
ATOM     11  C   UNL d   1      32.350  17.534 -23.245  0.00  0.00     0.085 A 
ATOM     12  C   UNL d   1      32.915  18.902 -23.998  0.00  0.00     0.019 A 
ATOM     13  C   UNL d   1      33.241  18.653 -23.271  0.00  0.00     0.003 A 
ATOM     14  C   UNL d   1      32.959  17.974 -22.899  0.00  0.00     0.019 A 
ATOM     15  O   UNL d   1      31.060  17.565 -25.053  0.00  0.00    -0.237 OA
ENDBRANCH   7   8
ENDBRANCH   3   7
BRANCH   1  16
ATOM     16  N   UNL d   1      28.290  16.290 -23.639  0.00  0.00    -0.114 N 
ATOM     17  O   UNL d   1      27.992  17.061 -23.609  0.00  0.00    -0.532 OA
ATOM     18  O   UNL d   1      27.888  15.672 -23.263  0.00  0.00    -0.532 OA
ENDBRANCH   1  16
TORSDOF 3
ENDMDL
MODEL 2
REMARK VINA RESULT:      -2.6      2.790      4.792
REMARK  3 active torsions:
REMARK  status: ('A' for Active; 'I' for Inactive)
REMARK    1  A    between atoms: C_4  and  N_1 
REMARK    2  A    between atoms: C_2  and  O_5 
REMARK       I    between atoms: N_3  and  C_2 
REMARK    3  A    between atoms: O_5  and  C_10 
ROOT
ATOM      1  C   UNL d   1      32.817  20.740 -21.695  0.00  0.00     0.129 A 
ATOM      2  C   UNL d   1      32.861  19.938 -21.867  0.00  0.00     0.048 A 
ATOM      3  C   UNL d   1      33.074  19.697 -22.622  0.00  0.00     0.106 A 
ATOM      4  C   UNL d   1      32.985  21.299 -22.278  0.00  0.00     0.024 A 
ATOM      5  C   UNL d   1      33.196  21.047 -23.028  0.00  0.00     0.004 A 
ATOM      6  C   UNL d   1      33.241  20.245 -23.200  0.00  0.00     0.025 A 
ENDROOT
BRANCH   3   7
ATOM      7  O   UNL d   1      33.119  18.889 -22.795  0.00  0.00    -0.259 OA
BRANCH   7   8
ATOM      8  C   UNL d   1      32.534  18.514 -23.231  0.00  0.00     0.377 C 
ATOM      9  N   UNL d   1      32.558  17.691 -23.371  0.00  0.00    -0.252 N 
ATOM     10  C   UNL d   1      31.952  17.325 -23.819  0.00  0.00     0.085 A 
ATOM     11  C   UNL d   1      33.179  17.222 -23.072  0.00  0.00     0.085 A 
ATOM     12  C   UNL d   1      31.976  16.498 -23.959  0.00  0.00     0.019 A 
ATOM     13  C   UNL d   1      32.607  16.045 -23.651  0.00  0.00     0.003 A 
ATOM     14  C   UNL d   1      33.203  16.407 -23.211  0.00  0.00     0.019 A 
ATOM     15  O   UNL d   1      31.903  18.979 -23.537  0.00  0.00    -0.237 OA
ENDBRANCH   7   8
ENDBRANCH   3   7
BRANCH   1  16
ATOM     16  N   UNL d   1      32.603  20.994 -20.937  0.00  0.00    -0.114 N 
ATOM     17  O   UNL d   1      31.822  21.212 -20.773  0.00  0.00    -0.532 OA
ATOM     18  O   UNL d   1      33.179  21.027 -20.343  0.00  0.00    -0.532 OA
ENDBRANCH   1  16
TORSDOF 3
ENDMDL
MODEL 3
REMARK VINA RESULT:      -2.5      4.076      6.023
REMARK  3 active torsions:
REMARK  status: ('A' for Active; 'I' for Inactive)
REMARK    1  A    between atoms: C_4  and  N_1 
REMARK    2  A    between atoms: C_2  and  O_5 
REMARK       I    between atoms: N_3  and  C_2 
REMARK    3  A    between atoms: O_5  and  C_10 
ROOT
ATOM      1  C   UNL d   1      32.358  22.608 -21.145  0.00  0.00     0.129 A 
ATOM      2  C   UNL d   1      32.589  22.065 -21.717  0.00  0.00     0.048 A 
ATOM      3  C   UNL d   1      33.007  21.395 -21.493  0.00  0.00     0.106 A 
ATOM      4  C   UNL d   1      32.547  22.480 -20.351  0.00  0.00     0.024 A 
ATOM      5  C   UNL d   1      32.965  21.809 -20.140  0.00  0.00     0.004 A 
ATOM      6  C   UNL d   1      33.196  21.265 -20.712  0.00  0.00     0.025 A 
ENDROOT
BRANCH   3   7
ATOM      7  O   UNL d   1      33.239  20.848 -22.069  0.00  0.00    -0.259 OA
BRANCH   7   8
ATOM      8  C   UNL d   1      33.118  20.043 -21.965  0.00  0.00     0.377 C 
ATOM      9  N   UNL d   1      33.117  19.517 -22.614  0.00  0.00    -0.252 N 
ATOM     10  C   UNL d   1      32.991  18.699 -22.489  0.00  0.00     0.085 A 
ATOM     11  C   UNL d   1      33.240  19.793 -23.391  0.00  0.00     0.085 A 
ATOM     12  C   UNL d   1      32.991  18.171 -23.141  0.00  0.00     0.019 A 
ATOM     13  C   UNL d   1      33.115  18.467 -23.912  0.00  0.00     0.003 A 
ATOM     14  C   UNL d   1      33.239  19.273 -24.033  0.00  0.00     0.019 A 
ATOM     15  O   UNL d   1      32.993  19.755 -21.184  0.00  0.00    -0.237 OA
ENDBRANCH   7   8
ENDBRANCH   3   7
BRANCH   1  16
ATOM     16  N   UNL d   1      31.935  23.286 -21.359  0.00  0.00    -0.114 N 
ATOM     17  O   UNL d   1      31.357  23.594 -20.855  0.00  0.00    -0.532 OA
ATOM     18  O   UNL d   1      32.098  23.653 -22.082  0.00  0.00    -0.532 OA
ENDBRANCH   1  16
TORSDOF 3
ENDMDL
MODEL 4
REMARK VINA RESULT:      -2.4      6.227      7.733
REMARK  3 active torsions:
REMARK  status: ('A' for Active; 'I' for Inactive)
REMARK    1  A    between atoms: C_4  and  N_1 
REMARK    2  A    between atoms: C_2  and  O_5 
REMARK       I    between atoms: N_3  and  C_2 
REMARK    3  A    between atoms: O_5  and  C_10 
ROOT
ATOM      1  C   UNL d   1      32.621  21.465 -21.098  0.00  0.00     0.129 A 
ATOM      2  C   UNL d   1      32.785  21.800 -20.365  0.00  0.00     0.048 A 
ATOM      3  C   UNL d   1      33.030  22.583 -20.324  0.00  0.00     0.106 A 
ATOM      4  C   UNL d   1      32.703  21.914 -21.786  0.00  0.00     0.024 A 
ATOM      5  C   UNL d   1      32.947  22.693 -21.733  0.00  0.00     0.004 A 
ATOM      6  C   UNL d   1      33.111  23.028 -21.000  0.00  0.00     0.025 A 
ENDROOT
BRANCH   3   7
ATOM      7  O   UNL d   1      33.195  22.920 -19.587  0.00  0.00    -0.259 OA
BRANCH   7   8
ATOM      8  C   UNL d   1      32.611  23.298 -19.151  0.00  0.00     0.377 C 
ATOM      9  N   UNL d   1      32.623  23.296 -18.316  0.00  0.00    -0.252 N 
ATOM     10  C   UNL d   1      32.018  23.687 -17.888  0.00  0.00     0.085 A 
ATOM     11  C   UNL d   1      33.229  22.908 -17.896  0.00  0.00     0.085 A 
ATOM     12  C   UNL d   1      32.030  23.685 -17.049  0.00  0.00     0.019 A 
ATOM     13  C   UNL d   1      32.646  23.290 -16.646  0.00  0.00     0.003 A 
ATOM     14  C   UNL d   1      33.241  22.905 -17.069  0.00  0.00     0.019 A 
ATOM     15  O   UNL d   1      31.994  23.693 -19.567  0.00  0.00    -0.237 OA
ENDBRANCH   7   8
ENDBRANCH   3   7
BRANCH   1  16
ATOM     16  N   UNL d   1      32.374  20.677 -21.151  0.00  0.00    -0.114 N 
ATOM     17  O   UNL d   1      32.901  20.090 -21.400  0.00  0.00    -0.532 OA
ATOM     18  O   UNL d   1      31.595  20.483 -20.953  0.00  0.00    -0.532 OA
ENDBRANCH   1  16
TORSDOF 3
ENDMDL
MODEL 5
REMARK VINA RESULT:      -2.4      1.981      2.324
REMARK  3 active torsions:
REMARK  status: ('A' for Active; 'I' for Inactive)
REMARK    1  A    between atoms: C_4  and  N_1 
REMARK    2  A    between atoms: C_2  and  O_5 
REMARK       I    between atoms: N_3  and  C_2 
REMARK    3  A    between atoms: O_5  and  C_10 
ROOT
ATOM      1  C   UNL d   1      28.542  17.109 -23.969  0.00  0.00     0.129 A 
ATOM      2  C   UNL d   1      29.263  16.767 -24.167  0.00  0.00     0.048 A 
ATOM      3  C   UNL d   1      29.387  15.969 -24.019  0.00  0.00     0.106 A 
ATOM      4  C   UNL d   1      27.947  16.651 -23.625  0.00  0.00     0.024 A 
ATOM      5  C   UNL d   1      28.082  15.857 -23.482  0.00  0.00     0.004 A 
ATOM      6  C   UNL d   1      28.803  15.515 -23.679  0.00  0.00     0.025 A 
ENDROOT
BRANCH   3   7
ATOM      7  O   UNL d   1      30.112  15.625 -24.217  0.00  0.00    -0.259 OA
BRANCH   7   8
ATOM      8  C   UNL d   1      30.756  15.667 -23.710  0.00  0.00     0.377 C 
ATOM      9  N   UNL d   1      31.538  15.610 -23.997  0.00  0.00    -0.252 N 
ATOM     10  C   UNL d   1      32.183  15.655 -23.465  0.00  0.00     0.085 A 
ATOM     11  C   UNL d   1      31.692  15.509 -24.810  0.00  0.00     0.085 A 
ATOM     12  C   UNL d   1      32.969  15.598 -23.753  0.00  0.00     0.019 A 
ATOM     13  C   UNL d   1      33.102  15.497 -24.572  0.00  0.00     0.003 A 
ATOM     14  C   UNL d   1      32.466  15.453 -25.095  0.00  0.00     0.019 A 
ATOM     15  O   UNL d   1      30.611  15.769 -22.887  0.00  0.00    -0.237 OA
ENDBRANCH   7   8
ENDBRANCH   3   7
BRANCH   1  16
ATOM     16  N   UNL d   1      28.406  17.912 -24.114  0.00  0.00    -0.114 N 
ATOM     17  O   UNL d   1      28.567  18.235 -24.858  0.00  0.00    -0.532 OA
ATOM     18  O   UNL d   1      28.109  18.388 -23.507  0.00  0.00    -0.532 OA
ENDBRANCH   1  16
TORSDOF 3
ENDMDL
MODEL 6
REMARK VINA RESULT:      -2.3      2.230      4.405
REMARK  3 active torsions:
REMARK  status: ('A' for Active; 'I' for Inactive)
REMARK    1  A    between atoms: C_4  and  N_1 
REMARK    2  A    between atoms: C_2  and  O_5 
REMARK       I    between atoms: N_3  and  C_2 
REMARK    3  A    between atoms: O_5  and  C_10 
ROOT
ATOM      1  C   UNL d   1      32.942  20.033 -22.363  0.00  0.00     0.129 A 
ATOM      2  C   UNL d   1      32.769  19.238 -22.478  0.00  0.00     0.048 A 
ATOM      3  C   UNL d   1      32.835  18.913 -23.229  0.00  0.00     0.106 A 
ATOM      4  C   UNL d   1      33.179  20.501 -23.001  0.00  0.00     0.024 A 
ATOM      5  C   UNL d   1      33.241  20.167 -23.745  0.00  0.00     0.004 A 
ATOM      6  C   UNL d   1      33.068  19.372 -23.859  0.00  0.00     0.025 A 
ENDROOT
BRANCH   3   7
ATOM      7  O   UNL d   1      32.662  18.113 -23.344  0.00  0.00    -0.259 OA
BRANCH   7   8
ATOM      8  C   UNL d   1      32.021  17.877 -23.800  0.00  0.00     0.377 C 
ATOM      9  N   UNL d   1      31.812  17.071 -23.870  0.00  0.00    -0.252 N 
ATOM     10  C   UNL d   1      31.155  16.849 -24.340  0.00  0.00     0.085 A 
ATOM     11  C   UNL d   1      32.248  16.479 -23.479  0.00  0.00     0.085 A 
ATOM     12  C   UNL d   1      30.945  16.040 -24.411  0.00  0.00     0.019 A 
ATOM     13  C   UNL d   1      31.394  15.460 -24.010  0.00  0.00     0.003 A 
ATOM     14  C   UNL d   1      32.041  15.681 -23.548  0.00  0.00     0.019 A 
ATOM     15  O   UNL d   1      31.575  18.469 -24.199  0.00  0.00    -0.237 OA
ENDBRANCH   7   8
ENDBRANCH   3   7
BRANCH   1  16
ATOM     16  N   UNL d   1      32.879  20.371 -21.610  0.00  0.00    -0.114 N 
ATOM     17  O   UNL d   1      32.464  21.078 -21.503  0.00  0.00    -0.532 OA
ATOM     18  O   UNL d   1      33.236  19.993 -20.967  0.00  0.00    -0.532 OA
ENDBRANCH   1  16
TORSDOF 3
ENDMDL
MODEL 7
REMARK VINA RESULT:      -1.8      3.866      5.724
REMARK  3 active torsions:
REMARK  status: ('A' for Active; 'I' for Inactive)
REMARK    1  A    between atoms: C_4  and  N_1 
REMARK    2  A    between atoms: C_2  and  O_5 
REMARK       I    between atoms: N_3  and  C_2 
REMARK    3  A    between atoms: O_5  and  C_10 
ROOT
ATOM      1  C   UNL d   1      32.483  22.431 -21.454  0.00  0.00     0.129 A 
ATOM      2  C   UNL d   1      32.627  21.626 -21.539  0.00  0.00     0.048 A 
ATOM      3  C   UNL d   1      33.006  21.352 -22.213  0.00  0.00     0.106 A 
ATOM      4  C   UNL d   1      32.720  22.958 -22.043  0.00  0.00     0.024 A 
ATOM      5  C   UNL d   1      33.097  22.674 -22.711  0.00  0.00     0.004 A 
ATOM      6  C   UNL d   1      33.241  21.869 -22.796  0.00  0.00     0.025 A 
ENDROOT
BRANCH   3   7
ATOM      7  O   UNL d   1      33.151  20.542 -22.299  0.00  0.00    -0.259 OA
BRANCH   7   8
ATOM      8  C   UNL d   1      33.087  20.173 -23.029  0.00  0.00     0.377 C 
ATOM      9  N   UNL d   1      33.111  19.341 -23.098  0.00  0.00    -0.252 N 
ATOM     10  C   UNL d   1      33.044  18.981 -23.851  0.00  0.00     0.085 A 
ATOM     11  C   UNL d   1      33.201  18.856 -22.425  0.00  0.00     0.085 A 
ATOM     12  C   UNL d   1      33.068  18.145 -23.920  0.00  0.00     0.019 A 
ATOM     13  C   UNL d   1      33.159  17.677 -23.235  0.00  0.00     0.003 A 
ATOM     14  C   UNL d   1      33.225  18.032 -22.493  0.00  0.00     0.019 A 
ATOM     15  O   UNL d   1      32.995  20.654 -23.714  0.00  0.00    -0.237 OA
ENDBRANCH   7   8
ENDBRANCH   3   7
BRANCH   1  16
ATOM     16  N   UNL d   1      32.101  22.718 -20.779  0.00  0.00    -0.114 N 
ATOM     17  O   UNL d   1      32.420  22.580 -20.028  0.00  0.00    -0.532 OA
ATOM     18  O   UNL d   1      31.398  23.146 -20.862  0.00  0.00    -0.532 OA
ENDBRANCH   1  16
TORSDOF 3
ENDMDL
MODEL 8
REMARK VINA RESULT:      -1.3      3.674      5.359
REMARK  3 active torsions:
REMARK  status: ('A' for Active; 'I' for Inactive)
REMARK    1  A    between atoms: C_4  and  N_1 
REMARK    2  A    between atoms: C_2  and  O_5 
REMARK       I    between atoms: N_3  and  C_2 
REMARK    3  A    between atoms: O_5  and  C_10 
ROOT
ATOM      1  C   UNL d   1      32.981  19.232 -23.259  0.00  0.00     0.129 A 
ATOM      2  C   UNL d   1      33.045  19.714 -22.596  0.00  0.00     0.048 A 
ATOM      3  C   UNL d   1      33.175  20.519 -22.692  0.00  0.00     0.106 A 
ATOM      4  C   UNL d   1      33.047  19.556 -24.015  0.00  0.00     0.024 A 
ATOM      5  C   UNL d   1      33.177  20.360 -24.099  0.00  0.00     0.004 A 
ATOM      6  C   UNL d   1      33.241  20.842 -23.436  0.00  0.00     0.025 A 
ENDROOT
BRANCH   3   7
ATOM      7  O   UNL d   1      33.240  21.004 -22.025  0.00  0.00    -0.259 OA
BRANCH   7   8
ATOM      8  C   UNL d   1      32.821  21.708 -21.969  0.00  0.00     0.377 C 
ATOM      9  N   UNL d   1      32.763  22.121 -21.245  0.00  0.00    -0.252 N 
ATOM     10  C   UNL d   1      32.332  22.838 -21.207  0.00  0.00     0.085 A 
ATOM     11  C   UNL d   1      33.129  21.831 -20.555  0.00  0.00     0.085 A 
ATOM     12  C   UNL d   1      32.274  23.252 -20.479  0.00  0.00     0.019 A 
ATOM     13  C   UNL d   1      32.647  22.946 -19.798  0.00  0.00     0.003 A 
ATOM     14  C   UNL d   1      33.072  22.240 -19.838  0.00  0.00     0.019 A 
ATOM     15  O   UNL d   1      32.448  22.008 -22.661  0.00  0.00    -0.237 OA
ENDBRANCH   7   8
ENDBRANCH   3   7
BRANCH   1  16
ATOM     16  N   UNL d   1      32.851  18.419 -23.173  0.00  0.00    -0.114 N 
ATOM     17  O   UNL d   1      33.212  18.000 -22.559  0.00  0.00    -0.532 OA
ATOM     18  O   UNL d   1      32.354  18.030 -23.709  0.00  0.00    -0.532 OA
ENDBRANCH   1  16
TORSDOF 3
ENDMDL
