MODEL 1
REMARK VINA RESULT:      32.6      0.000      0.000
REMARK  4 active torsions:
REMARK  status: ('A' for Active; 'I' for Inactive)
REMARK    1  A    between atoms: C_4  and  C_1 
REMARK    2  A    between atoms: N_8  and  C_4 
REMARK    3  A    between atoms: C_12  and  C_4 
REMARK    4  A    between atoms: C_5  and  N_8 
ROOT
ATOM      1  C   UNL d   1      45.349 -13.836  44.562  0.00  0.00     0.085 C 
ENDROOT
BRANCH   1   2
ATOM      2  C   UNL d   1      45.583 -13.211  44.075  0.00  0.00     0.037 A 
ATOM      3  C   UNL d   1      46.162 -12.637  44.258  0.00  0.00     0.083 A 
ATOM      4  N   UNL d   1      46.212 -12.129  43.620  0.00  0.00    -0.245 NA
ATOM      5  C   UNL d   1      46.603 -12.593  44.955  0.00  0.00     0.021 C 
ATOM      6  C   UNL d   1      45.670 -12.385  43.052  0.00  0.00     0.081 A 
ATOM      7  C   UNL d   1      45.291 -13.045  43.338  0.00  0.00     0.021 A 
ATOM      8  C   UNL d   1      45.485 -12.083  42.303  0.00  0.00     0.019 A 
ATOM      9  C   UNL d   1      44.719 -13.416  42.881  0.00  0.00     0.002 A 
ATOM     10  C   UNL d   1      44.524 -13.127  42.133  0.00  0.00     0.000 A 
ATOM     11  C   UNL d   1      44.903 -12.467  41.847  0.00  0.00     0.002 A 
ENDBRANCH   1   2
BRANCH   1  12
ATOM     12  N   UNL d   1      45.873 -14.295  44.914  0.00  0.00    -0.221 NA
BRANCH  12  13
ATOM     13  C   UNL d   1      46.018 -14.993  44.614  0.00  0.00     0.194 A 
ATOM     14  N   UNL d   1      46.401 -15.149  43.940  0.00  0.00    -0.219 NA
ATOM     15  C   UNL d   1      46.421 -15.896  43.851  0.00  0.00     0.108 A 
ATOM     16  C   UNL d   1      46.061 -16.227  44.450  0.00  0.00     0.059 A 
ATOM     17  S   UNL d   1      45.808 -15.669  44.929  0.00  0.00    -0.046 SA
ENDBRANCH  12  13
ENDBRANCH   1  12
BRANCH   1  18
ATOM     18  C   UNL d   1      44.549 -13.996  44.693  0.00  0.00     0.021 A 
ATOM     19  C   UNL d   1      44.307 -14.782  44.758  0.00  0.00     0.022 A 
ATOM     20  C   UNL d   1      43.508 -14.957  44.889  0.00  0.00     0.099 A 
ATOM     21  N   UNL d   1      42.961 -14.345  44.953  0.00  0.00    -0.242 NA
ATOM     22  C   UNL d   1      43.206 -13.556  44.888  0.00  0.00     0.099 A 
ATOM     23  C   UNL d   1      44.002 -13.385  44.757  0.00  0.00     0.022 A 
ENDBRANCH   1  18
TORSDOF 4
ENDMDL
