MODEL 1
REMARK VINA RESULT:      -5.5      0.000      0.000
REMARK  1 active torsions:
REMARK  status: ('A' for Active; 'I' for Inactive)
REMARK    1  A    between atoms: C_4  and  C_1 
ROOT
ATOM      1  C   UNL d   1      57.268  -0.088  31.236  0.00  0.00     0.168 A 
ATOM      2  N   UNL d   1      57.029  -0.835  31.482  0.00  0.00    -0.225 NA
ATOM      3  N   UNL d   1      56.896   0.473  31.723  0.00  0.00    -0.225 NA
ATOM      4  C   UNL d   1      56.507  -0.740  32.122  0.00  0.00     0.101 A 
ATOM      5  C   UNL d   1      56.427   0.068  32.268  0.00  0.00     0.101 A 
ATOM      6  C   UNL d   1      56.097  -1.291  32.587  0.00  0.00     0.021 A 
ATOM      7  C   UNL d   1      55.930   0.323  32.888  0.00  0.00     0.021 A 
ATOM      8  C   UNL d   1      55.608  -1.034  33.198  0.00  0.00     0.002 A 
ATOM      9  C   UNL d   1      55.524  -0.227  33.348  0.00  0.00     0.002 A 
ENDROOT
BRANCH   1  10
ATOM     10  C   UNL d   1      57.785   0.081  30.618  0.00  0.00     0.065 A 
ATOM     11  S   UNL d   1      58.080   0.682  30.345  0.00  0.00    -0.083 SA
ATOM     12  C   UNL d   1      58.525   0.632  29.782  0.00  0.00     0.035 A 
ATOM     13  C   UNL d   1      58.680  -0.003  29.489  0.00  0.00     0.008 A 
ATOM     14  C   UNL d   1      58.385  -0.603  29.761  0.00  0.00     0.010 A 
ENDBRANCH   1  10
TORSDOF 1
ENDMDL
MODEL 2
REMARK VINA RESULT:      -4.9      1.036      3.520
REMARK  1 active torsions:
REMARK  status: ('A' for Active; 'I' for Inactive)
REMARK    1  A    between atoms: C_4  and  C_1 
ROOT
ATOM      1  C   UNL d   1      56.899  -0.428  31.691  0.00  0.00     0.168 A 
ATOM      2  N   UNL d   1      57.224   0.290  31.454  0.00  0.00    -0.225 NA
ATOM      3  N   UNL d   1      57.195  -1.021  31.189  0.00  0.00    -0.225 NA
ATOM      4  C   UNL d   1      57.721   0.145  30.805  0.00  0.00     0.101 A 
ATOM      5  C   UNL d   1      57.701  -0.664  30.643  0.00  0.00     0.101 A 
ATOM      6  C   UNL d   1      58.188   0.650  30.342  0.00  0.00     0.021 A 
ATOM      7  C   UNL d   1      58.155  -0.966  30.012  0.00  0.00     0.021 A 
ATOM      8  C   UNL d   1      58.635   0.348  29.720  0.00  0.00     0.002 A 
ATOM      9  C   UNL d   1      58.618  -0.460  29.555  0.00  0.00     0.002 A 
ENDROOT
BRANCH   1  10
ATOM     10  C   UNL d   1      56.374  -0.545  32.315  0.00  0.00     0.065 A 
ATOM     11  S   UNL d   1      56.139  -1.118  32.687  0.00  0.00    -0.083 SA
ATOM     12  C   UNL d   1      55.662  -1.023  33.217  0.00  0.00     0.035 A 
ATOM     13  C   UNL d   1      55.418  -0.370  33.381  0.00  0.00     0.008 A 
ATOM     14  C   UNL d   1      55.653   0.202  33.009  0.00  0.00     0.010 A 
ENDBRANCH   1  10
TORSDOF 1
ENDMDL
MODEL 3
REMARK VINA RESULT:      -4.5      0.770      1.403
REMARK  1 active torsions:
REMARK  status: ('A' for Active; 'I' for Inactive)
REMARK    1  A    between atoms: C_4  and  C_1 
ROOT
ATOM      1  C   UNL d   1      57.835  -0.147  30.549  0.00  0.00     0.168 A 
ATOM      2  N   UNL d   1      57.605   0.485  31.023  0.00  0.00    -0.225 NA
ATOM      3  N   UNL d   1      57.441  -0.827  30.819  0.00  0.00    -0.225 NA
ATOM      4  C   UNL d   1      57.069   0.199  31.589  0.00  0.00     0.101 A 
ATOM      5  C   UNL d   1      56.969  -0.610  31.461  0.00  0.00     0.101 A 
ATOM      6  C   UNL d   1      56.660   0.577  32.204  0.00  0.00     0.021 A 
ATOM      7  C   UNL d   1      56.454  -1.041  31.956  0.00  0.00     0.021 A 
ATOM      8  C   UNL d   1      56.153   0.147  32.690  0.00  0.00     0.002 A 
ATOM      9  C   UNL d   1      56.050  -0.662  32.566  0.00  0.00     0.002 A 
ENDROOT
BRANCH   1  10
ATOM     10  C   UNL d   1      58.361  -0.117  29.916  0.00  0.00     0.065 A 
ATOM     11  S   UNL d   1      58.501  -0.537  29.345  0.00  0.00    -0.083 SA
ATOM     12  C   UNL d   1      59.016  -0.343  28.881  0.00  0.00     0.035 A 
ATOM     13  C   UNL d   1      59.391   0.260  28.978  0.00  0.00     0.008 A 
ATOM     14  C   UNL d   1      59.251   0.679  29.548  0.00  0.00     0.010 A 
ENDBRANCH   1  10
TORSDOF 1
ENDMDL
MODEL 4
REMARK VINA RESULT:      -3.7      1.087      3.731
REMARK  1 active torsions:
REMARK  status: ('A' for Active; 'I' for Inactive)
REMARK    1  A    between atoms: C_4  and  C_1 
ROOT
ATOM      1  C   UNL d   1      57.910  -0.090  30.659  0.00  0.00     0.168 A 
ATOM      2  N   UNL d   1      58.572   0.345  30.440  0.00  0.00    -0.225 NA
ATOM      3  N   UNL d   1      57.841  -0.733  30.137  0.00  0.00    -0.225 NA
ATOM      4  C   UNL d   1      58.917  -0.026  29.782  0.00  0.00     0.101 A 
ATOM      5  C   UNL d   1      58.464  -0.691  29.597  0.00  0.00     0.101 A 
ATOM      6  C   UNL d   1      59.587   0.161  29.330  0.00  0.00     0.021 A 
ATOM      7  C   UNL d   1      58.688  -1.170  28.952  0.00  0.00     0.021 A 
ATOM      8  C   UNL d   1      59.804  -0.316  28.694  0.00  0.00     0.002 A 
ATOM      9  C   UNL d   1      59.354  -0.982  28.505  0.00  0.00     0.002 A 
ENDROOT
BRANCH   1  10
ATOM     10  C   UNL d   1      57.400   0.076  31.284  0.00  0.00     0.065 A 
ATOM     11  S   UNL d   1      57.126   0.678  31.577  0.00  0.00    -0.083 SA
ATOM     12  C   UNL d   1      56.681   0.626  32.139  0.00  0.00     0.035 A 
ATOM     13  C   UNL d   1      56.506  -0.013  32.413  0.00  0.00     0.008 A 
ATOM     14  C   UNL d   1      56.779  -0.613  32.122  0.00  0.00     0.010 A 
ENDBRANCH   1  10
TORSDOF 1
ENDMDL
MODEL 5
REMARK VINA RESULT:      -3.0      2.563      4.374
REMARK  1 active torsions:
REMARK  status: ('A' for Active; 'I' for Inactive)
REMARK    1  A    between atoms: C_4  and  C_1 
ROOT
ATOM      1  C   UNL d   1      58.978  -1.241  29.250  0.00  0.00     0.168 A 
ATOM      2  N   UNL d   1      59.778  -1.422  29.191  0.00  0.00    -0.225 NA
ATOM      3  N   UNL d   1      58.547  -1.936  29.107  0.00  0.00    -0.225 NA
ATOM      4  C   UNL d   1      59.846  -2.229  29.011  0.00  0.00     0.101 A 
ATOM      5  C   UNL d   1      59.085  -2.544  28.959  0.00  0.00     0.101 A 
ATOM      6  C   UNL d   1      60.507  -2.715  28.887  0.00  0.00     0.021 A 
ATOM      7  C   UNL d   1      58.990  -3.354  28.782  0.00  0.00     0.021 A 
ATOM      8  C   UNL d   1      60.408  -3.513  28.713  0.00  0.00     0.002 A 
ATOM      9  C   UNL d   1      59.649  -3.833  28.660  0.00  0.00     0.002 A 
ENDROOT
BRANCH   1  10
ATOM     10  C   UNL d   1      58.655  -0.502  29.422  0.00  0.00     0.065 A 
ATOM     11  S   UNL d   1      58.598   0.127  29.071  0.00  0.00    -0.083 SA
ATOM     12  C   UNL d   1      58.271   0.682  29.391  0.00  0.00     0.035 A 
ATOM     13  C   UNL d   1      58.001   0.619  30.052  0.00  0.00     0.008 A 
ATOM     14  C   UNL d   1      58.058  -0.009  30.402  0.00  0.00     0.010 A 
ENDBRANCH   1  10
TORSDOF 1
ENDMDL
MODEL 6
REMARK VINA RESULT:      -2.9      2.517      3.753
REMARK  1 active torsions:
REMARK  status: ('A' for Active; 'I' for Inactive)
REMARK    1  A    between atoms: C_4  and  C_1 
ROOT
ATOM      1  C   UNL d   1      58.881  -1.895  29.227  0.00  0.00     0.168 A 
ATOM      2  N   UNL d   1      59.016  -1.162  28.880  0.00  0.00    -0.225 NA
ATOM      3  N   UNL d   1      58.421  -1.776  29.909  0.00  0.00    -0.225 NA
ATOM      4  C   UNL d   1      58.641  -0.585  29.346  0.00  0.00     0.101 A 
ATOM      5  C   UNL d   1      58.275  -0.966  29.979  0.00  0.00     0.101 A 
ATOM      6  C   UNL d   1      58.589   0.239  29.269  0.00  0.00     0.021 A 
ATOM      7  C   UNL d   1      57.854  -0.514  30.540  0.00  0.00     0.021 A 
ATOM      8  C   UNL d   1      58.172   0.681  29.825  0.00  0.00     0.002 A 
ATOM      9  C   UNL d   1      57.804   0.305  30.460  0.00  0.00     0.002 A 
ENDROOT
BRANCH   1  10
ATOM     10  C   UNL d   1      59.150  -2.623  28.951  0.00  0.00     0.065 A 
ATOM     11  S   UNL d   1      58.841  -3.208  28.660  0.00  0.00    -0.083 SA
ATOM     12  C   UNL d   1      59.251  -3.769  28.475  0.00  0.00     0.035 A 
ATOM     13  C   UNL d   1      59.961  -3.756  28.575  0.00  0.00     0.008 A 
ATOM     14  C   UNL d   1      60.270  -3.172  28.865  0.00  0.00     0.010 A 
ENDBRANCH   1  10
TORSDOF 1
ENDMDL
MODEL 7
REMARK VINA RESULT:      -2.6      9.799     10.035
REMARK  1 active torsions:
REMARK  status: ('A' for Active; 'I' for Inactive)
REMARK    1  A    between atoms: C_4  and  C_1 
ROOT
ATOM      1  C   UNL d   1      59.525  -9.389  33.715  0.00  0.00     0.168 A 
ATOM      2  N   UNL d   1      60.319  -9.263  33.888  0.00  0.00    -0.225 NA
ATOM      3  N   UNL d   1      59.096  -9.330  34.423  0.00  0.00    -0.225 NA
ATOM      4  C   UNL d   1      60.385  -9.125  34.704  0.00  0.00     0.101 A 
ATOM      5  C   UNL d   1      59.629  -9.167  35.032  0.00  0.00     0.101 A 
ATOM      6  C   UNL d   1      61.040  -8.967  35.188  0.00  0.00     0.021 A 
ATOM      7  C   UNL d   1      59.533  -9.049  35.853  0.00  0.00     0.021 A 
ATOM      8  C   UNL d   1      60.940  -8.851  35.997  0.00  0.00     0.002 A 
ATOM      9  C   UNL d   1      60.186  -8.893  36.329  0.00  0.00     0.002 A 
ENDROOT
BRANCH   1  10
ATOM     10  C   UNL d   1      59.206  -9.546  32.971  0.00  0.00     0.065 A 
ATOM     11  S   UNL d   1      59.475  -9.636  32.306  0.00  0.00    -0.083 SA
ATOM     12  C   UNL d   1      59.027  -9.771  31.760  0.00  0.00     0.035 A 
ATOM     13  C   UNL d   1      58.319  -9.818  31.866  0.00  0.00     0.008 A 
ATOM     14  C   UNL d   1      58.052  -9.728  32.530  0.00  0.00     0.010 A 
ENDBRANCH   1  10
TORSDOF 1
ENDMDL
MODEL 8
REMARK VINA RESULT:      -2.5      9.755     10.150
REMARK  1 active torsions:
REMARK  status: ('A' for Active; 'I' for Inactive)
REMARK    1  A    between atoms: C_4  and  C_1 
ROOT
ATOM      1  C   UNL d   1      59.228  -9.684  32.938  0.00  0.00     0.168 A 
ATOM      2  N   UNL d   1      58.406  -9.665  32.946  0.00  0.00    -0.225 NA
ATOM      3  N   UNL d   1      59.475  -9.741  32.147  0.00  0.00    -0.225 NA
ATOM      4  C   UNL d   1      58.140  -9.711  32.160  0.00  0.00     0.101 A 
ATOM      5  C   UNL d   1      58.802  -9.758  31.669  0.00  0.00     0.101 A 
ATOM      6  C   UNL d   1      57.378  -9.715  31.833  0.00  0.00     0.021 A 
ATOM      7  C   UNL d   1      58.695  -9.809  30.843  0.00  0.00     0.021 A 
ATOM      8  C   UNL d   1      57.277  -9.767  31.017  0.00  0.00     0.002 A 
ATOM      9  C   UNL d   1      57.936  -9.814  30.523  0.00  0.00     0.002 A 
ENDROOT
BRANCH   1  10
ATOM     10  C   UNL d   1      59.724  -9.652  33.595  0.00  0.00     0.065 A 
ATOM     11  S   UNL d   1      59.659  -9.816  34.295  0.00  0.00    -0.083 SA
ATOM     12  C   UNL d   1      60.220  -9.718  34.735  0.00  0.00     0.035 A 
ATOM     13  C   UNL d   1      60.842  -9.461  34.487  0.00  0.00     0.008 A 
ATOM     14  C   UNL d   1      60.907  -9.298  33.788  0.00  0.00     0.010 A 
ENDBRANCH   1  10
TORSDOF 1
ENDMDL
