MODEL 1
REMARK VINA RESULT:      51.6      0.000      0.000
REMARK  5 active torsions:
REMARK  status: ('A' for Active; 'I' for Inactive)
REMARK    1  A    between atoms: N_2  and  C_1 
REMARK    2  A    between atoms: C_4  and  C_8 
REMARK       I    between atoms: N_7  and  C_4 
REMARK    3  A    between atoms: C_9  and  C_6 
REMARK    4  A    between atoms: C_14  and  N_7 
REMARK    5  A    between atoms: C_8  and  C_9 
ROOT
ATOM      1  C   UNL d   1     -48.987  27.685  34.188  0.00  0.00     0.265 C 
ATOM      2  N   UNL d   1     -49.743  27.550  33.934  0.00  0.00    -0.272 N 
ATOM      3  O   UNL d   1     -48.422  27.087  34.251  0.00  0.00    -0.267 OA
ATOM      4  C   UNL d   1     -50.288  28.159  33.879  0.00  0.00     0.102 C 
ENDROOT
BRANCH   1   5
ATOM      5  C   UNL d   1     -48.771  28.455  34.394  0.00  0.00     0.062 C 
BRANCH   5   6
ATOM      6  C   UNL d   1     -48.240  28.565  35.041  0.00  0.00     0.011 C 
BRANCH   6   7
ATOM      7  C   UNL d   1     -47.913  29.339  35.211  0.00  0.00     0.031 A 
ATOM      8  S   UNL d   1     -48.022  30.018  34.774  0.00  0.00    -0.064 SA
ATOM      9  C   UNL d   1     -47.611  30.646  35.128  0.00  0.00     0.156 A 
ATOM     10  C   UNL d   1     -47.243  30.324  35.804  0.00  0.00     0.031 A 
ATOM     11  C   UNL d   1     -47.429  29.550  35.842  0.00  0.00     0.009 A 
BRANCH   9  12
ATOM     12  N   UNL d   1     -47.561  31.434  34.881  0.00  0.00    -0.107 N 
ATOM     13  O   UNL d   1     -48.260  31.937  34.868  0.00  0.00    -0.531 OA
ATOM     14  O   UNL d   1     -46.837  31.811  34.625  0.00  0.00    -0.531 OA
ENDBRANCH   9  12
ENDBRANCH   6   7
ENDBRANCH   5   6
ENDBRANCH   1   5
BRANCH   2  15
ATOM     15  C   UNL d   1     -49.970  26.785  33.726  0.00  0.00     0.067 A 
ATOM     16  C   UNL d   1     -49.429  26.181  33.729  0.00  0.00     0.018 A 
ATOM     17  C   UNL d   1     -49.684  25.429  33.518  0.00  0.00     0.002 A 
ATOM     18  C   UNL d   1     -50.465  25.277  33.306  0.00  0.00     0.000 A 
ATOM     19  C   UNL d   1     -51.002  25.926  33.312  0.00  0.00     0.002 A 
ATOM     20  C   UNL d   1     -50.764  26.663  33.517  0.00  0.00     0.018 A 
ENDBRANCH   2  15
TORSDOF 5
ENDMDL
