MODEL 1
REMARK VINA RESULT:      -3.9      0.000      0.000
REMARK  3 active torsions:
REMARK  status: ('A' for Active; 'I' for Inactive)
REMARK    1  A    between atoms: S_2  and  N_1 
REMARK    2  A    between atoms: C_8  and  S_2 
REMARK       I    between atoms: C_14  and  N_15 
REMARK    3  A    between atoms: N_15  and  C_19 
ROOT
ATOM      1  S   UNL d   1      58.418   0.169  30.248  0.00  0.00     0.273 S 
ATOM      2  O   UNL d   1      57.622   0.270  30.056  0.00  0.00    -0.200 OA
ATOM      3  O   UNL d   1      58.657   0.198  31.034  0.00  0.00    -0.200 OA
ENDROOT
BRANCH   1   4
ATOM      4  N   UNL d   1      58.977   0.040  29.659  0.00  0.00    -0.212 N 
ATOM      5  C   UNL d   1      59.105  -0.719  29.362  0.00  0.00     0.094 A 
ATOM      6  C   UNL d   1      59.669  -0.841  28.769  0.00  0.00     0.100 A 
ATOM      7  C   UNL d   1      58.671  -1.361  29.655  0.00  0.00     0.020 A 
ATOM      8  C   UNL d   1      59.802  -1.605  28.467  0.00  0.00     0.021 A 
ATOM      9  N   UNL d   1      59.982   0.558  28.767  0.00  0.00    -0.223 NA
ATOM     10  C   UNL d   1      59.361  -2.251  28.766  0.00  0.00     0.002 A 
ATOM     11  C   UNL d   1      58.799  -2.120  29.358  0.00  0.00     0.002 A 
ATOM     12  C   UNL d   1      59.486  -3.005  28.473  0.00  0.00     0.000 C 
ATOM     13  C   UNL d   1      58.361  -2.749  29.657  0.00  0.00     0.000 C 
ATOM     14  C   UNL d   1      59.415   0.681  29.362  0.00  0.00     0.193 A 
ENDBRANCH   1   4
BRANCH   1  15
ATOM     15  C   UNL d   1      57.870   0.298  30.849  0.00  0.00     0.104 A 
ATOM     16  C   UNL d   1      57.076   0.395  30.671  0.00  0.00     0.014 A 
ATOM     17  C   UNL d   1      56.531   0.523  31.274  0.00  0.00     0.020 A 
ATOM     18  C   UNL d   1      56.786   0.554  32.061  0.00  0.00     0.085 A 
ATOM     19  C   UNL d   1      57.586   0.455  32.232  0.00  0.00     0.020 A 
ATOM     20  C   UNL d   1      58.130   0.328  31.635  0.00  0.00     0.014 A 
BRANCH  18  21
ATOM     21  N   UNL d   1      56.237   0.682  32.655  0.00  0.00    -0.208 NA
ATOM     22  C   UNL d   1      55.870   0.037  33.012  0.00  0.00     0.279 C 
ATOM     23  O   UNL d   1      55.316   0.153  33.611  0.00  0.00    -0.265 OA
ATOM     24  C   UNL d   1      56.052  -0.731  32.775  0.00  0.00     0.068 C 
ENDBRANCH  18  21
ENDBRANCH   1  15
TORSDOF 3
ENDMDL
MODEL 2
REMARK VINA RESULT:      -3.0      1.521      1.741
REMARK  3 active torsions:
REMARK  status: ('A' for Active; 'I' for Inactive)
REMARK    1  A    between atoms: S_2  and  N_1 
REMARK    2  A    between atoms: C_8  and  S_2 
REMARK       I    between atoms: C_14  and  N_15 
REMARK    3  A    between atoms: N_15  and  C_19 
ROOT
ATOM      1  S   UNL d   1      57.629   0.134  30.579  0.00  0.00     0.273 S 
ATOM      2  O   UNL d   1      57.758   0.682  31.183  0.00  0.00    -0.200 OA
ATOM      3  O   UNL d   1      57.207  -0.554  30.733  0.00  0.00    -0.200 OA
ENDROOT
BRANCH   1   4
ATOM      4  N   UNL d   1      57.922   0.270  29.822  0.00  0.00    -0.212 N 
ATOM      5  C   UNL d   1      58.723   0.161  29.656  0.00  0.00     0.094 A 
ATOM      6  C   UNL d   1      59.009   0.300  28.893  0.00  0.00     0.100 A 
ATOM      7  C   UNL d   1      59.242  -0.087  30.252  0.00  0.00     0.020 A 
ATOM      8  C   UNL d   1      59.816   0.191  28.721  0.00  0.00     0.021 A 
ATOM      9  N   UNL d   1      57.691   0.659  28.455  0.00  0.00    -0.223 NA
ATOM     10  C   UNL d   1      60.338  -0.060  29.325  0.00  0.00     0.002 A 
ATOM     11  C   UNL d   1      60.043  -0.197  30.086  0.00  0.00     0.002 A 
ATOM     12  C   UNL d   1      61.133  -0.169  29.163  0.00  0.00     0.000 C 
ATOM     13  C   UNL d   1      60.549  -0.443  30.686  0.00  0.00     0.000 C 
ATOM     14  C   UNL d   1      57.403   0.519  29.222  0.00  0.00     0.193 A 
ENDBRANCH   1   4
BRANCH   1  15
ATOM     15  C   UNL d   1      57.331  -0.016  31.332  0.00  0.00     0.104 A 
ATOM     16  C   UNL d   1      56.968  -0.732  31.498  0.00  0.00     0.014 A 
ATOM     17  C   UNL d   1      56.671  -0.878  32.251  0.00  0.00     0.020 A 
ATOM     18  C   UNL d   1      56.739  -0.302  32.841  0.00  0.00     0.085 A 
ATOM     19  C   UNL d   1      57.106   0.415  32.666  0.00  0.00     0.020 A 
ATOM     20  C   UNL d   1      57.402   0.564  31.919  0.00  0.00     0.014 A 
BRANCH  18  21
ATOM     21  N   UNL d   1      56.441  -0.456  33.588  0.00  0.00    -0.208 NA
ATOM     22  C   UNL d   1      55.821   0.002  33.878  0.00  0.00     0.279 C 
ATOM     23  O   UNL d   1      55.512  -0.143  34.627  0.00  0.00    -0.265 OA
ATOM     24  C   UNL d   1      55.502   0.610  33.422  0.00  0.00     0.068 C 
ENDBRANCH  18  21
ENDBRANCH   1  15
TORSDOF 3
ENDMDL
