MODEL 1
REMARK VINA RESULT:      -4.1      0.000      0.000
REMARK  4 active torsions:
REMARK  status: ('A' for Active; 'I' for Inactive)
REMARK    1  A    between atoms: C_2  and  C_1 
REMARK    2  A    between atoms: C_4  and  C_3 
REMARK       I    between atoms: N_6  and  C_4 
REMARK    3  A    between atoms: C_5  and  C_10 
REMARK       I    between atoms: N_9  and  C_5 
REMARK    4  A    between atoms: C_10  and  N_6 
ROOT
ATOM      1  C   UNL d   1     -42.007-122.478 -54.084  0.00  0.00     0.076 A 
ATOM      2  C   UNL d   1     -41.561-122.460 -53.383  0.00  0.00     0.062 A 
ATOM      3  C   UNL d   1     -42.011-123.153 -54.547  0.00  0.00     0.004 A 
ATOM      4  C   UNL d   1     -41.122-123.130 -53.161  0.00  0.00     0.005 A 
ATOM      5  C   UNL d   1     -41.133-123.814 -53.641  0.00  0.00     0.000 A 
ATOM      6  C   UNL d   1     -41.578-123.815 -54.328  0.00  0.00    -0.000 A 
ENDROOT
BRANCH   2   7
ATOM      7  C   UNL d   1     -41.551-121.784 -52.910  0.00  0.00     0.279 C 
ATOM      8  N   UNL d   1     -41.776-121.833 -52.117  0.00  0.00    -0.201 NA
ATOM      9  O   UNL d   1     -41.315-121.063 -53.237  0.00  0.00    -0.265 OA
BRANCH   8  10
ATOM     10  C   UNL d   1     -42.011-122.557 -51.794  0.00  0.00     0.166 C 
BRANCH  10  11
ATOM     11  C   UNL d   1     -42.287-122.591 -51.020  0.00  0.00     0.318 C 
ATOM     12  O   UNL d   1     -42.776-121.996 -50.735  0.00  0.00    -0.262 OA
ATOM     13  N   UNL d   1     -42.073-123.225 -50.532  0.00  0.00    -0.083 NA
ATOM     14  N   UNL d   1     -42.350-123.259 -49.759  0.00  0.00    -0.019 N 
ENDBRANCH  10  11
ENDBRANCH   8  10
ENDBRANCH   2   7
BRANCH   1  15
ATOM     15  C   UNL d   1     -42.446-121.808 -54.306  0.00  0.00     0.419 C 
ATOM     16  F   UNL d   1     -42.846-121.197 -54.508  0.00  0.00    -0.166 F 
ATOM     17  F   UNL d   1     -43.267-121.611 -54.107  0.00  0.00    -0.166 F 
ATOM     18  F   UNL d   1     -42.209-121.143 -54.783  0.00  0.00    -0.166 F 
ENDBRANCH   1  15
TORSDOF 4
ENDMDL
MODEL 2
REMARK VINA RESULT:      -2.8      2.163      3.615
REMARK  4 active torsions:
REMARK  status: ('A' for Active; 'I' for Inactive)
REMARK    1  A    between atoms: C_2  and  C_1 
REMARK    2  A    between atoms: C_4  and  C_3 
REMARK       I    between atoms: N_6  and  C_4 
REMARK    3  A    between atoms: C_5  and  C_10 
REMARK       I    between atoms: N_9  and  C_5 
REMARK    4  A    between atoms: C_10  and  N_6 
ROOT
ATOM      1  C   UNL d   1     -42.561-122.799 -49.956  0.00  0.00     0.076 A 
ATOM      2  C   UNL d   1     -41.917-122.575 -50.431  0.00  0.00     0.062 A 
ATOM      3  C   UNL d   1     -42.480-123.415 -49.423  0.00  0.00     0.004 A 
ATOM      4  C   UNL d   1     -41.196-122.981 -50.359  0.00  0.00     0.005 A 
ATOM      5  C   UNL d   1     -41.123-123.609 -49.812  0.00  0.00     0.000 A 
ATOM      6  C   UNL d   1     -41.767-123.816 -49.351  0.00  0.00    -0.000 A 
ENDROOT
BRANCH   2   7
ATOM      7  C   UNL d   1     -41.990-121.955 -50.971  0.00  0.00     0.279 C 
ATOM      8  N   UNL d   1     -41.832-122.085 -51.771  0.00  0.00    -0.201 NA
ATOM      9  O   UNL d   1     -42.221-121.209 -50.703  0.00  0.00    -0.265 OA
BRANCH   8  10
ATOM     10  C   UNL d   1     -41.601-122.833 -52.034  0.00  0.00     0.166 C 
BRANCH  10  11
ATOM     11  C   UNL d   1     -41.511-122.975 -52.840  0.00  0.00     0.318 C 
ATOM     12  O   UNL d   1     -41.123-122.425 -53.309  0.00  0.00    -0.262 OA
ATOM     13  N   UNL d   1     -41.810-123.671 -53.172  0.00  0.00    -0.083 NA
ATOM     14  N   UNL d   1     -41.719-123.814 -53.977  0.00  0.00    -0.019 N 
ENDBRANCH  10  11
ENDBRANCH   8  10
ENDBRANCH   2   7
BRANCH   1  15
ATOM     15  C   UNL d   1     -43.282-122.392 -50.028  0.00  0.00     0.419 C 
ATOM     16  F   UNL d   1     -43.940-122.022 -50.093  0.00  0.00    -0.166 F 
ATOM     17  F   UNL d   1     -43.883-122.468 -50.649  0.00  0.00    -0.166 F 
ATOM     18  F   UNL d   1     -43.621-121.800 -49.517  0.00  0.00    -0.166 F 
ENDBRANCH   1  15
TORSDOF 4
ENDMDL
MODEL 3
REMARK VINA RESULT:      -1.9      2.837      3.619
REMARK  4 active torsions:
REMARK  status: ('A' for Active; 'I' for Inactive)
REMARK    1  A    between atoms: C_2  and  C_1 
REMARK    2  A    between atoms: C_4  and  C_3 
REMARK       I    between atoms: N_6  and  C_4 
REMARK    3  A    between atoms: C_5  and  C_10 
REMARK       I    between atoms: N_9  and  C_5 
REMARK    4  A    between atoms: C_10  and  N_6 
ROOT
ATOM      1  C   UNL d   1     -42.433-122.590 -50.676  0.00  0.00     0.076 A 
ATOM      2  C   UNL d   1     -42.396-123.316 -50.274  0.00  0.00     0.062 A 
ATOM      3  C   UNL d   1     -41.825-122.370 -51.178  0.00  0.00     0.004 A 
ATOM      4  C   UNL d   1     -41.740-123.813 -50.389  0.00  0.00     0.005 A 
ATOM      5  C   UNL d   1     -41.124-123.580 -50.904  0.00  0.00     0.000 A 
ATOM      6  C   UNL d   1     -41.177-122.860 -51.292  0.00  0.00    -0.000 A 
ENDROOT
BRANCH   2   7
ATOM      7  C   UNL d   1     -43.004-123.546 -49.766  0.00  0.00     0.279 C 
ATOM      8  N   UNL d   1     -42.860-123.614 -48.956  0.00  0.00    -0.201 NA
ATOM      9  O   UNL d   1     -43.753-123.705 -50.075  0.00  0.00    -0.265 OA
BRANCH   8  10
ATOM     10  C   UNL d   1     -42.109-123.454 -48.651  0.00  0.00     0.166 C 
BRANCH  10  11
ATOM     11  C   UNL d   1     -41.989-123.441 -47.837  0.00  0.00     0.318 C 
ATOM     12  O   UNL d   1     -42.614-123.257 -47.337  0.00  0.00    -0.262 OA
ATOM     13  N   UNL d   1     -41.242-123.614 -47.526  0.00  0.00    -0.083 NA
ATOM     14  N   UNL d   1     -41.123-123.601 -46.713  0.00  0.00    -0.019 N 
ENDBRANCH  10  11
ENDBRANCH   8  10
ENDBRANCH   2   7
BRANCH   1  15
ATOM     15  C   UNL d   1     -43.089-122.093 -50.561  0.00  0.00     0.419 C 
ATOM     16  F   UNL d   1     -43.688-121.640 -50.457  0.00  0.00    -0.166 F 
ATOM     17  F   UNL d   1     -43.262-121.574 -49.887  0.00  0.00    -0.166 F 
ATOM     18  F   UNL d   1     -43.761-121.962 -51.069  0.00  0.00    -0.166 F 
ENDBRANCH   1  15
TORSDOF 4
ENDMDL
