MODEL 1
REMARK VINA RESULT:      -4.9      0.000      0.000
REMARK  5 active torsions:
REMARK  status: ('A' for Active; 'I' for Inactive)
REMARK    1  A    between atoms: C_2  and  C_1 
REMARK    2  A    between atoms: N_13  and  C_7 
REMARK    3  A    between atoms: C_12  and  C_21 
REMARK    4  A    between atoms: C_21  and  N_13 
REMARK    5  A    between atoms: O_24  and  C_22 
ROOT
ATOM      1  C   UNL d   1      59.059  -0.547  29.614  0.00  0.00     0.089 A 
ATOM      2  C   UNL d   1      59.760  -0.130  29.507  0.00  0.00     0.302 A 
ATOM      3  C   UNL d   1      59.023  -1.353  29.423  0.00  0.00     0.009 A 
ATOM      4  O   UNL d   1      60.429  -0.518  29.209  0.00  0.00    -0.273 OA
ATOM      5  C   UNL d   1      59.692  -1.737  29.127  0.00  0.00     0.025 A 
ATOM      6  C   UNL d   1      60.393  -1.320  29.020  0.00  0.00     0.103 A 
ATOM      7  O   UNL d   1      59.807   0.680  29.695  0.00  0.00    -0.259 OA
ATOM      8  C   UNL d   1      59.652  -2.535  28.940  0.00  0.00     0.026 A 
ATOM      9  C   UNL d   1      61.057  -1.700  28.726  0.00  0.00     0.027 A 
ATOM     10  C   UNL d   1      60.328  -2.916  28.642  0.00  0.00     0.094 A 
ATOM     11  C   UNL d   1      61.022  -2.503  28.536  0.00  0.00     0.026 A 
ENDROOT
BRANCH   1  12
ATOM     12  C   UNL d   1      58.390  -0.162  29.911  0.00  0.00     0.140 A 
ATOM     13  S   UNL d   1      58.079  -0.193  30.679  0.00  0.00    -0.026 SA
ATOM     14  C   UNL d   1      57.409   0.285  30.697  0.00  0.00     0.216 A 
ATOM     15  N   UNL d   1      57.311   0.608  29.945  0.00  0.00    -0.121 NA
ATOM     16  N   UNL d   1      57.916   0.331  29.464  0.00  0.00    -0.139 NA
BRANCH  14  17
ATOM     17  N   UNL d   1      56.919   0.423  31.349  0.00  0.00    -0.216 NA
BRANCH  17  18
ATOM     18  C   UNL d   1      56.733  -0.200  31.859  0.00  0.00     0.126 C 
BRANCH  18  19
ATOM     19  C   UNL d   1      56.183  -0.085  32.470  0.00  0.00     0.119 A 
ATOM     20  O   UNL d   1      55.833   0.589  32.791  0.00  0.00    -0.304 OA
ATOM     21  C   UNL d   1      55.328   0.357  33.390  0.00  0.00     0.123 A 
ATOM     22  C   UNL d   1      55.357  -0.452  33.449  0.00  0.00     0.029 A 
ATOM     23  C   UNL d   1      55.889  -0.738  32.878  0.00  0.00     0.028 A 
ENDBRANCH  18  19
ENDBRANCH  17  18
ENDBRANCH  14  17
ENDBRANCH   1  12
BRANCH  10  24
ATOM     24  O   UNL d   1      60.281  -3.719  28.456  0.00  0.00    -0.328 OA
ATOM     25  C   UNL d   1      60.894  -4.237  28.660  0.00  0.00     0.181 C 
ENDBRANCH  10  24
TORSDOF 5
ENDMDL
MODEL 2
REMARK VINA RESULT:      -4.4      1.476      5.782
REMARK  5 active torsions:
REMARK  status: ('A' for Active; 'I' for Inactive)
REMARK    1  A    between atoms: C_2  and  C_1 
REMARK    2  A    between atoms: N_13  and  C_7 
REMARK    3  A    between atoms: C_12  and  C_21 
REMARK    4  A    between atoms: C_21  and  N_13 
REMARK    5  A    between atoms: O_24  and  C_22 
ROOT
ATOM      1  C   UNL d   1      56.742  -0.284  31.909  0.00  0.00     0.089 A 
ATOM      2  C   UNL d   1      56.610  -1.094  31.973  0.00  0.00     0.302 A 
ATOM      3  C   UNL d   1      56.406   0.235  32.462  0.00  0.00     0.009 A 
ATOM      4  O   UNL d   1      56.142  -1.387  32.591  0.00  0.00    -0.273 OA
ATOM      5  C   UNL d   1      55.940  -0.061  33.076  0.00  0.00     0.025 A 
ATOM      6  C   UNL d   1      55.809  -0.871  33.140  0.00  0.00     0.103 A 
ATOM      7  O   UNL d   1      56.943  -1.624  31.424  0.00  0.00    -0.259 OA
ATOM      8  C   UNL d   1      55.610   0.457  33.620  0.00  0.00     0.026 A 
ATOM      9  C   UNL d   1      55.346  -1.166  33.750  0.00  0.00     0.027 A 
ATOM     10  C   UNL d   1      55.142   0.153  34.236  0.00  0.00     0.094 A 
ATOM     11  C   UNL d   1      55.012  -0.649  34.300  0.00  0.00     0.026 A 
ENDROOT
BRANCH   1  12
ATOM     12  C   UNL d   1      57.208   0.012  31.294  0.00  0.00     0.140 A 
ATOM     13  S   UNL d   1      58.014  -0.123  31.151  0.00  0.00    -0.026 SA
ATOM     14  C   UNL d   1      58.220   0.294  30.472  0.00  0.00     0.216 A 
ATOM     15  N   UNL d   1      57.545   0.682  30.200  0.00  0.00    -0.121 NA
ATOM     16  N   UNL d   1      56.925   0.506  30.708  0.00  0.00    -0.139 NA
BRANCH  14  17
ATOM     17  N   UNL d   1      58.968   0.324  30.119  0.00  0.00    -0.216 NA
BRANCH  17  18
ATOM     18  C   UNL d   1      59.077   0.007  29.364  0.00  0.00     0.126 C 
BRANCH  18  19
ATOM     19  C   UNL d   1      59.844  -0.094  29.063  0.00  0.00     0.119 A 
ATOM     20  O   UNL d   1      60.487   0.416  28.984  0.00  0.00    -0.304 OA
ATOM     21  C   UNL d   1      61.105   0.002  28.644  0.00  0.00     0.123 A 
ATOM     22  C   UNL d   1      60.856  -0.760  28.510  0.00  0.00     0.029 A 
ATOM     23  C   UNL d   1      60.069  -0.829  28.768  0.00  0.00     0.028 A 
ENDBRANCH  18  19
ENDBRANCH  17  18
ENDBRANCH  14  17
ENDBRANCH   1  12
BRANCH  10  24
ATOM     24  O   UNL d   1      54.813   0.678  34.781  0.00  0.00    -0.328 OA
ATOM     25  C   UNL d   1      55.051   0.672  35.573  0.00  0.00     0.181 C 
ENDBRANCH  10  24
TORSDOF 5
ENDMDL
