MODEL 1
REMARK VINA RESULT:      -2.6      0.000      0.000
REMARK  5 active torsions:
REMARK  status: ('A' for Active; 'I' for Inactive)
REMARK    1  A    between atoms: C_16  and  N_5 
REMARK    2  A    between atoms: S_12  and  C_6 
REMARK    3  A    between atoms: C_10  and  C_14 
REMARK       I    between atoms: N_11  and  C_10 
REMARK    4  A    between atoms: C_14  and  S_12 
REMARK    5  A    between atoms: C_18  and  C_16 
ROOT
ATOM      1  C   UNL d   1      33.163  22.382 -21.377  0.00  0.00     0.081 A 
ATOM      2  C   UNL d   1      33.180  21.562 -21.293  0.00  0.00     0.117 A 
ATOM      3  N   UNL d   1      33.206  21.079 -21.947  0.00  0.00    -0.215 NA
ATOM      4  C   UNL d   1      33.172  22.716 -22.126  0.00  0.00     0.268 A 
ATOM      5  N   UNL d   1      33.197  22.233 -22.788  0.00  0.00    -0.253 N 
ATOM      6  C   UNL d   1      33.215  21.395 -22.721  0.00  0.00     0.182 A 
ATOM      7  S   UNL d   1      33.166  21.393 -20.455  0.00  0.00    -0.068 SA
ATOM      8  C   UNL d   1      33.139  22.702 -20.614  0.00  0.00     0.013 A 
ATOM      9  C   UNL d   1      33.142  22.079 -20.072  0.00  0.00     0.031 A 
ATOM     10  O   UNL d   1      33.156  23.536 -22.249  0.00  0.00    -0.267 OA
ATOM     11  C   UNL d   1      33.115  23.488 -20.347  0.00  0.00     0.001 A 
ATOM     12  C   UNL d   1      33.120  22.249 -19.264  0.00  0.00     0.006 A 
ATOM     13  C   UNL d   1      33.094  23.630 -19.542  0.00  0.00     0.000 A 
ATOM     14  C   UNL d   1      33.097  23.029 -19.012  0.00  0.00     0.001 A 
ENDROOT
BRANCH   6  15
ATOM     15  S   UNL d   1      33.241  20.912 -23.382  0.00  0.00    -0.044 SA
BRANCH  15  16
ATOM     16  C   UNL d   1      33.223  20.097 -23.294  0.00  0.00     0.099 C 
BRANCH  16  17
ATOM     17  C   UNL d   1      33.107  19.621 -23.963  0.00  0.00     0.272 C 
ATOM     18  N   UNL d   1      32.901  18.822 -23.928  0.00  0.00    -0.267 N 
ATOM     19  C   UNL d   1      32.797  18.389 -24.612  0.00  0.00     0.110 A 
ATOM     20  C   UNL d   1      32.800  18.453 -23.195  0.00  0.00     0.110 A 
ATOM     21  C   UNL d   1      32.586  17.570 -24.612  0.00  0.00     0.142 A 
ATOM     22  O   UNL d   1      32.487  17.211 -23.874  0.00  0.00    -0.300 OA
ATOM     23  C   UNL d   1      32.595  17.659 -23.146  0.00  0.00     0.142 A 
ATOM     24  O   UNL d   1      33.223  20.047 -24.677  0.00  0.00    -0.266 OA
ENDBRANCH  16  17
ENDBRANCH  15  16
ENDBRANCH   6  15
BRANCH   5  25
ATOM     25  C   UNL d   1      33.207  22.571 -23.565  0.00  0.00     0.085 C 
BRANCH  25  26
ATOM     26  C   UNL d   1      32.870  23.329 -23.732  0.00  0.00     0.019 C 
ATOM     27  C   UNL d   1      32.901  23.666 -24.482  0.00  0.00     0.002 C 
ENDBRANCH  25  26
ENDBRANCH   5  25
TORSDOF 5
ENDMDL
MODEL 2
REMARK VINA RESULT:      -1.5      1.164      4.730
REMARK  5 active torsions:
REMARK  status: ('A' for Active; 'I' for Inactive)
REMARK    1  A    between atoms: C_16  and  N_5 
REMARK    2  A    between atoms: S_12  and  C_6 
REMARK    3  A    between atoms: C_10  and  C_14 
REMARK       I    between atoms: N_11  and  C_10 
REMARK    4  A    between atoms: C_14  and  S_12 
REMARK    5  A    between atoms: C_18  and  C_16 
ROOT
ATOM      1  C   UNL d   1      33.167  19.531 -23.474  0.00  0.00     0.081 A 
ATOM      2  C   UNL d   1      33.165  19.636 -22.656  0.00  0.00     0.117 A 
ATOM      3  N   UNL d   1      33.188  20.383 -22.334  0.00  0.00    -0.215 NA
ATOM      4  C   UNL d   1      33.192  20.184 -23.969  0.00  0.00     0.268 A 
ATOM      5  N   UNL d   1      33.215  20.938 -23.649  0.00  0.00    -0.253 N 
ATOM      6  C   UNL d   1      33.214  21.064 -22.817  0.00  0.00     0.182 A 
ATOM      7  S   UNL d   1      33.137  18.859 -22.301  0.00  0.00    -0.068 SA
ATOM      8  C   UNL d   1      33.141  18.715 -23.611  0.00  0.00     0.013 A 
ATOM      9  C   UNL d   1      33.124  18.330 -22.882  0.00  0.00     0.031 A 
ATOM     10  O   UNL d   1      33.195  20.116 -24.796  0.00  0.00    -0.267 OA
ATOM     11  C   UNL d   1      33.131  18.277 -24.316  0.00  0.00     0.001 A 
ATOM     12  C   UNL d   1      33.096  17.504 -22.863  0.00  0.00     0.006 A 
ATOM     13  C   UNL d   1      33.104  17.461 -24.271  0.00  0.00     0.000 A 
ATOM     14  C   UNL d   1      33.087  17.082 -23.566  0.00  0.00     0.001 A 
ENDROOT
BRANCH   6  15
ATOM     15  S   UNL d   1      33.236  21.818 -22.498  0.00  0.00    -0.044 SA
BRANCH  15  16
ATOM     16  C   UNL d   1      33.241  21.917 -21.684  0.00  0.00     0.099 C 
BRANCH  16  17
ATOM     17  C   UNL d   1      33.016  22.648 -21.365  0.00  0.00     0.272 C 
ATOM     18  N   UNL d   1      32.903  22.782 -20.557  0.00  0.00    -0.267 N 
ATOM     19  C   UNL d   1      32.681  23.518 -20.285  0.00  0.00     0.110 A 
ATOM     20  C   UNL d   1      33.013  22.166 -20.017  0.00  0.00     0.110 A 
ATOM     21  C   UNL d   1      32.557  23.689 -19.466  0.00  0.00     0.142 A 
ATOM     22  O   UNL d   1      32.669  23.067 -18.934  0.00  0.00    -0.300 OA
ATOM     23  C   UNL d   1      32.903  22.284 -19.211  0.00  0.00     0.142 A 
ATOM     24  O   UNL d   1      32.919  23.235 -21.958  0.00  0.00    -0.266 OA
ENDBRANCH  16  17
ENDBRANCH  15  16
ENDBRANCH   6  15
BRANCH   5  25
ATOM     25  C   UNL d   1      33.240  21.618 -24.155  0.00  0.00     0.085 C 
BRANCH  25  26
ATOM     26  C   UNL d   1      32.641  21.777 -24.730  0.00  0.00     0.019 C 
ATOM     27  C   UNL d   1      32.546  22.519 -25.071  0.00  0.00     0.002 C 
ENDBRANCH  25  26
ENDBRANCH   5  25
TORSDOF 5
ENDMDL
