MODEL 1
REMARK VINA RESULT:      91.7      0.000      0.000
REMARK  3 active torsions:
REMARK  status: ('A' for Active; 'I' for Inactive)
REMARK       I    between atoms: C_6  and  N_1 
REMARK    1  A    between atoms: C_11  and  C_5 
REMARK    2  A    between atoms: C_12  and  C_6 
REMARK    3  A    between atoms: C_14  and  C_15 
ROOT
ATOM      1  N   UNL d   1      45.118 -15.711  37.686  0.00  0.00    -0.264 N 
ATOM      2  C   UNL d   1      45.066 -15.099  37.130  0.00  0.00     0.198 A 
ATOM      3  C   UNL d   1      44.427 -16.142  37.655  0.00  0.00     0.138 A 
ATOM      4  N   UNL d   1      44.343 -15.153  36.757  0.00  0.00    -0.243 NA
ATOM      5  C   UNL d   1      43.943 -15.800  37.081  0.00  0.00     0.105 A 
ATOM      6  C   UNL d   1      45.755 -15.878  38.199  0.00  0.00     0.263 C 
ATOM      7  C   UNL d   1      44.860 -14.558  36.546  0.00  0.00     0.041 A 
ATOM      8  C   UNL d   1      45.796 -15.041  37.504  0.00  0.00     0.041 A 
ATOM      9  S   UNL d   1      44.245 -16.805  38.118  0.00  0.00    -0.058 SA
ATOM     10  N   UNL d   1      46.121 -13.893  36.707  0.00  0.00    -0.302 N 
ATOM     11  O   UNL d   1      46.429 -15.407  38.186  0.00  0.00    -0.267 OA
ATOM     12  C   UNL d   1      46.326 -14.435  37.292  0.00  0.00     0.080 A 
ATOM     13  C   UNL d   1      45.390 -13.952  36.333  0.00  0.00     0.080 A 
ATOM     14  C   UNL d   1      46.646 -13.293  36.497  0.00  0.00     0.100 C 
ENDROOT
BRANCH   6  15
ATOM     15  C   UNL d   1      45.705 -16.512  38.714  0.00  0.00     0.056 A 
ATOM     16  C   UNL d   1      44.987 -16.893  38.832  0.00  0.00     0.004 A 
ATOM     17  C   UNL d   1      44.940 -17.529  39.350  0.00  0.00    -0.004 A 
ATOM     18  C   UNL d   1      45.614 -17.785  39.752  0.00  0.00    -0.023 A 
ATOM     19  C   UNL d   1      46.332 -17.403  39.633  0.00  0.00    -0.004 A 
ATOM     20  C   UNL d   1      46.377 -16.765  39.113  0.00  0.00     0.004 A 
BRANCH  18  21
ATOM     21  C   UNL d   1      45.567 -18.426  40.273  0.00  0.00     0.019 C 
ATOM     22  C   UNL d   1      46.319 -18.677  40.028  0.00  0.00     0.004 C 
ATOM     23  C   UNL d   1      44.825 -18.178  40.515  0.00  0.00     0.004 C 
ATOM     24  C   UNL d   1      45.522 -19.069  40.795  0.00  0.00     0.004 C 
ENDBRANCH  18  21
ENDBRANCH   6  15
BRANCH   5  25
ATOM     25  C   UNL d   1      43.198 -16.088  36.896  0.00  0.00     0.020 A 
ATOM     26  C   UNL d   1      42.522 -15.647  37.081  0.00  0.00     0.004 A 
ATOM     27  C   UNL d   1      41.774 -15.942  36.892  0.00  0.00     0.030 A 
ATOM     28  C   UNL d   1      41.699 -16.676  36.519  0.00  0.00     0.140 A 
ATOM     29  C   UNL d   1      42.376 -17.113  36.336  0.00  0.00     0.030 A 
ATOM     30  F   UNL d   1      40.943 -16.969  36.330  0.00  0.00    -0.204 F 
ATOM     31  C   UNL d   1      43.121 -16.825  36.521  0.00  0.00     0.004 A 
ENDBRANCH   5  25
TORSDOF 3
ENDMDL
