MODEL 1
REMARK VINA RESULT:      -2.9      0.000      0.000
REMARK  4 active torsions:
REMARK  status: ('A' for Active; 'I' for Inactive)
REMARK    1  A    between atoms: C_5  and  C_1 
REMARK    2  A    between atoms: C_2  and  C_5 
REMARK    3  A    between atoms: C_12  and  N_3 
REMARK    4  A    between atoms: C_13  and  N_4 
ROOT
ATOM      1  C   UNL d   1     -42.031-122.265 -50.844  0.00  0.00     0.133 C 
ATOM      2 CL   UNL d   1     -41.563-122.943 -50.701  0.00  0.00    -0.076 Cl
ENDROOT
BRANCH   1   3
ATOM      3  C   UNL d   1     -42.831-122.253 -50.647  0.00  0.00     0.202 A 
ATOM      4  N   UNL d   1     -43.071-122.536 -49.929  0.00  0.00    -0.191 N 
ATOM      5  N   UNL d   1     -43.888-122.456 -49.881  0.00  0.00    -0.039 NA
ATOM      6  N   UNL d   1     -44.151-122.123 -50.572  0.00  0.00    -0.022 NA
ATOM      7  N   UNL d   1     -43.497-121.995 -51.050  0.00  0.00    -0.107 NA
BRANCH   4   8
ATOM      8  C   UNL d   1     -42.588-122.848 -49.349  0.00  0.00     0.086 A 
ATOM      9  C   UNL d   1     -42.043-123.437 -49.537  0.00  0.00     0.019 A 
ATOM     10  C   UNL d   1     -41.556-123.751 -48.949  0.00  0.00     0.002 A 
ATOM     11  C   UNL d   1     -41.617-123.475 -48.177  0.00  0.00     0.000 A 
ATOM     12  C   UNL d   1     -42.163-122.883 -47.983  0.00  0.00     0.002 A 
ATOM     13  C   UNL d   1     -41.123-123.791 -47.573  0.00  0.00     0.000 C 
ATOM     14  C   UNL d   1     -42.646-122.573 -48.572  0.00  0.00     0.019 A 
ENDBRANCH   4   8
ENDBRANCH   1   3
BRANCH   1  15
ATOM     15  C   UNL d   1     -41.684-121.594 -51.189  0.00  0.00     0.202 A 
ATOM     16  N   UNL d   1     -41.426-121.529 -51.962  0.00  0.00    -0.191 N 
ATOM     17  N   UNL d   1     -41.123-120.773 -52.063  0.00  0.00    -0.039 NA
ATOM     18  N   UNL d   1     -41.197-120.378 -51.350  0.00  0.00    -0.022 NA
ATOM     19  N   UNL d   1     -41.539-120.874 -50.814  0.00  0.00    -0.107 NA
BRANCH  16  20
ATOM     20  C   UNL d   1     -41.448-122.097 -52.562  0.00  0.00     0.086 A 
ATOM     21  C   UNL d   1     -41.788-121.917 -53.297  0.00  0.00     0.019 A 
ATOM     22  C   UNL d   1     -41.810-122.485 -53.897  0.00  0.00     0.002 A 
ATOM     23  C   UNL d   1     -41.493-123.233 -53.761  0.00  0.00     0.000 A 
ATOM     24  C   UNL d   1     -41.157-123.416 -53.040  0.00  0.00     0.002 A 
ATOM     25  C   UNL d   1     -41.512-123.816 -54.366  0.00  0.00     0.000 C 
ATOM     26  C   UNL d   1     -41.135-122.848 -52.440  0.00  0.00     0.019 A 
ENDBRANCH  16  20
ENDBRANCH   1  15
TORSDOF 4
ENDMDL
MODEL 2
REMARK VINA RESULT:      -2.7      0.323      4.168
REMARK  4 active torsions:
REMARK  status: ('A' for Active; 'I' for Inactive)
REMARK    1  A    between atoms: C_5  and  C_1 
REMARK    2  A    between atoms: C_2  and  C_5 
REMARK    3  A    between atoms: C_12  and  N_3 
REMARK    4  A    between atoms: C_13  and  N_4 
ROOT
ATOM      1  C   UNL d   1     -42.031-122.522 -50.759  0.00  0.00     0.133 C 
ATOM      2 CL   UNL d   1     -41.605-123.232 -50.870  0.00  0.00    -0.076 Cl
ENDROOT
BRANCH   1   3
ATOM      3  C   UNL d   1     -41.692-121.792 -50.932  0.00  0.00     0.202 A 
ATOM      4  N   UNL d   1     -41.433-121.638 -51.682  0.00  0.00    -0.191 N 
ATOM      5  N   UNL d   1     -41.123-120.877 -51.697  0.00  0.00    -0.039 NA
ATOM      6  N   UNL d   1     -41.191-120.561 -50.952  0.00  0.00    -0.022 NA
ATOM      7  N   UNL d   1     -41.545-121.128 -50.475  0.00  0.00    -0.107 NA
BRANCH   4   8
ATOM      8  C   UNL d   1     -41.471-122.149 -52.318  0.00  0.00     0.086 A 
ATOM      9  C   UNL d   1     -41.852-121.918 -53.012  0.00  0.00     0.019 A 
ATOM     10  C   UNL d   1     -41.889-122.435 -53.654  0.00  0.00     0.002 A 
ATOM     11  C   UNL d   1     -41.546-123.181 -53.599  0.00  0.00     0.000 A 
ATOM     12  C   UNL d   1     -41.163-123.417 -52.905  0.00  0.00     0.002 A 
ATOM     13  C   UNL d   1     -41.581-123.713 -54.250  0.00  0.00     0.000 C 
ATOM     14  C   UNL d   1     -41.128-122.898 -52.267  0.00  0.00     0.019 A 
ENDBRANCH   4   8
ENDBRANCH   1   3
BRANCH   1  15
ATOM     15  C   UNL d   1     -42.810-122.554 -50.470  0.00  0.00     0.202 A 
ATOM     16  N   UNL d   1     -43.036-122.776 -49.717  0.00  0.00    -0.191 N 
ATOM     17  N   UNL d   1     -43.853-122.726 -49.674  0.00  0.00    -0.039 NA
ATOM     18  N   UNL d   1     -44.126-122.472 -50.404  0.00  0.00    -0.022 NA
ATOM     19  N   UNL d   1     -43.493-122.366 -50.892  0.00  0.00    -0.107 NA
BRANCH  16  20
ATOM     20  C   UNL d   1     -42.559-123.015 -49.086  0.00  0.00     0.086 A 
ATOM     21  C   UNL d   1     -41.945-123.561 -49.207  0.00  0.00     0.019 A 
ATOM     22  C   UNL d   1     -41.468-123.800 -48.576  0.00  0.00     0.002 A 
ATOM     23  C   UNL d   1     -41.604-123.493 -47.824  0.00  0.00     0.000 A 
ATOM     24  C   UNL d   1     -42.205-122.955 -47.698  0.00  0.00     0.002 A 
ATOM     25  C   UNL d   1     -41.123-123.730 -47.177  0.00  0.00     0.000 C 
ATOM     26  C   UNL d   1     -42.683-122.716 -48.329  0.00  0.00     0.019 A 
ENDBRANCH  16  20
ENDBRANCH   1  15
TORSDOF 4
ENDMDL
