MODEL 1
REMARK VINA RESULT:     112.3      0.000      0.000
REMARK  5 active torsions:
REMARK  status: ('A' for Active; 'I' for Inactive)
REMARK    1  A    between atoms: C_11  and  C_4 
REMARK    2  A    between atoms: N_10  and  C_6 
REMARK    3  A    between atoms: C_13  and  C_9 
REMARK    4  A    between atoms: C_14  and  N_10 
REMARK    5  A    between atoms: C_15  and  C_14 
ROOT
ATOM      1  C   UNL d   1      61.025  47.693  50.565  0.00  0.00     0.167 A 
ATOM      2  N   UNL d   1      61.305  47.285  49.911  0.00  0.00    -0.195 N 
ATOM      3  N   UNL d   1      61.471  48.500  49.224  0.00  0.00    -0.163 NA
ATOM      4  C   UNL d   1      60.971  48.490  50.544  0.00  0.00     0.055 A 
ATOM      5  N   UNL d   1      60.806  47.282  51.228  0.00  0.00    -0.227 NA
ATOM      6  C   UNL d   1      61.356  46.480  49.942  0.00  0.00     0.167 A 
ATOM      7  C   UNL d   1      61.191  48.908  49.878  0.00  0.00     0.104 A 
ATOM      8  C   UNL d   1      61.127  46.063  50.629  0.00  0.00     0.058 A 
ATOM      9  C   UNL d   1      60.860  46.481  51.251  0.00  0.00     0.086 A 
ATOM     10  C   UNL d   1      61.137  49.702  49.859  0.00  0.00     0.023 C 
ENDROOT
BRANCH   6  11
ATOM     11  N   UNL d   1      61.642  46.056  49.273  0.00  0.00    -0.224 NA
BRANCH  11  12
ATOM     12  C   UNL d   1      62.283  45.572  49.022  0.00  0.00     0.120 C 
BRANCH  12  13
ATOM     13  C   UNL d   1      62.256  44.742  49.128  0.00  0.00     0.101 A 
ATOM     14  N   UNL d   1      62.879  44.348  49.535  0.00  0.00    -0.242 NA
ATOM     15  C   UNL d   1      62.851  43.517  49.642  0.00  0.00     0.099 A 
ATOM     16  C   UNL d   1      62.197  43.079  49.340  0.00  0.00     0.021 A 
ATOM     17  C   UNL d   1      61.571  43.471  48.931  0.00  0.00     0.003 A 
ATOM     18  C   UNL d   1      61.605  44.305  48.828  0.00  0.00     0.021 A 
ENDBRANCH  12  13
ENDBRANCH  11  12
ENDBRANCH   6  11
BRANCH   9  19
ATOM     19  C   UNL d   1      60.628  46.053  51.951  0.00  0.00     0.018 C 
ATOM     20  C   UNL d   1      61.055  46.182  52.680  0.00  0.00     0.002 C 
ATOM     21  C   UNL d   1      59.980  45.506  51.921  0.00  0.00     0.002 C 
ENDBRANCH   9  19
BRANCH   4  22
ATOM     22  C   UNL d   1      60.689  48.903  51.205  0.00  0.00     0.004 A 
ATOM     23  C   UNL d   1      59.901  49.067  51.270  0.00  0.00     0.000 A 
ATOM     24  C   UNL d   1      59.623  49.474  51.922  0.00  0.00     0.000 A 
ATOM     25  C   UNL d   1      60.138  49.707  52.494  0.00  0.00     0.000 A 
ATOM     26  C   UNL d   1      60.934  49.539  52.425  0.00  0.00     0.000 A 
ATOM     27  C   UNL d   1      61.200  49.139  51.780  0.00  0.00     0.000 A 
ENDBRANCH   4  22
TORSDOF 5
ENDMDL
