MODEL 1
REMARK VINA RESULT:      72.1      0.000      0.000
REMARK  11 active torsions:
REMARK  status: ('A' for Active; 'I' for Inactive)
REMARK    1  A    between atoms: C_8  and  C_1 
REMARK    2  A    between atoms: C_6  and  N_7 
REMARK    3  A    between atoms: N_19  and  C_6 
REMARK    4  A    between atoms: N_7  and  C_14 
REMARK    5  A    between atoms: C_11  and  N_7 
REMARK    6  A    between atoms: C_14  and  C_8 
REMARK    7  A    between atoms: C_9  and  C_11 
REMARK    8  A    between atoms: C_25  and  N_19 
REMARK    9  A    between atoms: O_23  and  C_20 
REMARK   10  A    between atoms: O_24  and  C_26 
REMARK   11  A    between atoms: C_26  and  C_25 
ROOT
ATOM      1  N   UNL d   1      60.474  48.939  50.522  0.00  0.00    -0.279 N 
ENDROOT
BRANCH   1   2
ATOM      2  C   UNL d   1      59.805  49.253  50.161  0.00  0.00     0.206 C 
ATOM      3  S   UNL d   1      59.883  49.706  49.472  0.00  0.00    -0.038 SA
BRANCH   2   4
ATOM      4  N   UNL d   1      59.055  49.117  50.482  0.00  0.00    -0.215 NA
BRANCH   4   5
ATOM      5  C   UNL d   1      58.468  49.692  50.399  0.00  0.00     0.128 C 
BRANCH   5   6
ATOM      6  C   UNL d   1      57.760  49.508  50.024  0.00  0.00     0.137 C 
BRANCH   6   7
ATOM      7  O   UNL d   1      57.065  49.465  50.464  0.00  0.00    -0.325 OA
ATOM      8  C   UNL d   1      56.693  48.744  50.567  0.00  0.00     0.182 C 
ENDBRANCH   6   7
ENDBRANCH   5   6
ENDBRANCH   4   5
ENDBRANCH   2   4
ENDBRANCH   1   2
BRANCH   1   9
ATOM      9  C   UNL d   1      60.593  48.112  50.532  0.00  0.00     0.082 C 
BRANCH   9  10
ATOM     10  C   UNL d   1      61.362  47.802  50.534  0.00  0.00     0.021 C 
BRANCH  10  11
ATOM     11  C   UNL d   1      61.533  47.117  50.115  0.00  0.00     0.021 A 
ATOM     12  C   UNL d   1      61.971  47.068  49.403  0.00  0.00     0.082 A 
ATOM     13  N   UNL d   1      62.005  46.275  49.183  0.00  0.00    -0.246 NA
ATOM     14  C   UNL d   1      62.305  47.708  48.999  0.00  0.00     0.021 C 
ATOM     15  C   UNL d   1      61.598  45.827  49.743  0.00  0.00     0.082 A 
ATOM     16  C   UNL d   1      61.308  46.351  50.318  0.00  0.00     0.021 A 
ATOM     17  C   UNL d   1      61.452  45.019  49.809  0.00  0.00     0.021 A 
ATOM     18  C   UNL d   1      60.875  46.055  50.951  0.00  0.00     0.026 A 
ATOM     19  C   UNL d   1      60.728  45.244  51.018  0.00  0.00     0.094 A 
ATOM     20  C   UNL d   1      61.021  44.731  50.440  0.00  0.00     0.026 A 
BRANCH  19  21
ATOM     21  O   UNL d   1      60.293  44.950  51.655  0.00  0.00    -0.328 OA
ATOM     22  C   UNL d   1      60.514  44.230  52.003  0.00  0.00     0.181 C 
ENDBRANCH  19  21
ENDBRANCH  10  11
ENDBRANCH   9  10
ENDBRANCH   1   9
BRANCH   1  23
ATOM     23  C   UNL d   1      61.022  49.439  50.873  0.00  0.00     0.107 C 
BRANCH  23  24
ATOM     24  C   UNL d   1      61.033  49.529  51.701  0.00  0.00     0.118 A 
ATOM     25  O   UNL d   1      61.709  49.540  52.182  0.00  0.00    -0.304 OA
ATOM     26  C   UNL d   1      61.462  49.641  52.965  0.00  0.00     0.123 A 
ATOM     27  C   UNL d   1      60.648  49.691  52.965  0.00  0.00     0.029 A 
ATOM     28  C   UNL d   1      60.388  49.621  52.178  0.00  0.00     0.028 A 
ENDBRANCH  23  24
ENDBRANCH   1  23
TORSDOF 11
ENDMDL
