MODEL 1
REMARK VINA RESULT:      -4.1      0.000      0.000
REMARK  3 active torsions:
REMARK  status: ('A' for Active; 'I' for Inactive)
REMARK    1  A    between atoms: C_9  and  C_4 
REMARK    2  A    between atoms: C_10  and  C_7 
REMARK    3  A    between atoms: C_13  and  C_10 
ROOT
ATOM      1  C   UNL d   1      33.110  20.309 -22.600  0.00  0.00     0.179 A 
ATOM      2  N   UNL d   1      32.943  19.796 -21.969  0.00  0.00    -0.282 N 
ATOM      3  N   UNL d   1      33.084  21.081 -22.321  0.00  0.00    -0.221 NA
ATOM      4  C   UNL d   1      32.898  21.050 -21.508  0.00  0.00     0.101 A 
ATOM      5  S   UNL d   1      33.241  19.852 -23.274  0.00  0.00    -0.048 SA
ATOM      6  C   UNL d   1      32.813  20.261 -21.300  0.00  0.00     0.101 A 
ATOM      7  C   UNL d   1      33.154  19.057 -23.058  0.00  0.00     0.050 A 
ATOM      8  C   UNL d   1      32.973  19.030 -22.263  0.00  0.00     0.089 A 
ENDROOT
BRANCH   7   9
ATOM      9  C   UNL d   1      33.240  18.412 -23.572  0.00  0.00     0.008 C 
BRANCH   9  10
ATOM     10  C   UNL d   1      32.592  17.962 -23.788  0.00  0.00     0.001 A 
ATOM     11  C   UNL d   1      32.115  18.202 -24.427  0.00  0.00     0.002 A 
ATOM     12  C   UNL d   1      31.458  17.745 -24.644  0.00  0.00     0.030 A 
ATOM     13  C   UNL d   1      31.278  17.056 -24.229  0.00  0.00     0.140 A 
ATOM     14  C   UNL d   1      31.750  16.816 -23.595  0.00  0.00     0.030 A 
ATOM     15  F   UNL d   1      30.631  16.593 -24.433  0.00  0.00    -0.204 F 
ATOM     16  C   UNL d   1      32.406  17.271 -23.377  0.00  0.00     0.002 A 
ENDBRANCH   9  10
ENDBRANCH   7   9
BRANCH   4  17
ATOM     17  C   UNL d   1      32.817  21.698 -21.012  0.00  0.00     0.019 A 
ATOM     18  C   UNL d   1      33.234  21.718 -20.307  0.00  0.00     0.004 A 
ATOM     19  C   UNL d   1      33.160  22.367 -19.797  0.00  0.00     0.030 A 
ATOM     20  C   UNL d   1      32.662  22.995 -20.006  0.00  0.00     0.140 A 
ATOM     21  C   UNL d   1      32.244  22.974 -20.712  0.00  0.00     0.030 A 
ATOM     22  F   UNL d   1      32.476  23.700 -19.626  0.00  0.00    -0.204 F 
ATOM     23  C   UNL d   1      32.318  22.329 -21.217  0.00  0.00     0.004 A 
ENDBRANCH   4  17
TORSDOF 3
ENDMDL
MODEL 2
REMARK VINA RESULT:      -2.3      0.908      5.311
REMARK  3 active torsions:
REMARK  status: ('A' for Active; 'I' for Inactive)
REMARK    1  A    between atoms: C_9  and  C_4 
REMARK    2  A    between atoms: C_10  and  C_7 
REMARK    3  A    between atoms: C_13  and  C_10 
ROOT
ATOM      1  C   UNL d   1      33.073  20.567 -22.870  0.00  0.00     0.179 A 
ATOM      2  N   UNL d   1      32.941  20.348 -22.079  0.00  0.00    -0.282 N 
ATOM      3  N   UNL d   1      33.029  19.893 -23.336  0.00  0.00    -0.221 NA
ATOM      4  C   UNL d   1      32.867  19.247 -22.834  0.00  0.00     0.101 A 
ATOM      5  S   UNL d   1      33.200  21.382 -22.892  0.00  0.00    -0.048 SA
ATOM      6  C   UNL d   1      32.815  19.533 -22.067  0.00  0.00     0.101 A 
ATOM      7  C   UNL d   1      33.146  21.664 -22.115  0.00  0.00     0.050 A 
ATOM      8  C   UNL d   1      32.989  21.031 -21.626  0.00  0.00     0.089 A 
ENDROOT
BRANCH   7   9
ATOM      9  C   UNL d   1      33.239  22.457 -21.890  0.00  0.00     0.008 C 
BRANCH   9  10
ATOM     10  C   UNL d   1      32.818  22.763 -21.259  0.00  0.00     0.001 A 
ATOM     11  C   UNL d   1      32.097  23.157 -21.395  0.00  0.00     0.002 A 
ATOM     12  C   UNL d   1      31.671  23.467 -20.754  0.00  0.00     0.030 A 
ATOM     13  C   UNL d   1      31.959  23.385 -19.987  0.00  0.00     0.140 A 
ATOM     14  C   UNL d   1      32.674  22.995 -19.850  0.00  0.00     0.030 A 
ATOM     15  F   UNL d   1      31.548  23.687 -19.343  0.00  0.00    -0.204 F 
ATOM     16  C   UNL d   1      33.101  22.685 -20.488  0.00  0.00     0.002 A 
ENDBRANCH   9  10
ENDBRANCH   7   9
BRANCH   4  17
ATOM     17  C   UNL d   1      32.778  18.467 -23.072  0.00  0.00     0.019 A 
ATOM     18  C   UNL d   1      32.234  18.287 -23.659  0.00  0.00     0.004 A 
ATOM     19  C   UNL d   1      32.135  17.503 -23.908  0.00  0.00     0.030 A 
ATOM     20  C   UNL d   1      32.589  16.904 -23.560  0.00  0.00     0.140 A 
ATOM     21  C   UNL d   1      33.133  17.085 -22.974  0.00  0.00     0.030 A 
ATOM     22  F   UNL d   1      32.617  16.092 -23.686  0.00  0.00    -0.204 F 
ATOM     23  C   UNL d   1      33.231  17.864 -22.727  0.00  0.00     0.004 A 
ENDBRANCH   4  17
TORSDOF 3
ENDMDL
