MODEL 1
REMARK VINA RESULT:      14.2      0.000      0.000
REMARK  3 active torsions:
REMARK  status: ('A' for Active; 'I' for Inactive)
REMARK    1  A    between atoms: C_4  and  C_1 
REMARK    2  A    between atoms: N_2  and  C_3 
REMARK    3  A    between atoms: C_5  and  N_2 
ROOT
ATOM      1  C   UNL d   1      14.572  12.294  -0.878  0.00  0.00     0.082 A 
ATOM      2  C   UNL d   1      14.063  12.256  -1.539  0.00  0.00     0.087 A 
ATOM      3  C   UNL d   1      14.298  12.080  -0.134  0.00  0.00     0.008 A 
ATOM      4  C   UNL d   1      13.285  12.001  -1.435  0.00  0.00     0.019 A 
ATOM      5  C   UNL d   1      13.511  11.823  -0.036  0.00  0.00     0.000 A 
ATOM      6  C   UNL d   1      13.011  11.787  -0.692  0.00  0.00     0.002 A 
ENDROOT
BRANCH   2   7
ATOM      7  N   UNL d   1      14.336  12.470  -2.282  0.00  0.00    -0.245 NA
BRANCH   7   8
ATOM      8  C   UNL d   1      13.826  12.494  -2.938  0.00  0.00     0.081 A 
ATOM      9  C   UNL d   1      13.666  13.195  -3.323  0.00  0.00     0.018 A 
ATOM     10  C   UNL d   1      13.158  13.214  -3.975  0.00  0.00     0.002 A 
ATOM     11  C   UNL d   1      14.015  13.881  -3.059  0.00  0.00     0.002 C 
ATOM     12  C   UNL d   1      12.999  13.910  -4.358  0.00  0.00     0.000 C 
ATOM     13  C   UNL d   1      12.810  12.502  -4.230  0.00  0.00     0.000 A 
ATOM     14  C   UNL d   1      12.970  11.800  -3.845  0.00  0.00     0.002 A 
ATOM     15  C   UNL d   1      13.484  11.779  -3.186  0.00  0.00     0.019 A 
ENDBRANCH   7   8
ENDBRANCH   2   7
BRANCH   1  16
ATOM     16  C   UNL d   1      15.350  12.550  -0.981  0.00  0.00     0.212 C 
ATOM     17  O   UNL d   1      15.906  12.059  -1.333  0.00  0.00    -0.644 OA
ATOM     18  O   UNL d   1      15.579  13.295  -0.735  0.00  0.00    -0.644 OA
ENDBRANCH   1  16
TORSDOF 3
ENDMDL
