MODEL 1
REMARK VINA RESULT:      65.3      0.000      0.000
REMARK  3 active torsions:
REMARK  status: ('A' for Active; 'I' for Inactive)
REMARK    1  A    between atoms: C_11  and  C_6 
REMARK       I    between atoms: N_15  and  C_11 
REMARK    2  A    between atoms: C_23  and  N_15 
REMARK    3  A    between atoms: C_22  and  C_23 
ROOT
ATOM      1  C   UNL d   1      13.777  14.870  -4.729  0.00  0.00     0.155 A 
ATOM      2  C   UNL d   1      14.033  14.826  -3.944  0.00  0.00     0.091 A 
ATOM      3  N   UNL d   1      13.894  15.563  -5.158  0.00  0.00    -0.210 NA
ATOM      4  N   UNL d   1      14.518  16.164  -4.027  0.00  0.00    -0.258 N 
ATOM      5  N   UNL d   1      13.408  14.223  -5.075  0.00  0.00    -0.272 N 
ATOM      6  C   UNL d   1      13.544  13.479  -3.860  0.00  0.00     0.094 A 
ATOM      7  C   UNL d   1      14.259  16.200  -4.812  0.00  0.00     0.152 A 
ATOM      8  C   UNL d   1      14.405  15.475  -3.590  0.00  0.00     0.269 A 
ATOM      9  C   UNL d   1      13.290  13.522  -4.638  0.00  0.00     0.175 A 
ATOM     10  C   UNL d   1      13.919  14.135  -3.507  0.00  0.00     0.016 A 
ATOM     11  C   UNL d   1      14.378  16.898  -5.241  0.00  0.00     0.035 A 
ATOM     12  C   UNL d   1      14.889  16.810  -3.673  0.00  0.00     0.084 A 
ATOM     13  N   UNL d   1      12.917  12.871  -4.991  0.00  0.00    -0.128 N 
ATOM     14  O   UNL d   1      14.659  15.431  -2.811  0.00  0.00    -0.266 OA
ATOM     15  C   UNL d   1      15.001  17.495  -4.110  0.00  0.00     0.019 A 
ATOM     16  C   UNL d   1      14.745  17.539  -4.895  0.00  0.00     0.005 A 
ATOM     17  C   UNL d   1      13.153  14.267  -5.857  0.00  0.00     0.102 C 
ATOM     18  C   UNL d   1      14.123  16.941  -6.023  0.00  0.00     0.003 C 
ENDROOT
BRANCH   6  19
ATOM     19  C   UNL d   1      13.428  12.783  -3.423  0.00  0.00     0.282 C 
ATOM     20  N   UNL d   1      13.699  12.740  -2.645  0.00  0.00    -0.206 NA
ATOM     21  O   UNL d   1      13.046  12.141  -3.765  0.00  0.00    -0.265 OA
BRANCH  20  22
ATOM     22  C   UNL d   1      13.582  12.048  -2.215  0.00  0.00     0.104 C 
BRANCH  22  23
ATOM     23  C   UNL d   1      13.953  11.958  -1.481  0.00  0.00     0.038 A 
ATOM     24  C   UNL d   1      13.494  11.897  -0.799  0.00  0.00     0.101 A 
ATOM     25  N   UNL d   1      13.860  11.807  -0.066  0.00  0.00    -0.242 NA
ATOM     26  C   UNL d   1      14.682  11.779  -0.017  0.00  0.00     0.099 A 
ATOM     27  C   UNL d   1      15.141  11.841  -0.703  0.00  0.00     0.021 A 
ATOM     28  C   UNL d   1      14.770  11.931  -1.434  0.00  0.00     0.005 A 
ENDBRANCH  22  23
ENDBRANCH  20  22
ENDBRANCH   6  19
TORSDOF 3
ENDMDL
