MODEL 1
REMARK VINA RESULT:      42.9      0.000      0.000
REMARK  4 active torsions:
REMARK  status: ('A' for Active; 'I' for Inactive)
REMARK    1  A    between atoms: C_8  and  C_4 
REMARK       I    between atoms: C_7  and  N_10 
REMARK    2  A    between atoms: C_16  and  C_7 
REMARK    3  A    between atoms: N_10  and  C_13 
REMARK    4  A    between atoms: C_17  and  C_16 
ROOT
ATOM      1  C   UNL d   1      15.065  15.855  -1.618  0.00  0.00     0.021 A 
ATOM      2  C   UNL d   1      14.785  15.143  -1.302  0.00  0.00     0.021 A 
ATOM      3  C   UNL d   1      14.886  14.980  -0.503  0.00  0.00     0.085 A 
ATOM      4  C   UNL d   1      15.445  16.401  -1.133  0.00  0.00     0.002 A 
ATOM      5  C   UNL d   1      15.550  16.244  -0.330  0.00  0.00     0.002 A 
ATOM      6  C   UNL d   1      15.267  15.526  -0.014  0.00  0.00     0.019 A 
ENDROOT
BRANCH   1   7
ATOM      7  C   UNL d   1      14.963  16.019  -2.420  0.00  0.00     0.118 A 
ATOM      8  N   UNL d   1      14.503  15.590  -2.944  0.00  0.00    -0.059 NA
ATOM      9  C   UNL d   1      14.563  15.948  -3.683  0.00  0.00     0.735 A 
ATOM     10  N   UNL d   1      15.059  16.598  -3.618  0.00  0.00    -0.136 N 
ATOM     11  N   UNL d   1      14.217  15.751  -4.410  0.00  0.00    -0.059 NA
ATOM     12  C   UNL d   1      15.308  16.643  -2.835  0.00  0.00     0.118 A 
ATOM     13  C   UNL d   1      15.217  17.062  -4.279  0.00  0.00     0.100 A 
ATOM     14  C   UNL d   1      14.879  16.873  -5.001  0.00  0.00     0.041 A 
ATOM     15  C   UNL d   1      14.383  16.223  -5.066  0.00  0.00     0.119 A 
ENDBRANCH   1   7
BRANCH   3  16
ATOM     16  N   UNL d   1      14.605  14.270  -0.191  0.00  0.00    -0.208 NA
ATOM     17  C   UNL d   1      15.019  13.567  -0.323  0.00  0.00     0.275 C 
ATOM     18  O   UNL d   1      15.711  13.574  -0.766  0.00  0.00    -0.266 OA
BRANCH  17  19
ATOM     19  C   UNL d   1      14.742  12.861  -0.014  0.00  0.00     0.036 C 
BRANCH  19  20
ATOM     20  C   UNL d   1      14.369  12.323  -0.509  0.00  0.00     0.023 C 
ATOM     21  C   UNL d   1      14.920  12.174  -1.120  0.00  0.00     0.004 C 
ATOM     22  C   UNL d   1      13.638  12.186  -0.175  0.00  0.00     0.004 C 
ATOM     23  C   UNL d   1      13.996  11.780  -1.012  0.00  0.00     0.004 C 
ENDBRANCH  19  20
ENDBRANCH  17  19
ENDBRANCH   3  16
TORSDOF 4
ENDMDL
MODEL 2
REMARK VINA RESULT:      43.3      1.138      4.390
REMARK  4 active torsions:
REMARK  status: ('A' for Active; 'I' for Inactive)
REMARK    1  A    between atoms: C_8  and  C_4 
REMARK       I    between atoms: C_7  and  N_10 
REMARK    2  A    between atoms: C_16  and  C_7 
REMARK    3  A    between atoms: N_10  and  C_13 
REMARK    4  A    between atoms: C_17  and  C_16 
ROOT
ATOM      1  C   UNL d   1      15.062  15.295  -0.620  0.00  0.00     0.021 A 
ATOM      2  C   UNL d   1      14.823  15.673  -1.316  0.00  0.00     0.021 A 
ATOM      3  C   UNL d   1      14.959  16.476  -1.416  0.00  0.00     0.085 A 
ATOM      4  C   UNL d   1      15.438  15.725  -0.025  0.00  0.00     0.002 A 
ATOM      5  C   UNL d   1      15.578  16.532  -0.119  0.00  0.00     0.002 A 
ATOM      6  C   UNL d   1      15.336  16.910  -0.822  0.00  0.00     0.019 A 
ENDROOT
BRANCH   1   7
ATOM      7  C   UNL d   1      14.925  14.488  -0.519  0.00  0.00     0.118 A 
ATOM      8  N   UNL d   1      15.460  13.886  -0.672  0.00  0.00    -0.059 NA
ATOM      9  C   UNL d   1      15.092  13.172  -0.495  0.00  0.00     0.735 A 
ATOM     10  N   UNL d   1      14.331  13.329  -0.232  0.00  0.00    -0.136 N 
ATOM     11  N   UNL d   1      15.369  12.393  -0.545  0.00  0.00    -0.059 NA
ATOM     12  C   UNL d   1      14.226  14.145  -0.246  0.00  0.00     0.118 A 
ATOM     13  C   UNL d   1      13.835  12.709  -0.015  0.00  0.00     0.100 A 
ATOM     14  C   UNL d   1      14.103  11.936  -0.061  0.00  0.00     0.041 A 
ATOM     15  C   UNL d   1      14.863  11.779  -0.324  0.00  0.00     0.119 A 
ENDBRANCH   1   7
BRANCH   3  16
ATOM     16  N   UNL d   1      14.720  16.849  -2.112  0.00  0.00    -0.208 NA
ATOM     17  C   UNL d   1      15.073  16.650  -2.832  0.00  0.00     0.275 C 
ATOM     18  O   UNL d   1      15.664  16.081  -2.857  0.00  0.00    -0.266 OA
BRANCH  17  19
ATOM     19  C   UNL d   1      14.836  17.020  -3.524  0.00  0.00     0.036 C 
BRANCH  19  20
ATOM     20  C   UNL d   1      14.982  16.657  -4.245  0.00  0.00     0.023 C 
ATOM     21  C   UNL d   1      15.778  16.841  -4.421  0.00  0.00     0.004 C 
ATOM     22  C   UNL d   1      14.285  16.288  -4.452  0.00  0.00     0.004 C 
ATOM     23  C   UNL d   1      15.135  16.292  -4.974  0.00  0.00     0.004 C 
ENDBRANCH  19  20
ENDBRANCH  17  19
ENDBRANCH   3  16
TORSDOF 4
ENDMDL
