MODEL 1
REMARK VINA RESULT:      35.6      0.000      0.000
REMARK  4 active torsions:
REMARK  status: ('A' for Active; 'I' for Inactive)
REMARK    1  A    between atoms: C_6  and  S_1 
REMARK    2  A    between atoms: N_9  and  S_1 
REMARK    3  A    between atoms: C_17  and  N_9 
REMARK       I    between atoms: C_13  and  N_15 
REMARK    4  A    between atoms: N_15  and  C_18 
ROOT
ATOM      1  C   UNL d   1      46.021 -18.328  43.502  0.00  0.00     0.054 A 
ATOM      2  C   UNL d   1      46.334 -18.034  42.814  0.00  0.00     0.196 A 
ATOM      3  C   UNL d   1      45.714 -19.059  43.561  0.00  0.00     0.043 A 
ATOM      4  C   UNL d   1      45.701 -19.551  42.922  0.00  0.00     0.196 A 
ATOM      5  C   UNL d   1      46.008 -17.853  44.210  0.00  0.00     0.108 A 
ATOM      6  C   UNL d   1      46.337 -18.513  42.141  0.00  0.00     0.042 A 
ATOM      7  C   UNL d   1      46.022 -19.262  42.202  0.00  0.00     0.042 A 
ATOM      8  O   UNL d   1      46.647 -17.242  42.822  0.00  0.00    -0.286 OA
ATOM      9  O   UNL d   1      45.373 -20.330  42.991  0.00  0.00    -0.287 OA
ATOM     10  C   UNL d   1      45.392 -19.353  44.281  0.00  0.00     0.003 A 
ATOM     11  C   UNL d   1      45.696 -18.149  44.889  0.00  0.00     0.013 A 
ATOM     12  C   UNL d   1      46.647 -18.248  41.424  0.00  0.00     0.003 A 
ATOM     13  C   UNL d   1      46.013 -19.786  41.503  0.00  0.00     0.003 A 
ATOM     14  C   UNL d   1      45.390 -18.874  44.953  0.00  0.00     0.001 A 
ATOM     15  C   UNL d   1      46.643 -18.722  40.778  0.00  0.00     0.000 A 
ATOM     16  C   UNL d   1      46.327 -19.491  40.815  0.00  0.00     0.000 A 
ENDROOT
BRANCH   5  17
ATOM     17  S   UNL d   1      46.327 -17.054  44.202  0.00  0.00     0.285 S 
ATOM     18  O   UNL d   1      46.625 -17.170  44.950  0.00  0.00    -0.198 OA
ATOM     19  O   UNL d   1      46.007 -16.951  43.417  0.00  0.00    -0.198 OA
BRANCH  17  20
ATOM     20  N   UNL d   1      46.626 -16.305  44.194  0.00  0.00    -0.158 NA
BRANCH  20  21
ATOM     21  C   UNL d   1      46.110 -15.643  44.282  0.00  0.00     0.094 A 
ATOM     22  C   UNL d   1      45.475 -15.674  44.796  0.00  0.00     0.021 A 
ATOM     23  C   UNL d   1      44.966 -15.017  44.880  0.00  0.00     0.021 A 
ATOM     24  C   UNL d   1      45.105 -14.308  44.431  0.00  0.00     0.085 A 
ATOM     25  C   UNL d   1      45.762 -14.291  43.907  0.00  0.00     0.021 A 
ATOM     26  C   UNL d   1      46.249 -14.930  43.831  0.00  0.00     0.021 A 
BRANCH  24  27
ATOM     27  N   UNL d   1      44.594 -13.673  44.528  0.00  0.00    -0.208 NA
ATOM     28  C   UNL d   1      44.448 -13.118  43.927  0.00  0.00     0.279 C 
ATOM     29  O   UNL d   1      44.859 -13.234  43.182  0.00  0.00    -0.265 OA
ATOM     30  C   UNL d   1      43.939 -12.467  43.994  0.00  0.00     0.068 C 
ENDBRANCH  24  27
ENDBRANCH  20  21
ENDBRANCH  17  20
ENDBRANCH   5  17
TORSDOF 4
ENDMDL
MODEL 2
REMARK VINA RESULT:      36.0      1.468      4.978
REMARK  4 active torsions:
REMARK  status: ('A' for Active; 'I' for Inactive)
REMARK    1  A    between atoms: C_6  and  S_1 
REMARK    2  A    between atoms: N_9  and  S_1 
REMARK    3  A    between atoms: C_17  and  N_9 
REMARK       I    between atoms: C_13  and  N_15 
REMARK    4  A    between atoms: N_15  and  C_18 
ROOT
ATOM      1  C   UNL d   1      45.117 -14.038  43.969  0.00  0.00     0.054 A 
ATOM      2  C   UNL d   1      45.801 -13.951  43.543  0.00  0.00     0.196 A 
ATOM      3  C   UNL d   1      44.492 -13.553  43.888  0.00  0.00     0.043 A 
ATOM      4  C   UNL d   1      44.515 -12.938  43.366  0.00  0.00     0.196 A 
ATOM      5  C   UNL d   1      45.035 -14.670  44.536  0.00  0.00     0.108 A 
ATOM      6  C   UNL d   1      45.857 -13.332  43.000  0.00  0.00     0.042 A 
ATOM      7  C   UNL d   1      45.216 -12.835  42.918  0.00  0.00     0.042 A 
ATOM      8  O   UNL d   1      46.432 -14.508  43.680  0.00  0.00    -0.286 OA
ATOM      9  O   UNL d   1      43.845 -12.424  43.285  0.00  0.00    -0.287 OA
ATOM     10  C   UNL d   1      43.787 -13.653  44.336  0.00  0.00     0.003 A 
ATOM     11  C   UNL d   1      44.354 -14.751  44.955  0.00  0.00     0.013 A 
ATOM     12  C   UNL d   1      46.538 -13.213  42.549  0.00  0.00     0.003 A 
ATOM     13  C   UNL d   1      45.253 -12.173  42.349  0.00  0.00     0.003 A 
ATOM     14  C   UNL d   1      43.731 -14.272  44.879  0.00  0.00     0.001 A 
ATOM     15  C   UNL d   1      46.579 -12.608  42.025  0.00  0.00     0.000 A 
ATOM     16  C   UNL d   1      45.938 -12.086  41.923  0.00  0.00     0.000 A 
ENDROOT
BRANCH   5  17
ATOM     17  S   UNL d   1      45.681 -15.224  44.663  0.00  0.00     0.285 S 
ATOM     18  O   UNL d   1      45.142 -15.824  44.760  0.00  0.00    -0.198 OA
ATOM     19  O   UNL d   1      46.233 -14.580  44.558  0.00  0.00    -0.198 OA
BRANCH  17  20
ATOM     20  N   UNL d   1      46.287 -15.743  44.781  0.00  0.00    -0.158 NA
BRANCH  20  21
ATOM     21  C   UNL d   1      46.238 -16.527  44.472  0.00  0.00     0.094 A 
ATOM     22  C   UNL d   1      46.358 -17.176  44.955  0.00  0.00     0.021 A 
ATOM     23  C   UNL d   1      46.308 -17.949  44.643  0.00  0.00     0.021 A 
ATOM     24  C   UNL d   1      46.133 -18.069  43.820  0.00  0.00     0.085 A 
ATOM     25  C   UNL d   1      46.013 -17.393  43.336  0.00  0.00     0.021 A 
ATOM     26  C   UNL d   1      46.062 -16.648  43.644  0.00  0.00     0.021 A 
BRANCH  24  27
ATOM     27  N   UNL d   1      46.089 -18.837  43.533  0.00  0.00    -0.208 NA
ATOM     28  C   UNL d   1      46.327 -19.044  42.765  0.00  0.00     0.279 C 
ATOM     29  O   UNL d   1      46.628 -18.412  42.268  0.00  0.00    -0.265 OA
ATOM     30  C   UNL d   1      46.295 -19.809  42.446  0.00  0.00     0.068 C 
ENDBRANCH  24  27
ENDBRANCH  20  21
ENDBRANCH  17  20
ENDBRANCH   5  17
TORSDOF 4
ENDMDL
