MODEL 1
REMARK VINA RESULT:      10.4      0.000      0.000
REMARK  6 active torsions:
REMARK  status: ('A' for Active; 'I' for Inactive)
REMARK    1  A    between atoms: C_14  and  N_1 
REMARK    2  A    between atoms: S_12  and  C_3 
REMARK    3  A    between atoms: C_4  and  N_11 
REMARK    4  A    between atoms: C_15  and  C_8 
REMARK       I    between atoms: N_11  and  C_13 
REMARK    5  A    between atoms: C_17  and  S_12 
REMARK    6  A    between atoms: C_13  and  C_17 
ROOT
ATOM      1  N   UNL d   1      45.688 -16.331  44.948  0.00  0.00    -0.018 NA
ATOM      2  C   UNL d   1      46.174 -16.738  44.418  0.00  0.00     0.302 C 
ATOM      3  O   UNL d   1      46.363 -16.413  43.699  0.00  0.00    -0.264 OA
ENDROOT
BRANCH   2   4
ATOM      4  C   UNL d   1      46.468 -17.477  44.624  0.00  0.00     0.101 C 
BRANCH   4   5
ATOM      5  S   UNL d   1      46.636 -18.034  44.041  0.00  0.00    -0.041 SA
BRANCH   5   6
ATOM      6  C   UNL d   1      46.601 -18.837  44.212  0.00  0.00     0.219 A 
ATOM      7  N   UNL d   1      46.588 -19.396  43.593  0.00  0.00    -0.186 N 
ATOM      8  N   UNL d   1      46.553 -20.142  43.924  0.00  0.00    -0.038 NA
ATOM      9  N   UNL d   1      46.543 -20.058  44.740  0.00  0.00    -0.022 NA
ATOM     10  N   UNL d   1      46.572 -19.250  44.923  0.00  0.00    -0.101 NA
BRANCH   7  11
ATOM     11  C   UNL d   1      46.607 -19.252  42.777  0.00  0.00     0.087 A 
ATOM     12  C   UNL d   1      46.615 -18.482  42.491  0.00  0.00     0.019 A 
ATOM     13  C   UNL d   1      46.634 -18.342  41.677  0.00  0.00     0.002 A 
ATOM     14  C   UNL d   1      46.644 -18.976  41.151  0.00  0.00     0.000 A 
ATOM     15  C   UNL d   1      46.636 -19.757  41.442  0.00  0.00     0.002 A 
ATOM     16  C   UNL d   1      46.617 -19.886  42.261  0.00  0.00     0.019 A 
ENDBRANCH   7  11
ENDBRANCH   5   6
ENDBRANCH   4   5
ENDBRANCH   2   4
BRANCH   1  17
ATOM     17  C   UNL d   1      45.387 -15.581  44.745  0.00  0.00     0.760 A 
ATOM     18  N   UNL d   1      45.794 -14.967  44.359  0.00  0.00    -0.051 NA
ATOM     19  C   UNL d   1      45.273 -14.334  44.278  0.00  0.00     0.147 A 
ATOM     20  S   UNL d   1      44.559 -14.550  44.606  0.00  0.00     0.052 SA
ATOM     21  N   UNL d   1      44.634 -15.318  44.892  0.00  0.00    -0.019 NA
BRANCH  19  22
ATOM     22  C   UNL d   1      45.370 -13.580  43.940  0.00  0.00     0.026 A 
ATOM     23  C   UNL d   1      45.817 -13.006  44.329  0.00  0.00     0.002 A 
ATOM     24  C   UNL d   1      45.910 -12.259  43.989  0.00  0.00     0.000 A 
ATOM     25  C   UNL d   1      45.564 -12.091  43.276  0.00  0.00     0.000 A 
ATOM     26  C   UNL d   1      45.112 -12.663  42.875  0.00  0.00     0.000 A 
ATOM     27  C   UNL d   1      45.019 -13.410  43.215  0.00  0.00     0.002 A 
ENDBRANCH  19  22
ENDBRANCH   1  17
TORSDOF 6
ENDMDL
