MODEL 1
REMARK VINA RESULT:      -5.0      0.000      0.000
REMARK  4 active torsions:
REMARK  status: ('A' for Active; 'I' for Inactive)
REMARK    1  A    between atoms: C_4  and  C_1 
REMARK       I    between atoms: N_9  and  C_4 
REMARK    2  A    between atoms: C_7  and  C_13 
REMARK    3  A    between atoms: C_12  and  N_9 
REMARK    4  A    between atoms: C_13  and  C_12 
ROOT
ATOM      1  C   UNL d   1      57.992   0.294  30.008  0.00  0.00     0.302 C 
ATOM      2  O   UNL d   1      57.342   0.656  29.687  0.00  0.00    -0.263 OA
ATOM      3  N   UNL d   1      57.970   0.028  30.804  0.00  0.00    -0.205 NA
ENDROOT
BRANCH   3   4
ATOM      4  C   UNL d   1      57.289   0.141  31.240  0.00  0.00     0.102 C 
BRANCH   4   5
ATOM      5  C   UNL d   1      57.307   0.082  32.066  0.00  0.00     0.021 C 
BRANCH   5   6
ATOM      6  C   UNL d   1      56.624  -0.101  32.484  0.00  0.00     0.002 A 
ATOM      7  C   UNL d   1      56.160   0.514  32.803  0.00  0.00     0.000 A 
ATOM      8  C   UNL d   1      55.473   0.343  33.224  0.00  0.00     0.000 A 
ATOM      9  C   UNL d   1      55.235  -0.441  33.335  0.00  0.00     0.000 A 
ATOM     10  C   UNL d   1      55.692  -1.045  33.021  0.00  0.00     0.000 A 
ATOM     11  C   UNL d   1      56.385  -0.872  32.596  0.00  0.00     0.000 A 
ENDBRANCH   5   6
ENDBRANCH   4   5
ENDBRANCH   3   4
BRANCH   1  12
ATOM     12  C   UNL d   1      58.677   0.183  29.563  0.00  0.00     0.158 A 
ATOM     13  O   UNL d   1      59.403   0.579  29.615  0.00  0.00    -0.296 OA
ATOM     14  C   UNL d   1      59.923   0.269  29.048  0.00  0.00     0.134 A 
ATOM     15 BR   UNL d   1      60.705   0.516  28.920  0.00  0.00    -0.022 Br
ATOM     16  C   UNL d   1      59.512  -0.323  28.644  0.00  0.00     0.034 A 
ATOM     17  C   UNL d   1      58.757  -0.378  28.953  0.00  0.00     0.032 A 
ENDBRANCH   1  12
TORSDOF 4
ENDMDL
MODEL 2
REMARK VINA RESULT:      -5.0      1.188      1.432
REMARK  4 active torsions:
REMARK  status: ('A' for Active; 'I' for Inactive)
REMARK    1  A    between atoms: C_4  and  C_1 
REMARK       I    between atoms: N_9  and  C_4 
REMARK    2  A    between atoms: C_7  and  C_13 
REMARK    3  A    between atoms: C_12  and  N_9 
REMARK    4  A    between atoms: C_13  and  C_12 
ROOT
ATOM      1  C   UNL d   1      57.687  -0.246  30.417  0.00  0.00     0.302 C 
ATOM      2  O   UNL d   1      57.475   0.530  30.316  0.00  0.00    -0.263 OA
ATOM      3  N   UNL d   1      57.422  -0.665  31.094  0.00  0.00    -0.205 NA
ENDROOT
BRANCH   3   4
ATOM      4  C   UNL d   1      56.952  -0.279  31.640  0.00  0.00     0.102 C 
BRANCH   4   5
ATOM      5  C   UNL d   1      56.664  -0.683  32.303  0.00  0.00     0.021 C 
BRANCH   5   6
ATOM      6  C   UNL d   1      56.263  -0.277  32.893  0.00  0.00     0.002 A 
ATOM      7  C   UNL d   1      55.453  -0.431  33.021  0.00  0.00     0.000 A 
ATOM      8  C   UNL d   1      55.040  -0.030  33.611  0.00  0.00     0.000 A 
ATOM      9  C   UNL d   1      55.423   0.530  34.082  0.00  0.00     0.000 A 
ATOM     10  C   UNL d   1      56.218   0.681  33.956  0.00  0.00     0.000 A 
ATOM     11  C   UNL d   1      56.635   0.276  33.361  0.00  0.00     0.000 A 
ENDBRANCH   5   6
ENDBRANCH   4   5
ENDBRANCH   3   4
BRANCH   1  12
ATOM     12  C   UNL d   1      58.162  -0.630  29.863  0.00  0.00     0.158 A 
ATOM     13  O   UNL d   1      58.345  -1.435  29.803  0.00  0.00    -0.296 OA
ATOM     14  C   UNL d   1      58.845  -1.553  29.152  0.00  0.00     0.134 A 
ATOM     15 BR   UNL d   1      59.155  -2.281  28.902  0.00  0.00    -0.022 Br
ATOM     16  C   UNL d   1      58.970  -0.812  28.809  0.00  0.00     0.034 A 
ATOM     17  C   UNL d   1      58.557  -0.250  29.237  0.00  0.00     0.032 A 
ENDBRANCH   1  12
TORSDOF 4
ENDMDL
MODEL 3
REMARK VINA RESULT:      -4.9      2.172      4.658
REMARK  4 active torsions:
REMARK  status: ('A' for Active; 'I' for Inactive)
REMARK    1  A    between atoms: C_4  and  C_1 
REMARK       I    between atoms: N_9  and  C_4 
REMARK    2  A    between atoms: C_7  and  C_13 
REMARK    3  A    between atoms: C_12  and  N_9 
REMARK    4  A    between atoms: C_13  and  C_12 
ROOT
ATOM      1  C   UNL d   1      56.828  -0.706  31.712  0.00  0.00     0.302 C 
ATOM      2  O   UNL d   1      56.999  -1.459  31.466  0.00  0.00    -0.263 OA
ATOM      3  N   UNL d   1      57.186  -0.051  31.328  0.00  0.00    -0.205 NA
ENDROOT
BRANCH   3   4
ATOM      4  C   UNL d   1      57.701  -0.188  30.709  0.00  0.00     0.102 C 
BRANCH   4   5
ATOM      5  C   UNL d   1      57.930   0.432  30.210  0.00  0.00     0.021 C 
BRANCH   5   6
ATOM      6  C   UNL d   1      58.595   0.358  29.734  0.00  0.00     0.002 A 
ATOM      7  C   UNL d   1      58.509   0.101  28.945  0.00  0.00     0.000 A 
ATOM      8  C   UNL d   1      59.168   0.022  28.458  0.00  0.00     0.000 A 
ATOM      9  C   UNL d   1      59.924   0.197  28.745  0.00  0.00     0.000 A 
ATOM     10  C   UNL d   1      60.007   0.449  29.520  0.00  0.00     0.000 A 
ATOM     11  C   UNL d   1      59.341   0.528  30.012  0.00  0.00     0.000 A 
ENDBRANCH   5   6
ENDBRANCH   4   5
ENDBRANCH   3   4
BRANCH   1  12
ATOM     12  C   UNL d   1      56.307  -0.574  32.337  0.00  0.00     0.158 A 
ATOM     13  O   UNL d   1      56.112   0.139  32.711  0.00  0.00    -0.296 OA
ATOM     14  C   UNL d   1      55.560  -0.011  33.312  0.00  0.00     0.134 A 
ATOM     15 BR   UNL d   1      55.224   0.556  33.816  0.00  0.00    -0.022 Br
ATOM     16  C   UNL d   1      55.415  -0.824  33.306  0.00  0.00     0.034 A 
ATOM     17  C   UNL d   1      55.866  -1.169  32.716  0.00  0.00     0.032 A 
ENDBRANCH   1  12
TORSDOF 4
ENDMDL
MODEL 4
REMARK VINA RESULT:      -4.3      1.149      1.507
REMARK  4 active torsions:
REMARK  status: ('A' for Active; 'I' for Inactive)
REMARK    1  A    between atoms: C_4  and  C_1 
REMARK       I    between atoms: N_9  and  C_4 
REMARK    2  A    between atoms: C_7  and  C_13 
REMARK    3  A    between atoms: C_12  and  N_9 
REMARK    4  A    between atoms: C_13  and  C_12 
ROOT
ATOM      1  C   UNL d   1      57.403  -0.600  30.916  0.00  0.00     0.302 C 
ATOM      2  O   UNL d   1      57.065  -1.307  31.122  0.00  0.00    -0.263 OA
ATOM      3  N   UNL d   1      57.259   0.082  31.384  0.00  0.00    -0.205 NA
ENDROOT
BRANCH   3   4
ATOM      4  C   UNL d   1      56.779   0.017  32.042  0.00  0.00     0.102 C 
BRANCH   4   5
ATOM      5  C   UNL d   1      56.621   0.680  32.512  0.00  0.00     0.021 C 
BRANCH   5   6
ATOM      6  C   UNL d   1      56.136   0.615  33.171  0.00  0.00     0.002 A 
ATOM      7  C   UNL d   1      56.477   0.579  33.931  0.00  0.00     0.000 A 
ATOM      8  C   UNL d   1      56.000   0.514  34.600  0.00  0.00     0.000 A 
ATOM      9  C   UNL d   1      55.177   0.484  34.525  0.00  0.00     0.000 A 
ATOM     10  C   UNL d   1      54.843   0.520  33.778  0.00  0.00     0.000 A 
ATOM     11  C   UNL d   1      55.325   0.585  33.103  0.00  0.00     0.000 A 
ENDBRANCH   5   6
ENDBRANCH   4   5
ENDBRANCH   3   4
BRANCH   1  12
ATOM     12  C   UNL d   1      57.887  -0.540  30.252  0.00  0.00     0.158 A 
ATOM     13  O   UNL d   1      57.922   0.063  29.684  0.00  0.00    -0.296 OA
ATOM     14  C   UNL d   1      58.498  -0.128  29.120  0.00  0.00     0.134 A 
ATOM     15 BR   UNL d   1      58.703   0.333  28.460  0.00  0.00    -0.022 Br
ATOM     16  C   UNL d   1      58.821  -0.855  29.343  0.00  0.00     0.034 A 
ATOM     17  C   UNL d   1      58.453  -1.108  30.028  0.00  0.00     0.032 A 
ENDBRANCH   1  12
TORSDOF 4
ENDMDL
MODEL 5
REMARK VINA RESULT:      -3.6      2.111      4.635
REMARK  4 active torsions:
REMARK  status: ('A' for Active; 'I' for Inactive)
REMARK    1  A    between atoms: C_4  and  C_1 
REMARK       I    between atoms: N_9  and  C_4 
REMARK    2  A    between atoms: C_7  and  C_13 
REMARK    3  A    between atoms: C_12  and  N_9 
REMARK    4  A    between atoms: C_13  and  C_12 
ROOT
ATOM      1  C   UNL d   1      57.505  -0.007  31.285  0.00  0.00     0.302 C 
ATOM      2  O   UNL d   1      58.025   0.615  31.274  0.00  0.00    -0.263 OA
ATOM      3  N   UNL d   1      57.592  -0.633  30.733  0.00  0.00    -0.205 NA
ENDROOT
BRANCH   3   4
ATOM      4  C   UNL d   1      58.204  -0.601  30.192  0.00  0.00     0.102 C 
BRANCH   4   5
ATOM      5  C   UNL d   1      58.225  -1.128  29.553  0.00  0.00     0.021 C 
BRANCH   5   6
ATOM      6  C   UNL d   1      58.941  -1.334  29.209  0.00  0.00     0.002 A 
ATOM      7  C   UNL d   1      59.386  -0.753  28.808  0.00  0.00     0.000 A 
ATOM      8  C   UNL d   1      60.107  -0.948  28.458  0.00  0.00     0.000 A 
ATOM      9  C   UNL d   1      60.397  -1.721  28.502  0.00  0.00     0.000 A 
ATOM     10  C   UNL d   1      59.959  -2.290  28.896  0.00  0.00     0.000 A 
ATOM     11  C   UNL d   1      59.232  -2.094  29.248  0.00  0.00     0.000 A 
ENDBRANCH   5   6
ENDBRANCH   4   5
ENDBRANCH   3   4
BRANCH   1  12
ATOM     12  C   UNL d   1      56.890  -0.034  31.833  0.00  0.00     0.158 A 
ATOM     13  O   UNL d   1      56.569  -0.688  32.226  0.00  0.00    -0.296 OA
ATOM     14  C   UNL d   1      55.957  -0.434  32.724  0.00  0.00     0.134 A 
ATOM     15 BR   UNL d   1      55.496  -0.921  33.213  0.00  0.00    -0.022 Br
ATOM     16  C   UNL d   1      55.902   0.385  32.637  0.00  0.00     0.034 A 
ATOM     17  C   UNL d   1      56.466   0.632  32.097  0.00  0.00     0.032 A 
ENDBRANCH   1  12
TORSDOF 4
ENDMDL
MODEL 6
REMARK VINA RESULT:      -2.3      9.953     10.240
REMARK  4 active torsions:
REMARK  status: ('A' for Active; 'I' for Inactive)
REMARK    1  A    between atoms: C_4  and  C_1 
REMARK       I    between atoms: N_9  and  C_4 
REMARK    2  A    between atoms: C_7  and  C_13 
REMARK    3  A    between atoms: C_12  and  N_9 
REMARK    4  A    between atoms: C_13  and  C_12 
ROOT
ATOM      1  C   UNL d   1      58.258  -9.739  32.552  0.00  0.00     0.302 C 
ATOM      2  O   UNL d   1      57.643  -9.751  33.081  0.00  0.00    -0.263 OA
ATOM      3  N   UNL d   1      59.048  -9.697  32.833  0.00  0.00    -0.205 NA
ENDROOT
BRANCH   3   4
ATOM      4  C   UNL d   1      59.180  -9.670  33.639  0.00  0.00     0.102 C 
BRANCH   4   5
ATOM      5  C   UNL d   1      59.941  -9.523  33.932  0.00  0.00     0.021 C 
BRANCH   5   6
ATOM      6  C   UNL d   1      60.046  -9.286  34.711  0.00  0.00     0.002 A 
ATOM      7  C   UNL d   1      59.761  -9.769  35.330  0.00  0.00     0.000 A 
ATOM      8  C   UNL d   1      59.860  -9.542  36.116  0.00  0.00     0.000 A 
ATOM      9  C   UNL d   1      60.243  -8.833  36.301  0.00  0.00     0.000 A 
ATOM     10  C   UNL d   1      60.522  -8.360  35.693  0.00  0.00     0.000 A 
ATOM     11  C   UNL d   1      60.422  -8.589  34.900  0.00  0.00     0.000 A 
ENDBRANCH   5   6
ENDBRANCH   4   5
ENDBRANCH   3   4
BRANCH   1  12
ATOM     12  C   UNL d   1      58.118  -9.766  31.741  0.00  0.00     0.158 A 
ATOM     13  O   UNL d   1      58.663  -9.772  31.117  0.00  0.00    -0.296 OA
ATOM     14  C   UNL d   1      58.253  -9.803  30.397  0.00  0.00     0.134 A 
ATOM     15 BR   UNL d   1      58.597  -9.818  29.642  0.00  0.00    -0.022 Br
ATOM     16  C   UNL d   1      57.448  -9.816  30.580  0.00  0.00     0.034 A 
ATOM     17  C   UNL d   1      57.361  -9.793  31.394  0.00  0.00     0.032 A 
ENDBRANCH   1  12
TORSDOF 4
ENDMDL
MODEL 7
REMARK VINA RESULT:      -2.3      9.889     10.384
REMARK  4 active torsions:
REMARK  status: ('A' for Active; 'I' for Inactive)
REMARK    1  A    between atoms: C_4  and  C_1 
REMARK       I    between atoms: N_9  and  C_4 
REMARK    2  A    between atoms: C_7  and  C_13 
REMARK    3  A    between atoms: C_12  and  N_9 
REMARK    4  A    between atoms: C_13  and  C_12 
ROOT
ATOM      1  C   UNL d   1      59.473  -9.515  33.143  0.00  0.00     0.302 C 
ATOM      2  O   UNL d   1      60.057  -9.645  32.596  0.00  0.00    -0.263 OA
ATOM      3  N   UNL d   1      58.668  -9.597  32.919  0.00  0.00    -0.205 NA
ENDROOT
BRANCH   3   4
ATOM      4  C   UNL d   1      58.491  -9.806  32.149  0.00  0.00     0.102 C 
BRANCH   4   5
ATOM      5  C   UNL d   1      57.720  -9.718  31.859  0.00  0.00     0.021 C 
BRANCH   5   6
ATOM      6  C   UNL d   1      57.577  -9.739  31.051  0.00  0.00     0.002 A 
ATOM      7  C   UNL d   1      56.792  -9.795  30.774  0.00  0.00     0.000 A 
ATOM      8  C   UNL d   1      56.635  -9.818  29.965  0.00  0.00     0.000 A 
ATOM      9  C   UNL d   1      57.254  -9.786  29.418  0.00  0.00     0.000 A 
ATOM     10  C   UNL d   1      58.025  -9.731  29.692  0.00  0.00     0.000 A 
ATOM     11  C   UNL d   1      58.183  -9.708  30.507  0.00  0.00     0.000 A 
ENDBRANCH   5   6
ENDBRANCH   4   5
ENDBRANCH   3   4
BRANCH   1  12
ATOM     12  C   UNL d   1      59.657  -9.305  33.918  0.00  0.00     0.158 A 
ATOM     13  O   UNL d   1      59.350  -8.688  34.378  0.00  0.00    -0.296 OA
ATOM     14  C   UNL d   1      59.711  -8.700  35.125  0.00  0.00     0.134 A 
ATOM     15 BR   UNL d   1      59.556  -8.173  35.747  0.00  0.00    -0.022 Br
ATOM     16  C   UNL d   1      60.245  -9.330  35.123  0.00  0.00     0.034 A 
ATOM     17  C   UNL d   1      60.215  -9.699  34.393  0.00  0.00     0.032 A 
ENDBRANCH   1  12
TORSDOF 4
ENDMDL
