MODEL 1
REMARK VINA RESULT:      10.8      0.000      0.000
REMARK  5 active torsions:
REMARK  status: ('A' for Active; 'I' for Inactive)
REMARK    1  A    between atoms: N_2  and  S_1 
REMARK    2  A    between atoms: N_6  and  S_1 
REMARK    3  A    between atoms: C_3  and  N_4 
REMARK       I    between atoms: N_4  and  C_5 
REMARK    4  A    between atoms: C_5  and  C_14 
REMARK    5  A    between atoms: C_14  and  N_7 
ROOT
ATOM      1  N   UNL d   1      45.640 -14.388  44.456  0.00  0.00    -0.213 N 
ATOM      2  N   UNL d   1      45.808 -15.982  44.786  0.00  0.00    -0.296 N 
ATOM      3  C   UNL d   1      45.007 -14.813  44.764  0.00  0.00     0.112 A 
ATOM      4  C   UNL d   1      46.370 -14.764  44.309  0.00  0.00     0.112 A 
ATOM      5  C   UNL d   1      45.092 -15.617  44.930  0.00  0.00     0.100 A 
ATOM      6  C   UNL d   1      46.454 -15.568  44.476  0.00  0.00     0.100 A 
ENDROOT
BRANCH   2   7
ATOM      7  C   UNL d   1      45.894 -16.798  44.955  0.00  0.00     0.144 C 
BRANCH   7   8
ATOM      8  C   UNL d   1      45.916 -17.348  44.334  0.00  0.00     0.297 C 
ATOM      9  N   UNL d   1      46.472 -17.955  44.337  0.00  0.00    -0.206 NA
ATOM     10  O   UNL d   1      45.378 -17.284  43.712  0.00  0.00    -0.264 OA
BRANCH   9  11
ATOM     11  C   UNL d   1      46.492 -18.502  43.717  0.00  0.00     0.096 A 
ATOM     12  C   UNL d   1      46.559 -18.234  42.940  0.00  0.00     0.032 A 
ATOM     13  C   UNL d   1      46.579 -18.780  42.319  0.00  0.00     0.059 A 
ATOM     14 CL   UNL d   1      46.646 -18.513  41.542  0.00  0.00    -0.082 Cl
ATOM     15  C   UNL d   1      46.534 -19.587  42.479  0.00  0.00     0.012 A 
ATOM     16  C   UNL d   1      46.467 -19.851  43.258  0.00  0.00     0.014 A 
ATOM     17  C   UNL d   1      46.447 -19.304  43.878  0.00  0.00     0.075 A 
ATOM     18 CL   UNL d   1      46.381 -19.560  44.660  0.00  0.00    -0.081 Cl
ENDBRANCH   9  11
ENDBRANCH   7   8
ENDBRANCH   2   7
BRANCH   1  19
ATOM     19  S   UNL d   1      45.556 -13.584  44.289  0.00  0.00     0.337 S 
ATOM     20  O   UNL d   1      45.479 -13.331  43.502  0.00  0.00    -0.181 OA
ATOM     21  O   UNL d   1      45.547 -13.034  44.902  0.00  0.00    -0.181 OA
BRANCH  19  22
ATOM     22  N   UNL d   1      45.471 -12.781  44.123  0.00  0.00    -0.213 N 
ATOM     23  C   UNL d   1      45.091 -12.541  43.425  0.00  0.00     0.113 C 
ATOM     24  C   UNL d   1      45.763 -12.217  44.648  0.00  0.00     0.113 C 
ENDBRANCH  19  22
ENDBRANCH   1  19
TORSDOF 5
ENDMDL
