MODEL 1
REMARK VINA RESULT:       6.8      0.000      0.000
REMARK  4 active torsions:
REMARK  status: ('A' for Active; 'I' for Inactive)
REMARK    1  A    between atoms: C_11  and  C_4 
REMARK    2  A    between atoms: C_12  and  C_5 
REMARK    3  A    between atoms: C_7  and  C_11 
REMARK    4  A    between atoms: C_8  and  C_12 
ROOT
ATOM      1  N   UNL d   1     -52.145  24.452  33.311  0.00  0.00    -0.246 NA
ATOM      2  C   UNL d   1     -50.721  23.635  33.308  0.00  0.00     0.003 A 
ATOM      3  C   UNL d   1     -51.433  23.222  33.312  0.00  0.00     0.019 A 
ATOM      4  C   UNL d   1     -52.149  23.634  33.313  0.00  0.00     0.081 A 
ATOM      5  C   UNL d   1     -51.440  24.870  33.308  0.00  0.00     0.081 A 
ATOM      6  C   UNL d   1     -50.724  24.458  33.306  0.00  0.00     0.019 A 
ATOM      7  C   UNL d   1     -50.016  23.230  33.307  0.00  0.00     0.000 C 
ENDROOT
BRANCH   4   8
ATOM      8  C   UNL d   1     -52.867  23.195  33.317  0.00  0.00     0.019 C 
BRANCH   8   9
ATOM      9  C   UNL d   1     -53.585  23.576  33.366  0.00  0.00     0.002 C 
ATOM     10  C   UNL d   1     -54.265  23.189  33.652  0.00  0.00     0.000 C 
ENDBRANCH   8   9
ENDBRANCH   4   8
BRANCH   5  11
ATOM     11  C   UNL d   1     -51.448  25.710  33.306  0.00  0.00     0.019 C 
BRANCH  11  12
ATOM     12  C   UNL d   1     -50.746  26.128  33.339  0.00  0.00     0.002 C 
ATOM     13  C   UNL d   1     -50.761  26.957  33.376  0.00  0.00     0.000 C 
ENDBRANCH  11  12
ENDBRANCH   5  11
TORSDOF 4
ENDMDL
MODEL 2
REMARK VINA RESULT:       7.6      0.384      2.957
REMARK  4 active torsions:
REMARK  status: ('A' for Active; 'I' for Inactive)
REMARK    1  A    between atoms: C_11  and  C_4 
REMARK    2  A    between atoms: C_12  and  C_5 
REMARK    3  A    between atoms: C_7  and  C_11 
REMARK    4  A    between atoms: C_8  and  C_12 
ROOT
ATOM      1  N   UNL d   1     -52.147  24.829  33.309  0.00  0.00    -0.246 NA
ATOM      2  C   UNL d   1     -50.829  23.850  33.308  0.00  0.00     0.003 A 
ATOM      3  C   UNL d   1     -50.735  24.667  33.306  0.00  0.00     0.019 A 
ATOM      4  C   UNL d   1     -51.398  25.160  33.307  0.00  0.00     0.081 A 
ATOM      5  C   UNL d   1     -52.248  24.016  33.310  0.00  0.00     0.081 A 
ATOM      6  C   UNL d   1     -51.585  23.524  33.310  0.00  0.00     0.019 A 
ATOM      7  C   UNL d   1     -50.176  23.365  33.307  0.00  0.00     0.000 C 
ENDROOT
BRANCH   4   8
ATOM      8  C   UNL d   1     -51.282  25.993  33.306  0.00  0.00     0.019 C 
BRANCH   8   9
ATOM      9  C   UNL d   1     -50.534  26.307  33.381  0.00  0.00     0.002 C 
ATOM     10  C   UNL d   1     -50.399  27.128  33.330  0.00  0.00     0.000 C 
ENDBRANCH   8   9
ENDBRANCH   4   8
BRANCH   5  11
ATOM     11  C   UNL d   1     -53.021  23.688  33.312  0.00  0.00     0.019 C 
BRANCH  11  12
ATOM     12  C   UNL d   1     -53.341  23.393  34.004  0.00  0.00     0.002 C 
ATOM     13  C   UNL d   1     -54.146  23.192  34.033  0.00  0.00     0.000 C 
ENDBRANCH  11  12
ENDBRANCH   5  11
TORSDOF 4
ENDMDL
