MODEL 1
REMARK VINA RESULT:      32.3      0.000      0.000
REMARK  2 active torsions:
REMARK  status: ('A' for Active; 'I' for Inactive)
REMARK    1  A    between atoms: C_7  and  C_1 
REMARK    2  A    between atoms: C_9  and  C_1 
ROOT
ATOM      1  C   UNL d   1     -58.310 -98.789 -44.665  0.00  0.00     0.240 A 
ATOM      2  S   UNL d   1     -57.905 -98.778 -43.947  0.00  0.00    -0.043 SA
ATOM      3  N   UNL d   1     -57.891 -98.793 -45.376  0.00  0.00    -0.199 NA
ATOM      4  C   UNL d   1     -57.086 -98.770 -43.944  0.00  0.00     0.181 A 
ATOM      5  N   UNL d   1     -56.651 -98.774 -44.659  0.00  0.00    -0.236 N 
ATOM      6  C   UNL d   1     -57.068 -98.786 -45.369  0.00  0.00     0.352 A 
ATOM      7  N   UNL d   1     -56.537 -98.759 -43.316  0.00  0.00    -0.219 NA
ATOM      8  O   UNL d   1     -56.654 -98.790 -46.082  0.00  0.00    -0.244 OA
ATOM      9  C   UNL d   1     -55.849 -98.765 -44.468  0.00  0.00     0.107 A 
ATOM     10  C   UNL d   1     -55.779 -98.756 -43.643  0.00  0.00     0.120 A 
ENDROOT
BRANCH   1  11
ATOM     11  C   UNL d   1     -58.715 -98.801 -45.382  0.00  0.00     0.429 C 
ATOM     12  F   UNL d   1     -59.088 -98.811 -46.035  0.00  0.00    -0.167 F 
ATOM     13  F   UNL d   1     -58.410 -98.755 -46.177  0.00  0.00    -0.167 F 
ATOM     14  F   UNL d   1     -59.562 -98.862 -45.519  0.00  0.00    -0.167 F 
ENDBRANCH   1  11
BRANCH   1  15
ATOM     15  C   UNL d   1     -58.722 -98.785 -43.950  0.00  0.00     0.016 A 
ATOM     16  C   UNL d   1     -59.541 -98.806 -43.953  0.00  0.00    -0.001 A 
ATOM     17  C   UNL d   1     -59.953 -98.802 -43.238  0.00  0.00    -0.000 A 
ATOM     18  C   UNL d   1     -59.544 -98.777 -42.519  0.00  0.00    -0.000 A 
ATOM     19  C   UNL d   1     -58.719 -98.756 -42.527  0.00  0.00    -0.000 A 
ATOM     20  C   UNL d   1     -59.956 -98.773 -41.805  0.00  0.00    -0.000 C 
ATOM     21  C   UNL d   1     -58.312 -98.760 -43.234  0.00  0.00    -0.001 A 
ENDBRANCH   1  15
TORSDOF 2
ENDMDL
