MODEL 1
REMARK VINA RESULT:      37.6      0.000      0.000
REMARK  7 active torsions:
REMARK  status: ('A' for Active; 'I' for Inactive)
REMARK    1  A    between atoms: C_8  and  N_1 
REMARK       I    between atoms: C_3  and  N_5 
REMARK       I    between atoms: N_9  and  C_3 
REMARK    2  A    between atoms: N_5  and  C_6 
REMARK    3  A    between atoms: C_18  and  N_9 
REMARK    4  A    between atoms: C_19  and  N_9 
REMARK    5  A    between atoms: O_17  and  C_14 
REMARK    6  A    between atoms: C_21  and  C_18 
REMARK    7  A    between atoms: C_22  and  C_19 
ROOT
ATOM      1  N   UNL d   1      14.778  12.962  -1.599  0.00  0.00    -0.272 N 
ATOM      2  C   UNL d   1      14.429  12.286  -1.272  0.00  0.00     0.266 A 
ATOM      3  C   UNL d   1      13.971  11.937  -1.869  0.00  0.00     0.082 A 
ATOM      4  C   UNL d   1      14.040  12.395  -2.552  0.00  0.00     0.108 A 
ATOM      5  C   UNL d   1      14.541  13.028  -2.378  0.00  0.00     0.102 A 
ATOM      6  O   UNL d   1      14.519  12.013  -0.504  0.00  0.00    -0.267 OA
ENDROOT
BRANCH   4   7
ATOM      7  N   UNL d   1      13.671  12.242  -3.277  0.00  0.00    -0.190 NA
ATOM      8  C   UNL d   1      13.408  12.867  -3.738  0.00  0.00     0.354 C 
ATOM      9  N   UNL d   1      13.039  12.720  -4.463  0.00  0.00    -0.256 N 
ATOM     10  O   UNL d   1      13.509  13.643  -3.485  0.00  0.00    -0.244 OA
BRANCH   9  11
ATOM     11  C   UNL d   1      12.770  13.345  -4.936  0.00  0.00     0.085 C 
BRANCH  11  12
ATOM     12  C   UNL d   1      12.954  14.122  -4.753  0.00  0.00     0.019 C 
ATOM     13  C   UNL d   1      13.497  14.550  -5.201  0.00  0.00     0.002 C 
ENDBRANCH  11  12
ENDBRANCH   9  11
BRANCH   9  14
ATOM     14  C   UNL d   1      12.937  11.941  -4.719  0.00  0.00     0.085 C 
BRANCH  14  15
ATOM     15  C   UNL d   1      12.909  11.780  -5.526  0.00  0.00     0.019 C 
ATOM     16  C   UNL d   1      13.586  11.903  -5.996  0.00  0.00     0.002 C 
ENDBRANCH  14  15
ENDBRANCH   9  14
ENDBRANCH   4   7
BRANCH   1  17
ATOM     17  C   UNL d   1      15.281  13.480  -1.200  0.00  0.00     0.067 A 
ATOM     18  C   UNL d   1      16.017  13.673  -1.526  0.00  0.00     0.020 A 
ATOM     19  C   UNL d   1      16.520  14.191  -1.128  0.00  0.00     0.026 A 
ATOM     20  C   UNL d   1      16.291  14.516  -0.406  0.00  0.00     0.094 A 
ATOM     21  C   UNL d   1      15.560  14.327  -0.078  0.00  0.00     0.026 A 
ATOM     22  C   UNL d   1      15.052  13.804  -0.480  0.00  0.00     0.020 A 
BRANCH  20  23
ATOM     23  O   UNL d   1      16.800  15.033  -0.014  0.00  0.00    -0.328 OA
ATOM     24  C   UNL d   1      16.778  15.836  -0.195  0.00  0.00     0.181 C 
ENDBRANCH  20  23
ENDBRANCH   1  17
TORSDOF 7
ENDMDL
