MODEL 1
REMARK VINA RESULT:      12.6      0.000      0.000
REMARK  4 active torsions:
REMARK  status: ('A' for Active; 'I' for Inactive)
REMARK    1  A    between atoms: C_2  and  C_1 
REMARK    2  A    between atoms: C_3  and  C_4 
REMARK       I    between atoms: N_12  and  C_3 
REMARK    3  A    between atoms: C_4  and  C_5 
REMARK    4  A    between atoms: C_5  and  C_11 
ROOT
ATOM      1  C   UNL d   1     -58.657 -98.763 -43.465  0.00  0.00     0.071 A 
ATOM      2  C   UNL d   1     -57.833 -98.761 -43.422  0.00  0.00     0.004 A 
ATOM      3  C   UNL d   1     -57.385 -98.757 -44.114  0.00  0.00     0.000 A 
ATOM      4  C   UNL d   1     -59.035 -98.762 -44.205  0.00  0.00     0.004 A 
ATOM      5  C   UNL d   1     -58.587 -98.758 -44.897  0.00  0.00    -0.000 A 
ATOM      6  C   UNL d   1     -57.763 -98.756 -44.854  0.00  0.00    -0.000 A 
ENDROOT
BRANCH   3   7
ATOM      7  C   UNL d   1     -56.557 -98.755 -44.063  0.00  0.00     0.005 C 
BRANCH   7   8
ATOM      8  C   UNL d   1     -56.108 -99.135 -44.652  0.00  0.00     0.062 C 
BRANCH   8   9
ATOM      9  C   UNL d   1     -55.453 -99.592 -44.443  0.00  0.00     0.279 C 
ATOM     10  O   UNL d   1     -54.790 -99.226 -44.111  0.00  0.00    -0.265 OA
ATOM     11  N   UNL d   1     -55.460-100.409 -44.564  0.00  0.00    -0.205 NA
ATOM     12  C   UNL d   1     -54.800-100.863 -44.352  0.00  0.00     0.123 C 
ENDBRANCH   8   9
ENDBRANCH   7   8
ENDBRANCH   3   7
BRANCH   1  13
ATOM     13  C   UNL d   1     -59.106 -98.766 -42.776  0.00  0.00     0.419 C 
ATOM     14  F   UNL d   1     -58.836 -98.779 -41.944  0.00  0.00    -0.166 F 
ATOM     15  F   UNL d   1     -59.961 -98.758 -42.676  0.00  0.00    -0.166 F 
ATOM     16  F   UNL d   1     -59.513 -98.769 -42.141  0.00  0.00    -0.166 F 
ENDBRANCH   1  13
TORSDOF 4
ENDMDL
MODEL 2
REMARK VINA RESULT:      14.0      2.725      3.937
REMARK  4 active torsions:
REMARK  status: ('A' for Active; 'I' for Inactive)
REMARK    1  A    between atoms: C_2  and  C_1 
REMARK    2  A    between atoms: C_3  and  C_4 
REMARK       I    between atoms: N_12  and  C_3 
REMARK    3  A    between atoms: C_4  and  C_5 
REMARK    4  A    between atoms: C_5  and  C_11 
ROOT
ATOM      1  C   UNL d   1     -55.419-100.404 -44.401  0.00  0.00     0.071 A 
ATOM      2  C   UNL d   1     -56.128 -99.988 -44.472  0.00  0.00     0.004 A 
ATOM      3  C   UNL d   1     -56.133 -99.167 -44.388  0.00  0.00     0.000 A 
ATOM      4  C   UNL d   1     -54.712 -99.997 -44.244  0.00  0.00     0.004 A 
ATOM      5  C   UNL d   1     -54.717 -99.176 -44.160  0.00  0.00    -0.000 A 
ATOM      6  C   UNL d   1     -55.426 -98.760 -44.231  0.00  0.00    -0.000 A 
ENDROOT
BRANCH   3   7
ATOM      7  C   UNL d   1     -56.850 -98.756 -44.461  0.00  0.00     0.005 C 
BRANCH   7   8
ATOM      8  C   UNL d   1     -57.504 -98.985 -44.001  0.00  0.00     0.062 C 
BRANCH   8   9
ATOM      9  C   UNL d   1     -58.270 -98.885 -44.292  0.00  0.00     0.279 C 
ATOM     10  O   UNL d   1     -58.387 -98.789 -45.105  0.00  0.00    -0.265 OA
ATOM     11  N   UNL d   1     -58.914 -98.881 -43.775  0.00  0.00    -0.205 NA
ATOM     12  C   UNL d   1     -59.681 -98.781 -44.073  0.00  0.00     0.123 C 
ENDBRANCH   8   9
ENDBRANCH   7   8
ENDBRANCH   3   7
BRANCH   1  13
ATOM     13  C   UNL d   1     -55.410-101.222 -44.484  0.00  0.00     0.419 C 
ATOM     14  F   UNL d   1     -55.542-101.838 -43.877  0.00  0.00    -0.166 F 
ATOM     15  F   UNL d   1     -55.270-101.702 -45.184  0.00  0.00    -0.166 F 
ATOM     16  F   UNL d   1     -55.403-101.973 -44.555  0.00  0.00    -0.166 F 
ENDBRANCH   1  13
TORSDOF 4
ENDMDL
