MODEL 1
REMARK VINA RESULT:       2.7      0.000      0.000
REMARK  5 active torsions:
REMARK  status: ('A' for Active; 'I' for Inactive)
REMARK    1  A    between atoms: C_2  and  S_1 
REMARK    2  A    between atoms: N_3  and  S_1 
REMARK    3  A    between atoms: C_21  and  N_8 
REMARK    4  A    between atoms: O_26  and  C_16 
REMARK    5  A    between atoms: C_19  and  C_21 
ROOT
ATOM      1  N   UNL d   1      31.107  17.736 -23.941  0.00  0.00    -0.226 N 
ATOM      2  N   UNL d   1      32.447  18.657 -23.661  0.00  0.00    -0.300 N 
ATOM      3  C   UNL d   1      31.042  18.457 -23.529  0.00  0.00     0.111 A 
ATOM      4  C   UNL d   1      31.844  17.486 -24.208  0.00  0.00     0.111 A 
ATOM      5  C   UNL d   1      31.718  18.910 -23.394  0.00  0.00     0.100 A 
ATOM      6  C   UNL d   1      32.511  17.936 -24.073  0.00  0.00     0.100 A 
ENDROOT
BRANCH   1   7
ATOM      7  S   UNL d   1      30.435  17.285 -24.075  0.00  0.00     0.271 S 
ATOM      8  O   UNL d   1      29.986  17.969 -24.182  0.00  0.00    -0.200 OA
ATOM      9  O   UNL d   1      30.884  16.596 -23.968  0.00  0.00    -0.200 OA
BRANCH   7  10
ATOM     10  C   UNL d   1      29.765  16.831 -24.209  0.00  0.00     0.104 A 
ATOM     11  C   UNL d   1      29.442  16.371 -23.604  0.00  0.00     0.014 A 
ATOM     12  C   UNL d   1      28.767  15.915 -23.742  0.00  0.00     0.023 A 
ATOM     13  C   UNL d   1      29.798  16.369 -22.858  0.00  0.00     0.001 A 
ATOM     14  C   UNL d   1      28.450  15.463 -23.147  0.00  0.00     0.002 A 
ATOM     15  C   UNL d   1      28.411  15.917 -24.488  0.00  0.00     0.094 A 
ATOM     16  C   UNL d   1      28.798  15.454 -22.398  0.00  0.00     0.000 A 
ATOM     17  C   UNL d   1      29.474  15.910 -22.257  0.00  0.00     0.000 A 
ATOM     18  C   UNL d   1      28.732  16.375 -25.093  0.00  0.00     0.025 A 
ATOM     19  C   UNL d   1      29.406  16.833 -24.961  0.00  0.00     0.015 A 
BRANCH  15  20
ATOM     20  O   UNL d   1      27.745  15.467 -24.624  0.00  0.00    -0.328 OA
ATOM     21  C   UNL d   1      27.130  15.771 -25.072  0.00  0.00     0.181 C 
ENDBRANCH  15  20
ENDBRANCH   7  10
ENDBRANCH   1   7
BRANCH   2  22
ATOM     22  C   UNL d   1      33.124  19.110 -23.526  0.00  0.00     0.080 C 
BRANCH  22  23
ATOM     23  C   UNL d   1      33.119  19.724 -22.976  0.00  0.00     0.020 A 
ATOM     24  C   UNL d   1      32.997  19.570 -22.186  0.00  0.00     0.028 A 
ATOM     25  C   UNL d   1      32.992  20.183 -21.637  0.00  0.00     0.119 A 
ATOM     26  O   UNL d   1      32.885  20.196 -20.820  0.00  0.00    -0.300 OA
ATOM     27  C   UNL d   1      33.113  20.967 -21.895  0.00  0.00     0.119 A 
ATOM     28  C   UNL d   1      32.938  20.980 -20.570  0.00  0.00     0.304 A 
ATOM     29  O   UNL d   1      33.078  21.450 -21.232  0.00  0.00    -0.300 OA
ATOM     30  C   UNL d   1      33.236  21.116 -22.693  0.00  0.00     0.026 A 
ATOM     31  C   UNL d   1      33.240  20.507 -23.233  0.00  0.00     0.004 A 
ENDBRANCH  22  23
ENDBRANCH   2  22
TORSDOF 5
ENDMDL
MODEL 2
REMARK VINA RESULT:       4.0      3.641      5.583
REMARK  5 active torsions:
REMARK  status: ('A' for Active; 'I' for Inactive)
REMARK    1  A    between atoms: C_2  and  S_1 
REMARK    2  A    between atoms: N_3  and  S_1 
REMARK    3  A    between atoms: C_21  and  N_8 
REMARK    4  A    between atoms: O_26  and  C_16 
REMARK    5  A    between atoms: C_19  and  C_21 
ROOT
ATOM      1  N   UNL d   1      32.913  21.858 -20.999  0.00  0.00    -0.226 N 
ATOM      2  N   UNL d   1      32.916  23.039 -19.846  0.00  0.00    -0.300 N 
ATOM      3  C   UNL d   1      32.591  22.608 -21.165  0.00  0.00     0.111 A 
ATOM      4  C   UNL d   1      33.234  21.711 -20.255  0.00  0.00     0.111 A 
ATOM      5  C   UNL d   1      32.597  23.192 -20.582  0.00  0.00     0.100 A 
ATOM      6  C   UNL d   1      33.239  22.290 -19.681  0.00  0.00     0.100 A 
ENDROOT
BRANCH   1   7
ATOM      7  S   UNL d   1      32.907  21.278 -21.578  0.00  0.00     0.271 S 
ATOM      8  O   UNL d   1      32.904  21.855 -22.168  0.00  0.00    -0.200 OA
ATOM      9  O   UNL d   1      32.910  20.697 -20.986  0.00  0.00    -0.200 OA
BRANCH   7  10
ATOM     10  C   UNL d   1      32.901  20.695 -22.155  0.00  0.00     0.104 A 
ATOM     11  C   UNL d   1      33.011  19.903 -21.951  0.00  0.00     0.014 A 
ATOM     12  C   UNL d   1      33.004  19.317 -22.535  0.00  0.00     0.023 A 
ATOM     13  C   UNL d   1      33.127  19.697 -21.160  0.00  0.00     0.001 A 
ATOM     14  C   UNL d   1      33.112  18.538 -22.335  0.00  0.00     0.002 A 
ATOM     15  C   UNL d   1      32.888  19.524 -23.327  0.00  0.00     0.094 A 
ATOM     16  C   UNL d   1      33.229  18.321 -21.546  0.00  0.00     0.000 A 
ATOM     17  C   UNL d   1      33.236  18.905 -20.959  0.00  0.00     0.000 A 
ATOM     18  C   UNL d   1      32.779  20.314 -23.532  0.00  0.00     0.025 A 
ATOM     19  C   UNL d   1      32.784  20.903 -22.953  0.00  0.00     0.015 A 
BRANCH  15  20
ATOM     20  O   UNL d   1      32.881  18.946 -23.903  0.00  0.00    -0.328 OA
ATOM     21  C   UNL d   1      32.637  19.129 -24.663  0.00  0.00     0.181 C 
ENDBRANCH  15  20
ENDBRANCH   7  10
ENDBRANCH   1   7
BRANCH   2  22
ATOM     22  C   UNL d   1      32.922  23.623 -19.263  0.00  0.00     0.080 C 
BRANCH  22  23
ATOM     23  C   UNL d   1      32.638  23.467 -18.505  0.00  0.00     0.020 A 
ATOM     24  C   UNL d   1      33.142  23.202 -17.921  0.00  0.00     0.028 A 
ATOM     25  C   UNL d   1      32.858  23.046 -17.165  0.00  0.00     0.119 A 
ATOM     26  O   UNL d   1      33.227  22.780 -16.478  0.00  0.00    -0.300 OA
ATOM     27  C   UNL d   1      32.050  23.160 -16.997  0.00  0.00     0.119 A 
ATOM     28  C   UNL d   1      32.654  22.727 -15.887  0.00  0.00     0.304 A 
ATOM     29  O   UNL d   1      31.934  22.961 -16.208  0.00  0.00    -0.300 OA
ATOM     30  C   UNL d   1      31.547  23.427 -17.589  0.00  0.00     0.026 A 
ATOM     31  C   UNL d   1      31.830  23.580 -18.336  0.00  0.00     0.004 A 
ENDBRANCH  22  23
ENDBRANCH   2  22
TORSDOF 5
ENDMDL
MODEL 3
REMARK VINA RESULT:       4.5      2.525      3.895
REMARK  5 active torsions:
REMARK  status: ('A' for Active; 'I' for Inactive)
REMARK    1  A    between atoms: C_2  and  S_1 
REMARK    2  A    between atoms: N_3  and  S_1 
REMARK    3  A    between atoms: C_21  and  N_8 
REMARK    4  A    between atoms: O_26  and  C_16 
REMARK    5  A    between atoms: C_19  and  C_21 
ROOT
ATOM      1  N   UNL d   1      32.624  20.247 -22.576  0.00  0.00    -0.226 N 
ATOM      2  N   UNL d   1      32.649  21.791 -21.994  0.00  0.00    -0.300 N 
ATOM      3  C   UNL d   1      32.297  20.420 -21.829  0.00  0.00     0.111 A 
ATOM      4  C   UNL d   1      32.960  20.852 -23.021  0.00  0.00     0.111 A 
ATOM      5  C   UNL d   1      32.314  21.195 -21.548  0.00  0.00     0.100 A 
ATOM      6  C   UNL d   1      32.976  21.617 -22.740  0.00  0.00     0.100 A 
ENDROOT
BRANCH   1   7
ATOM      7  S   UNL d   1      32.607  19.476 -22.856  0.00  0.00     0.271 S 
ATOM      8  O   UNL d   1      32.934  19.203 -22.150  0.00  0.00    -0.200 OA
ATOM      9  O   UNL d   1      32.278  19.750 -23.567  0.00  0.00    -0.200 OA
BRANCH   7  10
ATOM     10  C   UNL d   1      32.588  18.707 -23.139  0.00  0.00     0.104 A 
ATOM     11  C   UNL d   1      32.073  18.497 -23.750  0.00  0.00     0.014 A 
ATOM     12  C   UNL d   1      32.057  17.721 -24.033  0.00  0.00     0.023 A 
ATOM     13  C   UNL d   1      31.573  19.068 -24.077  0.00  0.00     0.001 A 
ATOM     14  C   UNL d   1      31.551  17.515 -24.634  0.00  0.00     0.002 A 
ATOM     15  C   UNL d   1      32.557  17.150 -23.706  0.00  0.00     0.094 A 
ATOM     16  C   UNL d   1      31.047  18.078 -24.967  0.00  0.00     0.000 A 
ATOM     17  C   UNL d   1      31.061  18.856 -24.685  0.00  0.00     0.000 A 
ATOM     18  C   UNL d   1      33.072  17.357 -23.097  0.00  0.00     0.025 A 
ATOM     19  C   UNL d   1      33.092  18.132 -22.810  0.00  0.00     0.015 A 
BRANCH  15  20
ATOM     20  O   UNL d   1      32.541  16.384 -23.986  0.00  0.00    -0.328 OA
ATOM     21  C   UNL d   1      33.231  16.029 -24.247  0.00  0.00     0.181 C 
ENDBRANCH  15  20
ENDBRANCH   7  10
ENDBRANCH   1   7
BRANCH   2  22
ATOM     22  C   UNL d   1      32.666  22.567 -21.713  0.00  0.00     0.080 C 
BRANCH  22  23
ATOM     23  C   UNL d   1      32.594  22.726 -20.907  0.00  0.00     0.020 A 
ATOM     24  C   UNL d   1      31.942  23.123 -20.621  0.00  0.00     0.028 A 
ATOM     25  C   UNL d   1      31.871  23.282 -19.817  0.00  0.00     0.119 A 
ATOM     26  O   UNL d   1      31.288  23.664 -19.377  0.00  0.00    -0.300 OA
ATOM     27  C   UNL d   1      32.469  23.034 -19.294  0.00  0.00     0.119 A 
ATOM     28  C   UNL d   1      31.521  23.655 -18.586  0.00  0.00     0.304 A 
ATOM     29  O   UNL d   1      32.246  23.268 -18.538  0.00  0.00    -0.300 OA
ATOM     30  C   UNL d   1      33.124  22.634 -19.587  0.00  0.00     0.026 A 
ATOM     31  C   UNL d   1      33.192  22.478 -20.383  0.00  0.00     0.004 A 
ENDBRANCH  22  23
ENDBRANCH   2  22
TORSDOF 5
ENDMDL
