MODEL 1
REMARK VINA RESULT:      16.2      0.000      0.000
REMARK  4 active torsions:
REMARK  status: ('A' for Active; 'I' for Inactive)
REMARK    1  A    between atoms: C_6  and  N_1 
REMARK    2  A    between atoms: N_8  and  C_4 
REMARK    3  A    between atoms: N_7  and  C_10 
REMARK    4  A    between atoms: C_16  and  N_8 
ROOT
ATOM      1  N   UNL d   1      45.220 -14.257  44.270  0.00  0.00    -0.238 N 
ATOM      2  C   UNL d   1      44.601 -14.690  44.653  0.00  0.00     0.269 A 
ATOM      3  C   UNL d   1      45.913 -14.684  44.332  0.00  0.00     0.285 A 
ATOM      4  C   UNL d   1      45.744 -15.397  44.757  0.00  0.00     0.142 A 
ATOM      5  C   UNL d   1      44.944 -15.370  44.937  0.00  0.00     0.085 A 
ATOM      6  O   UNL d   1      43.815 -14.492  44.737  0.00  0.00    -0.267 OA
ATOM      7  O   UNL d   1      46.644 -14.444  44.025  0.00  0.00    -0.265 OA
ENDROOT
BRANCH   4   8
ATOM      8  N   UNL d   1      46.261 -15.996  44.955  0.00  0.00    -0.241 NA
BRANCH   8   9
ATOM      9  C   UNL d   1      46.241 -16.704  44.546  0.00  0.00     0.082 A 
ATOM     10  C   UNL d   1      46.106 -17.414  44.955  0.00  0.00     0.021 A 
ATOM     11  C   UNL d   1      46.083 -18.139  44.559  0.00  0.00     0.019 A 
ATOM     12  C   UNL d   1      46.200 -18.150  43.727  0.00  0.00     0.064 A 
ATOM     13  C   UNL d   1      46.337 -17.444  43.306  0.00  0.00     0.019 A 
ATOM     14  C   UNL d   1      46.356 -16.722  43.725  0.00  0.00     0.021 A 
BRANCH  12  15
ATOM     15  N   UNL d   1      46.181 -18.860  43.315  0.00  0.00    -0.300 N 
ATOM     16  C   UNL d   1      46.205 -18.850  42.498  0.00  0.00     0.107 A 
ATOM     17  C   UNL d   1      46.187 -19.552  42.077  0.00  0.00     0.142 A 
ATOM     18  O   UNL d   1      46.143 -20.271  42.488  0.00  0.00    -0.300 OA
ATOM     19  C   UNL d   1      46.117 -20.289  43.320  0.00  0.00     0.142 A 
ATOM     20  C   UNL d   1      46.137 -19.575  43.725  0.00  0.00     0.107 A 
ENDBRANCH  12  15
ENDBRANCH   8   9
ENDBRANCH   4   8
BRANCH   1  21
ATOM     21  C   UNL d   1      45.152 -13.536  43.898  0.00  0.00     0.097 A 
ATOM     22  C   UNL d   1      45.512 -12.876  44.218  0.00  0.00     0.156 A 
ATOM     23  F   UNL d   1      45.946 -12.925  44.915  0.00  0.00    -0.203 F 
ATOM     24  C   UNL d   1      45.444 -12.142  43.842  0.00  0.00     0.031 A 
ATOM     25  C   UNL d   1      45.014 -12.080  43.146  0.00  0.00     0.002 A 
ATOM     26  C   UNL d   1      44.654 -12.747  42.829  0.00  0.00     0.002 A 
ATOM     27  C   UNL d   1      44.724 -13.476  43.208  0.00  0.00     0.020 A 
ENDBRANCH   1  21
TORSDOF 4
ENDMDL
