MODEL 1
REMARK VINA RESULT:     107.7      0.000      0.000
REMARK  5 active torsions:
REMARK  status: ('A' for Active; 'I' for Inactive)
REMARK    1  A    between atoms: S_3  and  C_17 
REMARK    2  A    between atoms: N_11  and  S_3 
REMARK    3  A    between atoms: C_13  and  C_10 
REMARK    4  A    between atoms: C_12  and  N_11 
REMARK       I    between atoms: N_19  and  C_13 
REMARK    5  A    between atoms: C_31  and  N_19 
ROOT
ATOM      1  C   UNL d   1     -55.382-100.657 -43.264  0.00  0.00     0.105 A 
ATOM      2  C   UNL d   1     -55.860-100.287 -42.762  0.00  0.00     0.015 A 
ATOM      3  C   UNL d   1     -54.830-101.181 -42.990  0.00  0.00     0.015 A 
ATOM      4  C   UNL d   1     -55.268-100.935 -41.722  0.00  0.00     0.085 A 
ATOM      5  C   UNL d   1     -54.789-101.305 -42.222  0.00  0.00     0.020 A 
ATOM      6  C   UNL d   1     -55.805-100.428 -41.963  0.00  0.00     0.020 A 
ENDROOT
BRANCH   4   7
ATOM      7  N   UNL d   1     -55.233-101.053 -40.962  0.00  0.00    -0.208 NA
ATOM      8  C   UNL d   1     -54.976-100.443 -40.460  0.00  0.00     0.285 C 
ATOM      9  O   UNL d   1     -54.755 -99.701 -40.779  0.00  0.00    -0.265 OA
BRANCH   8  10
ATOM     10  C   UNL d   1     -54.935-100.563 -39.633  0.00  0.00     0.089 A 
ATOM     11  C   UNL d   1     -54.931-101.290 -39.243  0.00  0.00     0.018 A 
ATOM     12  C   UNL d   1     -54.884-101.142 -38.419  0.00  0.00     0.081 A 
ATOM     13  C   UNL d   1     -54.860-100.313 -38.309  0.00  0.00     0.117 A 
ATOM     14  C   UNL d   1     -54.861-101.652 -37.765  0.00  0.00     0.268 A 
ATOM     15  N   UNL d   1     -54.813-100.006 -37.543  0.00  0.00    -0.221 NA
ATOM     16  S   UNL d   1     -54.892 -99.955 -39.059  0.00  0.00    -0.063 SA
ATOM     17  C   UNL d   1     -54.790-100.512 -36.880  0.00  0.00     0.151 A 
ATOM     18  N   UNL d   1     -54.814-101.332 -36.997  0.00  0.00    -0.258 N 
ATOM     19  C   UNL d   1     -54.743-100.200 -36.118  0.00  0.00     0.038 A 
ATOM     20  C   UNL d   1     -54.791-101.851 -36.336  0.00  0.00     0.084 A 
ATOM     21  C   UNL d   1     -54.743-101.523 -35.571  0.00  0.00     0.019 A 
ATOM     22  C   UNL d   1     -54.719-100.701 -35.463  0.00  0.00     0.005 A 
ATOM     23  O   UNL d   1     -54.885-102.482 -37.874  0.00  0.00    -0.267 OA
ENDBRANCH   8  10
ENDBRANCH   4   7
BRANCH   1  24
ATOM     24  S   UNL d   1     -55.444-100.517 -44.004  0.00  0.00     0.287 S 
ATOM     25  O   UNL d   1     -55.399-100.870 -45.017  0.00  0.00    -0.198 OA
ATOM     26  O   UNL d   1     -55.202-101.553 -44.190  0.00  0.00    -0.198 OA
BRANCH  24  27
ATOM     27  N   UNL d   1     -55.678 -99.602 -44.342  0.00  0.00    -0.139 NA
BRANCH  27  28
ATOM     28  C   UNL d   1     -56.417 -99.372 -44.335  0.00  0.00     0.178 A 
ATOM     29  N   UNL d   1     -56.767 -99.235 -45.067  0.00  0.00    -0.207 NA
ATOM     30  C   UNL d   1     -57.546 -98.993 -45.046  0.00  0.00     0.164 A 
ATOM     31  C   UNL d   1     -57.879 -98.863 -45.714  0.00  0.00     0.042 C 
ATOM     32  N   UNL d   1     -57.969 -98.889 -44.327  0.00  0.00    -0.227 NA
ATOM     33  C   UNL d   1     -57.607 -99.030 -43.609  0.00  0.00     0.086 A 
ATOM     34  C   UNL d   1     -56.832 -99.271 -43.617  0.00  0.00     0.059 A 
ATOM     35  C   UNL d   1     -57.982 -98.938 -42.963  0.00  0.00     0.021 C 
ENDBRANCH  27  28
ENDBRANCH  24  27
ENDBRANCH   1  24
TORSDOF 5
ENDMDL
