MODEL 1
REMARK VINA RESULT:      -8.2      0.000      0.000
REMARK  5 active torsions:
REMARK  status: ('A' for Active; 'I' for Inactive)
REMARK       I    between atoms: C_2  and  N_1 
REMARK    1  A    between atoms: C_14  and  C_2 
REMARK    2  A    between atoms: C_8  and  O_11 
REMARK    3  A    between atoms: O_11  and  C_17 
REMARK    4  A    between atoms: C_18  and  C_14 
REMARK    5  A    between atoms: C_17  and  C_18 
ROOT
ATOM      1  C   UNL d   1      51.062  34.005  52.947  0.00  0.00     0.123 C 
ENDROOT
BRANCH   1   2
ATOM      2  O   UNL d   1      51.821  33.871  52.655  0.00  0.00    -0.305 OA
BRANCH   2   3
ATOM      3  C   UNL d   1      52.390  33.528  53.137  0.00  0.00     0.100 A 
ATOM      4  C   UNL d   1      52.581  32.730  53.044  0.00  0.00     0.025 A 
ATOM      5  C   UNL d   1      53.152  32.383  53.527  0.00  0.00     0.013 A 
ATOM      6  C   UNL d   1      53.342  31.585  53.435  0.00  0.00     0.001 C 
ATOM      7  C   UNL d   1      53.533  32.833  54.104  0.00  0.00     0.058 A 
ATOM      8  C   UNL d   1      53.343  33.630  54.196  0.00  0.00     0.013 A 
ATOM      9 CL   UNL d   1      54.105  32.486  54.587  0.00  0.00    -0.082 Cl
ATOM     10  C   UNL d   1      52.772  33.978  53.713  0.00  0.00     0.025 A 
ATOM     11  C   UNL d   1      53.724  34.080  54.772  0.00  0.00     0.001 C 
ENDBRANCH   2   3
ENDBRANCH   1   2
BRANCH   1  12
ATOM     12  C   UNL d   1      50.461  34.252  52.438  0.00  0.00     0.032 C 
BRANCH  12  13
ATOM     13  C   UNL d   1      49.811  34.664  52.735  0.00  0.00     0.063 C 
BRANCH  13  14
ATOM     14  C   UNL d   1      49.183  34.859  52.237  0.00  0.00     0.265 C 
ATOM     15  N   UNL d   1      48.588  35.366  52.502  0.00  0.00    -0.272 N 
ATOM     16  C   UNL d   1      47.961  35.561  52.004  0.00  0.00     0.083 A 
ATOM     17  C   UNL d   1      48.622  35.678  53.265  0.00  0.00     0.083 A 
ATOM     18  C   UNL d   1      47.366  36.068  52.269  0.00  0.00     0.019 A 
ATOM     19  C   UNL d   1      47.399  36.380  53.032  0.00  0.00     0.003 A 
ATOM     20  C   UNL d   1      48.028  36.185  53.529  0.00  0.00     0.019 A 
ATOM     21  O   UNL d   1      49.150  34.547  51.474  0.00  0.00    -0.267 OA
ENDBRANCH  13  14
ENDBRANCH  12  13
ENDBRANCH   1  12
TORSDOF 5
ENDMDL
MODEL 2
REMARK VINA RESULT:      -7.8      0.887      1.620
REMARK  5 active torsions:
REMARK  status: ('A' for Active; 'I' for Inactive)
REMARK       I    between atoms: C_2  and  N_1 
REMARK    1  A    between atoms: C_14  and  C_2 
REMARK    2  A    between atoms: C_8  and  O_11 
REMARK    3  A    between atoms: O_11  and  C_17 
REMARK    4  A    between atoms: C_18  and  C_14 
REMARK    5  A    between atoms: C_17  and  C_18 
ROOT
ATOM      1  C   UNL d   1      51.283  33.711  52.964  0.00  0.00     0.123 C 
ENDROOT
BRANCH   1   2
ATOM      2  O   UNL d   1      52.104  33.767  52.931  0.00  0.00    -0.305 OA
BRANCH   2   3
ATOM      3  C   UNL d   1      52.568  33.147  53.202  0.00  0.00     0.100 A 
ATOM      4  C   UNL d   1      53.131  33.280  53.791  0.00  0.00     0.025 A 
ATOM      5  C   UNL d   1      53.598  32.657  54.064  0.00  0.00     0.013 A 
ATOM      6  C   UNL d   1      54.161  32.790  54.652  0.00  0.00     0.001 C 
ATOM      7  C   UNL d   1      53.502  31.901  53.749  0.00  0.00     0.058 A 
ATOM      8  C   UNL d   1      52.940  31.768  53.161  0.00  0.00     0.013 A 
ATOM      9 CL   UNL d   1      53.969  31.278  54.023  0.00  0.00    -0.082 Cl
ATOM     10  C   UNL d   1      52.472  32.390  52.887  0.00  0.00     0.025 A 
ATOM     11  C   UNL d   1      52.844  31.012  52.846  0.00  0.00     0.001 C 
ENDBRANCH   2   3
ENDBRANCH   1   2
BRANCH   1  12
ATOM     12  C   UNL d   1      50.820  34.393  52.921  0.00  0.00     0.032 C 
BRANCH  12  13
ATOM     13  C   UNL d   1      50.114  34.387  52.493  0.00  0.00     0.063 C 
BRANCH  13  14
ATOM     14  C   UNL d   1      49.508  34.910  52.689  0.00  0.00     0.265 C 
ATOM     15  N   UNL d   1      48.883  35.034  52.165  0.00  0.00    -0.272 N 
ATOM     16  C   UNL d   1      48.277  35.558  52.361  0.00  0.00     0.083 A 
ATOM     17  C   UNL d   1      48.865  34.634  51.443  0.00  0.00     0.083 A 
ATOM     18  C   UNL d   1      47.652  35.682  51.836  0.00  0.00     0.019 A 
ATOM     19  C   UNL d   1      47.634  35.281  51.115  0.00  0.00     0.003 A 
ATOM     20  C   UNL d   1      48.241  34.758  50.919  0.00  0.00     0.019 A 
ATOM     21  O   UNL d   1      49.526  35.310  53.410  0.00  0.00    -0.267 OA
ENDBRANCH  13  14
ENDBRANCH  12  13
ENDBRANCH   1  12
TORSDOF 5
ENDMDL
MODEL 3
REMARK VINA RESULT:      -7.6      2.212      5.428
REMARK  5 active torsions:
REMARK  status: ('A' for Active; 'I' for Inactive)
REMARK       I    between atoms: C_2  and  N_1 
REMARK    1  A    between atoms: C_14  and  C_2 
REMARK    2  A    between atoms: C_8  and  O_11 
REMARK    3  A    between atoms: O_11  and  C_17 
REMARK    4  A    between atoms: C_18  and  C_14 
REMARK    5  A    between atoms: C_17  and  C_18 
ROOT
ATOM      1  C   UNL d   1      50.827  34.392  52.669  0.00  0.00     0.123 C 
ENDROOT
BRANCH   1   2
ATOM      2  O   UNL d   1      50.052  34.140  52.792  0.00  0.00    -0.305 OA
BRANCH   2   3
ATOM      3  C   UNL d   1      49.425  34.618  52.562  0.00  0.00     0.100 A 
ATOM      4  C   UNL d   1      49.115  35.172  53.089  0.00  0.00     0.025 A 
ATOM      5  C   UNL d   1      48.486  35.653  52.861  0.00  0.00     0.013 A 
ATOM      6  C   UNL d   1      48.175  36.207  53.388  0.00  0.00     0.001 C 
ATOM      7  C   UNL d   1      48.165  35.581  52.104  0.00  0.00     0.058 A 
ATOM      8  C   UNL d   1      48.475  35.028  51.577  0.00  0.00     0.013 A 
ATOM      9 CL   UNL d   1      47.536  36.062  51.875  0.00  0.00    -0.082 Cl
ATOM     10  C   UNL d   1      49.105  34.546  51.805  0.00  0.00     0.025 A 
ATOM     11  C   UNL d   1      48.155  34.955  50.821  0.00  0.00     0.001 C 
ENDBRANCH   2   3
ENDBRANCH   1   2
BRANCH   1  12
ATOM     12  C   UNL d   1      51.444  33.844  52.664  0.00  0.00     0.032 C 
BRANCH  12  13
ATOM     13  C   UNL d   1      52.085  33.937  53.175  0.00  0.00     0.063 C 
BRANCH  13  14
ATOM     14  C   UNL d   1      52.698  33.386  53.174  0.00  0.00     0.265 C 
ATOM     15  N   UNL d   1      53.283  33.418  53.754  0.00  0.00    -0.272 N 
ATOM     16  C   UNL d   1      53.896  32.866  53.752  0.00  0.00     0.083 A 
ATOM     17  C   UNL d   1      53.256  34.001  54.336  0.00  0.00     0.083 A 
ATOM     18  C   UNL d   1      54.482  32.898  54.332  0.00  0.00     0.019 A 
ATOM     19  C   UNL d   1      54.454  33.482  54.915  0.00  0.00     0.003 A 
ATOM     20  C   UNL d   1      53.841  34.033  54.916  0.00  0.00     0.019 A 
ATOM     21  O   UNL d   1      52.725  32.802  52.591  0.00  0.00    -0.267 OA
ENDBRANCH  13  14
ENDBRANCH  12  13
ENDBRANCH   1  12
TORSDOF 5
ENDMDL
MODEL 4
REMARK VINA RESULT:      -6.0      2.371      5.600
REMARK  5 active torsions:
REMARK  status: ('A' for Active; 'I' for Inactive)
REMARK       I    between atoms: C_2  and  N_1 
REMARK    1  A    between atoms: C_14  and  C_2 
REMARK    2  A    between atoms: C_8  and  O_11 
REMARK    3  A    between atoms: O_11  and  C_17 
REMARK    4  A    between atoms: C_18  and  C_14 
REMARK    5  A    between atoms: C_17  and  C_18 
ROOT
ATOM      1  C   UNL d   1      49.327  35.044  52.830  0.00  0.00     0.123 C 
ENDROOT
BRANCH   1   2
ATOM      2  O   UNL d   1      49.010  35.682  53.244  0.00  0.00    -0.305 OA
BRANCH   2   3
ATOM      3  C   UNL d   1      48.231  35.907  53.115  0.00  0.00     0.100 A 
ATOM      4  C   UNL d   1      47.905  35.847  52.359  0.00  0.00     0.025 A 
ATOM      5  C   UNL d   1      47.123  36.072  52.227  0.00  0.00     0.013 A 
ATOM      6  C   UNL d   1      46.798  36.012  51.471  0.00  0.00     0.001 C 
ATOM      7  C   UNL d   1      46.666  36.359  52.851  0.00  0.00     0.058 A 
ATOM      8  C   UNL d   1      46.991  36.420  53.606  0.00  0.00     0.013 A 
ATOM      9 CL   UNL d   1      45.883  36.585  52.718  0.00  0.00    -0.082 Cl
ATOM     10  C   UNL d   1      47.774  36.194  53.739  0.00  0.00     0.025 A 
ATOM     11  C   UNL d   1      46.534  36.706  54.229  0.00  0.00     0.001 C 
ENDBRANCH   2   3
ENDBRANCH   1   2
BRANCH   1  12
ATOM     12  C   UNL d   1      49.840  34.520  53.209  0.00  0.00     0.032 C 
BRANCH  12  13
ATOM     13  C   UNL d   1      50.613  34.428  52.935  0.00  0.00     0.063 C 
BRANCH  13  14
ATOM     14  C   UNL d   1      51.054  33.767  53.156  0.00  0.00     0.265 C 
ATOM     15  N   UNL d   1      51.865  33.837  53.288  0.00  0.00    -0.272 N 
ATOM     16  C   UNL d   1      52.306  33.176  53.510  0.00  0.00     0.083 A 
ATOM     17  C   UNL d   1      52.236  34.568  53.198  0.00  0.00     0.083 A 
ATOM     18  C   UNL d   1      53.117  33.246  53.642  0.00  0.00     0.019 A 
ATOM     19  C   UNL d   1      53.488  33.977  53.551  0.00  0.00     0.003 A 
ATOM     20  C   UNL d   1      53.047  34.638  53.329  0.00  0.00     0.019 A 
ATOM     21  O   UNL d   1      50.683  33.036  53.247  0.00  0.00    -0.267 OA
ENDBRANCH  13  14
ENDBRANCH  12  13
ENDBRANCH   1  12
TORSDOF 5
ENDMDL
MODEL 5
REMARK VINA RESULT:      -5.9      3.286      5.543
REMARK  5 active torsions:
REMARK  status: ('A' for Active; 'I' for Inactive)
REMARK       I    between atoms: C_2  and  N_1 
REMARK    1  A    between atoms: C_14  and  C_2 
REMARK    2  A    between atoms: C_8  and  O_11 
REMARK    3  A    between atoms: O_11  and  C_17 
REMARK    4  A    between atoms: C_18  and  C_14 
REMARK    5  A    between atoms: C_17  and  C_18 
ROOT
ATOM      1  C   UNL d   1      52.678  32.068  53.043  0.00  0.00     0.123 C 
ENDROOT
BRANCH   1   2
ATOM      2  O   UNL d   1      53.225  32.667  52.895  0.00  0.00    -0.305 OA
BRANCH   2   3
ATOM      3  C   UNL d   1      53.254  33.324  53.387  0.00  0.00     0.100 A 
ATOM      4  C   UNL d   1      53.804  33.354  54.001  0.00  0.00     0.025 A 
ATOM      5  C   UNL d   1      53.835  34.013  54.496  0.00  0.00     0.013 A 
ATOM      6  C   UNL d   1      54.384  34.043  55.110  0.00  0.00     0.001 C 
ATOM      7  C   UNL d   1      53.315  34.643  54.376  0.00  0.00     0.058 A 
ATOM      8  C   UNL d   1      52.766  34.613  53.762  0.00  0.00     0.013 A 
ATOM      9 CL   UNL d   1      53.347  35.303  54.871  0.00  0.00    -0.082 Cl
ATOM     10  C   UNL d   1      52.735  33.954  53.267  0.00  0.00     0.025 A 
ATOM     11  C   UNL d   1      52.248  35.243  53.642  0.00  0.00     0.001 C 
ENDBRANCH   2   3
ENDBRANCH   1   2
BRANCH   1  12
ATOM     12  C   UNL d   1      52.865  31.284  52.864  0.00  0.00     0.032 C 
BRANCH  12  13
ATOM     13  C   UNL d   1      52.647  30.678  53.380  0.00  0.00     0.063 C 
BRANCH  13  14
ATOM     14  C   UNL d   1      52.984  29.930  53.304  0.00  0.00     0.265 C 
ATOM     15  N   UNL d   1      53.144  29.479  53.977  0.00  0.00    -0.272 N 
ATOM     16  C   UNL d   1      53.481  28.731  53.902  0.00  0.00     0.083 A 
ATOM     17  C   UNL d   1      52.965  29.777  54.725  0.00  0.00     0.083 A 
ATOM     18  C   UNL d   1      53.641  28.280  54.574  0.00  0.00     0.019 A 
ATOM     19  C   UNL d   1      53.462  28.578  55.322  0.00  0.00     0.003 A 
ATOM     20  C   UNL d   1      53.124  29.327  55.397  0.00  0.00     0.019 A 
ATOM     21  O   UNL d   1      53.163  29.632  52.556  0.00  0.00    -0.267 OA
ENDBRANCH  13  14
ENDBRANCH  12  13
ENDBRANCH   1  12
TORSDOF 5
ENDMDL
MODEL 6
REMARK VINA RESULT:      -5.3     10.245     10.945
REMARK  5 active torsions:
REMARK  status: ('A' for Active; 'I' for Inactive)
REMARK       I    between atoms: C_2  and  N_1 
REMARK    1  A    between atoms: C_14  and  C_2 
REMARK    2  A    between atoms: C_8  and  O_11 
REMARK    3  A    between atoms: O_11  and  C_17 
REMARK    4  A    between atoms: C_18  and  C_14 
REMARK    5  A    between atoms: C_17  and  C_18 
ROOT
ATOM      1  C   UNL d   1      44.558  29.875  59.683  0.00  0.00     0.123 C 
ENDROOT
BRANCH   1   2
ATOM      2  O   UNL d   1      44.384  29.985  58.885  0.00  0.00    -0.305 OA
BRANCH   2   3
ATOM      3  C   UNL d   1      44.620  29.425  58.334  0.00  0.00     0.100 A 
ATOM      4  C   UNL d   1      44.621  29.613  57.530  0.00  0.00     0.025 A 
ATOM      5  C   UNL d   1      44.858  29.052  56.975  0.00  0.00     0.013 A 
ATOM      6  C   UNL d   1      44.858  29.239  56.171  0.00  0.00     0.001 C 
ATOM      7  C   UNL d   1      45.096  28.301  57.223  0.00  0.00     0.058 A 
ATOM      8  C   UNL d   1      45.096  28.113  58.025  0.00  0.00     0.013 A 
ATOM      9 CL   UNL d   1      45.333  27.740  56.666  0.00  0.00    -0.082 Cl
ATOM     10  C   UNL d   1      44.858  28.675  58.581  0.00  0.00     0.025 A 
ATOM     11  C   UNL d   1      45.333  27.364  58.272  0.00  0.00     0.001 C 
ENDBRANCH   2   3
ENDBRANCH   1   2
BRANCH   1  12
ATOM     12  C   UNL d   1      44.512  30.510  60.208  0.00  0.00     0.032 C 
BRANCH  12  13
ATOM     13  C   UNL d   1      44.540  30.377  61.022  0.00  0.00     0.063 C 
BRANCH  13  14
ATOM     14  C   UNL d   1      44.491  31.012  61.546  0.00  0.00     0.265 C 
ATOM     15  N   UNL d   1      44.435  30.875  62.358  0.00  0.00    -0.272 N 
ATOM     16  C   UNL d   1      44.386  31.509  62.881  0.00  0.00     0.083 A 
ATOM     17  C   UNL d   1      44.428  30.101  62.645  0.00  0.00     0.083 A 
ATOM     18  C   UNL d   1      44.331  31.372  63.693  0.00  0.00     0.019 A 
ATOM     19  C   UNL d   1      44.323  30.599  63.981  0.00  0.00     0.003 A 
ATOM     20  C   UNL d   1      44.372  29.964  63.456  0.00  0.00     0.019 A 
ATOM     21  O   UNL d   1      44.498  31.785  61.258  0.00  0.00    -0.267 OA
ENDBRANCH  13  14
ENDBRANCH  12  13
ENDBRANCH   1  12
TORSDOF 5
ENDMDL
