MODEL 1
REMARK VINA RESULT:      -5.8      0.000      0.000
REMARK  2 active torsions:
REMARK  status: ('A' for Active; 'I' for Inactive)
REMARK    1  A    between atoms: C_10  and  C_3 
REMARK    2  A    between atoms: O_20  and  C_16 
ROOT
ATOM      1  C   UNL d   1      57.505  -0.651  30.990  0.00  0.00     0.203 A 
ATOM      2  C   UNL d   1      58.103  -0.645  30.415  0.00  0.00     0.101 A 
ATOM      3  C   UNL d   1      57.395   0.002  31.496  0.00  0.00     0.064 A 
ATOM      4  C   UNL d   1      58.598   0.028  30.348  0.00  0.00     0.109 A 
ATOM      5  C   UNL d   1      57.894   0.671  31.423  0.00  0.00     0.126 A 
ATOM      6  C   UNL d   1      58.209  -1.290  29.918  0.00  0.00     0.204 A 
ATOM      7  O   UNL d   1      58.495   0.682  30.848  0.00  0.00    -0.305 OA
ATOM      8  C   UNL d   1      59.197   0.034  29.772  0.00  0.00     0.067 A 
ATOM      9  C   UNL d   1      58.803  -1.279  29.349  0.00  0.00     0.084 A 
ATOM     10  O   UNL d   1      57.013  -1.310  31.063  0.00  0.00    -0.286 OA
ATOM     11  C   UNL d   1      59.295  -0.620  29.277  0.00  0.00     0.201 A 
ATOM     12  O   UNL d   1      57.718  -1.948  29.990  0.00  0.00    -0.286 OA
ATOM     13  O   UNL d   1      59.890  -0.610  28.707  0.00  0.00    -0.286 OA
ENDROOT
BRANCH   3  14
ATOM     14  C   UNL d   1      56.800  -0.007  32.066  0.00  0.00     0.005 A 
ATOM     15  C   UNL d   1      56.282   0.632  32.123  0.00  0.00     0.002 A 
ATOM     16  C   UNL d   1      55.687   0.624  32.692  0.00  0.00     0.024 A 
ATOM     17  C   UNL d   1      55.609  -0.015  33.199  0.00  0.00     0.094 A 
ATOM     18  C   UNL d   1      56.136  -0.658  33.135  0.00  0.00     0.024 A 
ATOM     19  C   UNL d   1      56.731  -0.648  32.566  0.00  0.00     0.002 A 
BRANCH  17  20
ATOM     20  O   UNL d   1      55.015  -0.024  33.768  0.00  0.00    -0.328 OA
ATOM     21  C   UNL d   1      55.055   0.484  34.423  0.00  0.00     0.181 C 
ENDBRANCH  17  20
ENDBRANCH   3  14
TORSDOF 2
ENDMDL
MODEL 2
REMARK VINA RESULT:      -3.2      1.146      4.442
REMARK  2 active torsions:
REMARK  status: ('A' for Active; 'I' for Inactive)
REMARK    1  A    between atoms: C_10  and  C_3 
REMARK    2  A    between atoms: O_20  and  C_16 
ROOT
ATOM      1  C   UNL d   1      56.388   0.289  32.496  0.00  0.00     0.203 A 
ATOM      2  C   UNL d   1      56.107   0.388  33.270  0.00  0.00     0.101 A 
ATOM      3  C   UNL d   1      57.188   0.101  32.356  0.00  0.00     0.064 A 
ATOM      4  C   UNL d   1      56.637   0.297  33.913  0.00  0.00     0.109 A 
ATOM      5  C   UNL d   1      57.712   0.011  33.004  0.00  0.00     0.126 A 
ATOM      6  C   UNL d   1      55.318   0.573  33.406  0.00  0.00     0.204 A 
ATOM      7  O   UNL d   1      57.434   0.110  33.782  0.00  0.00    -0.305 OA
ATOM      8  C   UNL d   1      56.355   0.396  34.688  0.00  0.00     0.067 A 
ATOM      9  C   UNL d   1      55.043   0.671  34.175  0.00  0.00     0.084 A 
ATOM     10  O   UNL d   1      55.872   0.376  31.859  0.00  0.00    -0.286 OA
ATOM     11  C   UNL d   1      55.559   0.583  34.814  0.00  0.00     0.201 A 
ATOM     12  O   UNL d   1      54.802   0.661  32.768  0.00  0.00    -0.286 OA
ATOM     13  O   UNL d   1      55.283   0.681  35.583  0.00  0.00    -0.286 OA
ENDROOT
BRANCH   3  14
ATOM     14  C   UNL d   1      57.464   0.003  31.587  0.00  0.00     0.005 A 
ATOM     15  C   UNL d   1      57.664  -0.752  31.320  0.00  0.00     0.002 A 
ATOM     16  C   UNL d   1      57.940  -0.851  30.551  0.00  0.00     0.024 A 
ATOM     17  C   UNL d   1      58.016  -0.206  30.052  0.00  0.00     0.094 A 
ATOM     18  C   UNL d   1      57.812   0.554  30.329  0.00  0.00     0.024 A 
ATOM     19  C   UNL d   1      57.536   0.652  31.098  0.00  0.00     0.002 A 
BRANCH  17  20
ATOM     20  O   UNL d   1      58.292  -0.304  29.283  0.00  0.00    -0.328 OA
ATOM     21  C   UNL d   1      58.768  -0.957  29.090  0.00  0.00     0.181 C 
ENDBRANCH  17  20
ENDBRANCH   3  14
TORSDOF 2
ENDMDL
