MODEL 1
REMARK VINA RESULT:      -3.3      0.000      0.000
REMARK  1 active torsions:
REMARK  status: ('A' for Active; 'I' for Inactive)
REMARK    1  A    between atoms: C_12  and  C_8 
ROOT
ATOM      1  N   UNL d   1      32.612  21.654 -21.452  0.00  0.00    -0.123 N 
ATOM      2  N   UNL d   1      32.836  21.967 -20.084  0.00  0.00    -0.180 NA
ATOM      3  C   UNL d   1      32.878  21.440 -20.701  0.00  0.00     0.217 A 
ATOM      4  N   UNL d   1      32.300  22.409 -21.580  0.00  0.00    -0.141 NA
ATOM      5  N   UNL d   1      32.649  21.131 -22.083  0.00  0.00    -0.146 NA
ATOM      6  C   UNL d   1      32.530  22.714 -20.200  0.00  0.00     0.300 A 
ATOM      7  C   UNL d   1      32.262  22.935 -20.948  0.00  0.00     0.161 A 
ATOM      8  C   UNL d   1      32.963  20.368 -21.957  0.00  0.00     0.110 A 
ATOM      9  S   UNL d   1      33.186  20.689 -20.586  0.00  0.00    -0.045 SA
ATOM     10  C   UNL d   1      33.232  20.148 -21.209  0.00  0.00     0.059 A 
ATOM     11  O   UNL d   1      32.488  23.249 -19.571  0.00  0.00    -0.263 OA
ATOM     12  C   UNL d   1      31.951  23.691 -21.068  0.00  0.00     0.028 C 
ENDROOT
BRANCH   8  13
ATOM     13  C   UNL d   1      33.005  19.837 -22.584  0.00  0.00     0.020 A 
ATOM     14  C   UNL d   1      33.191  20.111 -23.340  0.00  0.00     0.002 A 
ATOM     15  C   UNL d   1      33.233  19.577 -23.971  0.00  0.00     0.000 A 
ATOM     16  C   UNL d   1      33.090  18.775 -23.842  0.00  0.00     0.000 A 
ATOM     17  C   UNL d   1      32.904  18.506 -23.082  0.00  0.00     0.000 A 
ATOM     18  C   UNL d   1      32.862  19.038 -22.455  0.00  0.00     0.002 A 
ENDBRANCH   8  13
TORSDOF 1
ENDMDL
MODEL 2
REMARK VINA RESULT:      -3.2      1.666      2.575
REMARK  1 active torsions:
REMARK  status: ('A' for Active; 'I' for Inactive)
REMARK    1  A    between atoms: C_12  and  C_8 
ROOT
ATOM      1  N   UNL d   1      32.846  19.723 -22.439  0.00  0.00    -0.123 N 
ATOM      2  N   UNL d   1      33.240  21.017 -22.876  0.00  0.00    -0.180 NA
ATOM      3  C   UNL d   1      33.111  20.230 -23.033  0.00  0.00     0.217 A 
ATOM      4  N   UNL d   1      32.711  20.015 -21.677  0.00  0.00    -0.141 NA
ATOM      5  N   UNL d   1      32.712  18.927 -22.585  0.00  0.00    -0.146 NA
ATOM      6  C   UNL d   1      33.109  21.315 -22.127  0.00  0.00     0.300 A 
ATOM      7  C   UNL d   1      32.845  20.813 -21.528  0.00  0.00     0.161 A 
ATOM      8  C   UNL d   1      32.848  18.629 -23.353  0.00  0.00     0.110 A 
ATOM      9  S   UNL d   1      33.241  19.930 -23.784  0.00  0.00    -0.045 SA
ATOM     10  C   UNL d   1      33.112  19.131 -23.952  0.00  0.00     0.059 A 
ATOM     11  O   UNL d   1      33.241  22.115 -21.968  0.00  0.00    -0.263 OA
ATOM     12  C   UNL d   1      32.712  21.112 -20.769  0.00  0.00     0.028 C 
ENDROOT
BRANCH   8  13
ATOM     13  C   UNL d   1      32.717  17.833 -23.510  0.00  0.00     0.020 A 
ATOM     14  C   UNL d   1      32.067  17.609 -23.969  0.00  0.00     0.002 A 
ATOM     15  C   UNL d   1      31.934  16.808 -24.128  0.00  0.00     0.000 A 
ATOM     16  C   UNL d   1      32.449  16.237 -23.828  0.00  0.00     0.000 A 
ATOM     17  C   UNL d   1      33.097  16.467 -23.369  0.00  0.00     0.000 A 
ATOM     18  C   UNL d   1      33.229  17.265 -23.212  0.00  0.00     0.002 A 
ENDBRANCH   8  13
TORSDOF 1
ENDMDL
MODEL 3
REMARK VINA RESULT:      -3.0      4.698      5.977
REMARK  1 active torsions:
REMARK  status: ('A' for Active; 'I' for Inactive)
REMARK    1  A    between atoms: C_12  and  C_8 
ROOT
ATOM      1  N   UNL d   1      30.044  17.053 -24.199  0.00  0.00    -0.123 N 
ATOM      2  N   UNL d   1      29.511  15.867 -24.773  0.00  0.00    -0.180 NA
ATOM      3  C   UNL d   1      30.126  16.392 -24.686  0.00  0.00     0.217 A 
ATOM      4  N   UNL d   1      29.334  17.184 -23.796  0.00  0.00    -0.141 NA
ATOM      5  N   UNL d   1      30.656  17.590 -24.102  0.00  0.00    -0.146 NA
ATOM      6  C   UNL d   1      28.807  15.988 -24.380  0.00  0.00     0.300 A 
ATOM      7  C   UNL d   1      28.718  16.646 -23.891  0.00  0.00     0.161 A 
ATOM      8  C   UNL d   1      31.375  17.461 -24.507  0.00  0.00     0.110 A 
ATOM      9  S   UNL d   1      30.834  16.272 -25.080  0.00  0.00    -0.045 SA
ATOM     10  C   UNL d   1      31.463  16.802 -24.996  0.00  0.00     0.059 A 
ATOM     11  O   UNL d   1      28.183  15.453 -24.470  0.00  0.00    -0.263 OA
ATOM     12  C   UNL d   1      28.005  16.770 -23.493  0.00  0.00     0.028 C 
ENDROOT
BRANCH   8  13
ATOM     13  C   UNL d   1      31.995  17.994 -24.417  0.00  0.00     0.020 A 
ATOM     14  C   UNL d   1      32.437  17.992 -23.719  0.00  0.00     0.002 A 
ATOM     15  C   UNL d   1      33.061  18.527 -23.627  0.00  0.00     0.000 A 
ATOM     16  C   UNL d   1      33.239  19.060 -24.231  0.00  0.00     0.000 A 
ATOM     17  C   UNL d   1      32.794  19.057 -24.928  0.00  0.00     0.000 A 
ATOM     18  C   UNL d   1      32.173  18.523 -25.018  0.00  0.00     0.002 A 
ENDBRANCH   8  13
TORSDOF 1
ENDMDL
MODEL 4
REMARK VINA RESULT:      -3.0      4.557      5.921
REMARK  1 active torsions:
REMARK  status: ('A' for Active; 'I' for Inactive)
REMARK    1  A    between atoms: C_12  and  C_8 
ROOT
ATOM      1  N   UNL d   1      31.176  17.169 -24.029  0.00  0.00    -0.123 N 
ATOM      2  N   UNL d   1      31.861  18.151 -24.797  0.00  0.00    -0.180 NA
ATOM      3  C   UNL d   1      31.189  17.719 -24.644  0.00  0.00     0.217 A 
ATOM      4  N   UNL d   1      31.851  17.053 -23.565  0.00  0.00    -0.141 NA
ATOM      5  N   UNL d   1      30.505  16.728 -23.865  0.00  0.00    -0.146 NA
ATOM      6  C   UNL d   1      32.531  18.044 -24.344  0.00  0.00     0.300 A 
ATOM      7  C   UNL d   1      32.526  17.495 -23.728  0.00  0.00     0.161 A 
ATOM      8  C   UNL d   1      29.823  16.842 -24.331  0.00  0.00     0.110 A 
ATOM      9  S   UNL d   1      30.515  17.825 -25.097  0.00  0.00    -0.045 SA
ATOM     10  C   UNL d   1      29.828  17.390 -24.947  0.00  0.00     0.059 A 
ATOM     11  O   UNL d   1      33.214  18.483 -24.501  0.00  0.00    -0.263 OA
ATOM     12  C   UNL d   1      33.204  17.385 -23.269  0.00  0.00     0.028 C 
ENDROOT
BRANCH   8  13
ATOM     13  C   UNL d   1      29.144  16.404 -24.175  0.00  0.00     0.020 A 
ATOM     14  C   UNL d   1      28.766  16.485 -23.445  0.00  0.00     0.002 A 
ATOM     15  C   UNL d   1      28.083  16.045 -23.286  0.00  0.00     0.000 A 
ATOM     16  C   UNL d   1      27.783  15.529 -23.855  0.00  0.00     0.000 A 
ATOM     17  C   UNL d   1      28.166  15.453 -24.584  0.00  0.00     0.000 A 
ATOM     18  C   UNL d   1      28.846  15.891 -24.742  0.00  0.00     0.002 A 
ENDBRANCH   8  13
TORSDOF 1
ENDMDL
MODEL 5
REMARK VINA RESULT:      -2.9      1.945      3.892
REMARK  1 active torsions:
REMARK  status: ('A' for Active; 'I' for Inactive)
REMARK    1  A    between atoms: C_12  and  C_8 
ROOT
ATOM      1  N   UNL d   1      32.949  20.028 -22.726  0.00  0.00    -0.123 N 
ATOM      2  N   UNL d   1      33.239  18.754 -22.166  0.00  0.00    -0.180 NA
ATOM      3  C   UNL d   1      33.144  19.556 -22.078  0.00  0.00     0.217 A 
ATOM      4  N   UNL d   1      32.850  19.684 -23.472  0.00  0.00    -0.141 NA
ATOM      5  N   UNL d   1      32.850  20.838 -22.650  0.00  0.00    -0.146 NA
ATOM      6  C   UNL d   1      33.143  18.405 -22.898  0.00  0.00     0.300 A 
ATOM      7  C   UNL d   1      32.949  18.871 -23.551  0.00  0.00     0.161 A 
ATOM      8  C   UNL d   1      32.949  21.189 -21.899  0.00  0.00     0.110 A 
ATOM      9  S   UNL d   1      33.239  19.908 -21.344  0.00  0.00    -0.045 SA
ATOM     10  C   UNL d   1      33.144  20.723 -21.246  0.00  0.00     0.059 A 
ATOM     11  O   UNL d   1      33.241  17.589 -22.986  0.00  0.00    -0.263 OA
ATOM     12  C   UNL d   1      32.852  18.520 -24.292  0.00  0.00     0.028 C 
ENDROOT
BRANCH   8  13
ATOM     13  C   UNL d   1      32.852  22.001 -21.812  0.00  0.00     0.020 A 
ATOM     14  C   UNL d   1      32.371  22.292 -21.207  0.00  0.00     0.002 A 
ATOM     15  C   UNL d   1      32.272  23.109 -21.118  0.00  0.00     0.000 A 
ATOM     16  C   UNL d   1      32.654  23.628 -21.633  0.00  0.00     0.000 A 
ATOM     17  C   UNL d   1      33.135  23.331 -22.236  0.00  0.00     0.000 A 
ATOM     18  C   UNL d   1      33.233  22.518 -22.324  0.00  0.00     0.002 A 
ENDBRANCH   8  13
TORSDOF 1
ENDMDL
MODEL 6
REMARK VINA RESULT:      -2.8      2.535      4.399
REMARK  1 active torsions:
REMARK  status: ('A' for Active; 'I' for Inactive)
REMARK    1  A    between atoms: C_12  and  C_8 
ROOT
ATOM      1  N   UNL d   1      32.748  18.858 -22.986  0.00  0.00    -0.123 N 
ATOM      2  N   UNL d   1      33.006  18.665 -24.371  0.00  0.00    -0.180 NA
ATOM      3  C   UNL d   1      32.999  19.147 -23.717  0.00  0.00     0.217 A 
ATOM      4  N   UNL d   1      32.502  18.071 -22.917  0.00  0.00    -0.141 NA
ATOM      5  N   UNL d   1      32.736  19.334 -22.319  0.00  0.00    -0.146 NA
ATOM      6  C   UNL d   1      32.765  17.888 -24.312  0.00  0.00     0.300 A 
ATOM      7  C   UNL d   1      32.513  17.591 -23.585  0.00  0.00     0.161 A 
ATOM      8  C   UNL d   1      32.984  20.128 -22.386  0.00  0.00     0.110 A 
ATOM      9  S   UNL d   1      33.241  19.928 -23.774  0.00  0.00    -0.045 SA
ATOM     10  C   UNL d   1      33.236  20.425 -23.113  0.00  0.00     0.059 A 
ATOM     11  O   UNL d   1      32.773  17.398 -24.978  0.00  0.00    -0.263 OA
ATOM     12  C   UNL d   1      32.269  16.804 -23.524  0.00  0.00     0.028 C 
ENDROOT
BRANCH   8  13
ATOM     13  C   UNL d   1      32.976  20.615 -21.722  0.00  0.00     0.020 A 
ATOM     14  C   UNL d   1      33.235  20.319 -20.996  0.00  0.00     0.002 A 
ATOM     15  C   UNL d   1      33.228  20.807 -20.328  0.00  0.00     0.000 A 
ATOM     16  C   UNL d   1      32.961  21.586 -20.390  0.00  0.00     0.000 A 
ATOM     17  C   UNL d   1      32.702  21.876 -21.120  0.00  0.00     0.000 A 
ATOM     18  C   UNL d   1      32.710  21.389 -21.784  0.00  0.00     0.002 A 
ENDBRANCH   8  13
TORSDOF 1
ENDMDL
MODEL 7
REMARK VINA RESULT:      -2.4      3.435      5.002
REMARK  1 active torsions:
REMARK  status: ('A' for Active; 'I' for Inactive)
REMARK    1  A    between atoms: C_12  and  C_8 
ROOT
ATOM      1  N   UNL d   1      31.870  17.743 -23.850  0.00  0.00    -0.123 N 
ATOM      2  N   UNL d   1      32.199  16.365 -23.964  0.00  0.00    -0.180 NA
ATOM      3  C   UNL d   1      32.368  17.108 -23.680  0.00  0.00     0.217 A 
ATOM      4  N   UNL d   1      31.195  17.626 -24.313  0.00  0.00    -0.141 NA
ATOM      5  N   UNL d   1      32.030  18.497 -23.570  0.00  0.00    -0.146 NA
ATOM      6  C   UNL d   1      31.535  16.239 -24.421  0.00  0.00     0.300 A 
ATOM      7  C   UNL d   1      31.033  16.870 -24.595  0.00  0.00     0.161 A 
ATOM      8  C   UNL d   1      32.710  18.619 -23.103  0.00  0.00     0.110 A 
ATOM      9  S   UNL d   1      33.034  17.235 -23.220  0.00  0.00    -0.045 SA
ATOM     10  C   UNL d   1      33.212  17.988 -22.928  0.00  0.00     0.059 A 
ATOM     11  O   UNL d   1      31.365  15.484 -24.709  0.00  0.00    -0.263 OA
ATOM     12  C   UNL d   1      30.360  16.745 -25.058  0.00  0.00     0.028 C 
ENDROOT
BRANCH   8  13
ATOM     13  C   UNL d   1      32.879  19.371 -22.816  0.00  0.00     0.020 A 
ATOM     14  C   UNL d   1      33.071  19.976 -23.345  0.00  0.00     0.002 A 
ATOM     15  C   UNL d   1      33.241  20.733 -23.059  0.00  0.00     0.000 A 
ATOM     16  C   UNL d   1      33.218  20.882 -22.248  0.00  0.00     0.000 A 
ATOM     17  C   UNL d   1      33.025  20.272 -21.723  0.00  0.00     0.000 A 
ATOM     18  C   UNL d   1      32.856  19.519 -22.009  0.00  0.00     0.002 A 
ENDBRANCH   8  13
TORSDOF 1
ENDMDL
MODEL 8
REMARK VINA RESULT:      -1.9      5.395      6.425
REMARK  1 active torsions:
REMARK  status: ('A' for Active; 'I' for Inactive)
REMARK    1  A    between atoms: C_12  and  C_8 
ROOT
ATOM      1  N   UNL d   1      29.303  16.696 -24.056  0.00  0.00    -0.123 N 
ATOM      2  N   UNL d   1      28.511  15.555 -24.357  0.00  0.00    -0.180 NA
ATOM      3  C   UNL d   1      29.212  15.962 -24.420  0.00  0.00     0.217 A 
ATOM      4  N   UNL d   1      28.679  17.023 -23.622  0.00  0.00    -0.141 NA
ATOM      5  N   UNL d   1      30.005  17.117 -24.112  0.00  0.00    -0.146 NA
ATOM      6  C   UNL d   1      27.890  15.868 -23.931  0.00  0.00     0.300 A 
ATOM      7  C   UNL d   1      27.973  16.602 -23.564  0.00  0.00     0.161 A 
ATOM      8  C   UNL d   1      30.637  16.791 -24.549  0.00  0.00     0.110 A 
ATOM      9  S   UNL d   1      29.837  15.649 -24.847  0.00  0.00    -0.045 SA
ATOM     10  C   UNL d   1      30.553  16.058 -24.916  0.00  0.00     0.059 A 
ATOM     11  O   UNL d   1      27.178  15.453 -23.868  0.00  0.00    -0.263 OA
ATOM     12  C   UNL d   1      27.345  16.921 -23.133  0.00  0.00     0.028 C 
ENDROOT
BRANCH   8  13
ATOM     13  C   UNL d   1      31.345  17.205 -24.611  0.00  0.00     0.020 A 
ATOM     14  C   UNL d   1      32.025  16.909 -24.247  0.00  0.00     0.002 A 
ATOM     15  C   UNL d   1      32.738  17.324 -24.310  0.00  0.00     0.000 A 
ATOM     16  C   UNL d   1      32.767  18.031 -24.734  0.00  0.00     0.000 A 
ATOM     17  C   UNL d   1      32.083  18.323 -25.097  0.00  0.00     0.000 A 
ATOM     18  C   UNL d   1      31.374  17.909 -25.034  0.00  0.00     0.002 A 
ENDBRANCH   8  13
TORSDOF 1
ENDMDL
MODEL 9
REMARK VINA RESULT:      -0.4      1.607      3.890
REMARK  1 active torsions:
REMARK  status: ('A' for Active; 'I' for Inactive)
REMARK    1  A    between atoms: C_12  and  C_8 
ROOT
ATOM      1  N   UNL d   1      32.878  21.549 -21.710  0.00  0.00    -0.123 N 
ATOM      2  N   UNL d   1      33.227  20.235 -22.128  0.00  0.00    -0.180 NA
ATOM      3  C   UNL d   1      33.117  20.779 -21.534  0.00  0.00     0.217 A 
ATOM      4  N   UNL d   1      32.751  21.771 -22.497  0.00  0.00    -0.141 NA
ATOM      5  N   UNL d   1      32.763  22.106 -21.120  0.00  0.00    -0.146 NA
ATOM      6  C   UNL d   1      33.104  20.445 -22.907  0.00  0.00     0.300 A 
ATOM      7  C   UNL d   1      32.866  21.213 -23.091  0.00  0.00     0.161 A 
ATOM      8  C   UNL d   1      32.891  21.885 -20.326  0.00  0.00     0.110 A 
ATOM      9  S   UNL d   1      33.240  20.570 -20.751  0.00  0.00    -0.045 SA
ATOM     10  C   UNL d   1      33.129  21.117 -20.141  0.00  0.00     0.059 A 
ATOM     11  O   UNL d   1      33.217  19.892 -23.510  0.00  0.00    -0.263 OA
ATOM     12  C   UNL d   1      32.740  21.428 -23.879  0.00  0.00     0.028 C 
ENDROOT
BRANCH   8  13
ATOM     13  C   UNL d   1      32.778  22.436 -19.726  0.00  0.00     0.020 A 
ATOM     14  C   UNL d   1      32.382  23.142 -19.889  0.00  0.00     0.002 A 
ATOM     15  C   UNL d   1      32.267  23.698 -19.287  0.00  0.00     0.000 A 
ATOM     16  C   UNL d   1      32.549  23.545 -18.527  0.00  0.00     0.000 A 
ATOM     17  C   UNL d   1      32.945  22.837 -18.369  0.00  0.00     0.000 A 
ATOM     18  C   UNL d   1      33.058  22.284 -18.969  0.00  0.00     0.002 A 
ENDBRANCH   8  13
TORSDOF 1
ENDMDL
