MODEL 1
REMARK VINA RESULT:      11.5      0.000      0.000
REMARK  6 active torsions:
REMARK  status: ('A' for Active; 'I' for Inactive)
REMARK    1  A    between atoms: C_2  and  C_4 
REMARK    2  A    between atoms: C_5  and  C_3 
REMARK    3  A    between atoms: C_16  and  C_15 
REMARK    4  A    between atoms: C_17  and  C_16 
REMARK    5  A    between atoms: C_19  and  C_17 
REMARK    6  A    between atoms: C_18  and  C_19 
ROOT
ATOM      1  N   UNL d   1      46.357 -15.993  43.991  0.00  0.00    -0.244 NA
ATOM      2  C   UNL d   1      45.868 -16.593  44.319  0.00  0.00     0.081 A 
ATOM      3  C   UNL d   1      45.213 -16.373  44.806  0.00  0.00     0.019 A 
ATOM      4  C   UNL d   1      46.202 -15.160  44.143  0.00  0.00     0.099 A 
ATOM      5  C   UNL d   1      45.060 -15.587  44.955  0.00  0.00     0.003 A 
ATOM      6  C   UNL d   1      45.549 -14.986  44.627  0.00  0.00     0.019 A 
ENDROOT
BRANCH   2   7
ATOM      7  C   UNL d   1      46.033 -17.349  44.164  0.00  0.00     0.018 A 
ATOM      8  C   UNL d   1      46.136 -17.872  44.780  0.00  0.00     0.002 A 
ATOM      9  C   UNL d   1      46.312 -18.681  44.597  0.00  0.00     0.006 A 
ATOM     10  C   UNL d   1      46.377 -18.925  43.819  0.00  0.00     0.064 A 
ATOM     11  C   UNL d   1      46.266 -18.363  43.190  0.00  0.00     0.006 A 
ATOM     12  C   UNL d   1      46.097 -17.589  43.384  0.00  0.00     0.002 A 
BRANCH  10  13
ATOM     13  C   UNL d   1      46.553 -19.733  43.636  0.00  0.00     0.211 C 
ATOM     14  O   UNL d   1      46.645 -20.328  44.217  0.00  0.00    -0.644 OA
ATOM     15  O   UNL d   1      46.646 -19.971  42.824  0.00  0.00    -0.644 OA
ENDBRANCH  10  13
ENDBRANCH   2   7
BRANCH   6  16
ATOM     16  C   UNL d   1      45.396 -14.150  44.777  0.00  0.00     0.002 C 
BRANCH  16  17
ATOM     17  C   UNL d   1      45.424 -13.641  44.143  0.00  0.00     0.000 C 
BRANCH  17  18
ATOM     18  C   UNL d   1      45.313 -12.810  44.271  0.00  0.00     0.000 C 
BRANCH  18  19
ATOM     19  C   UNL d   1      45.477 -12.268  43.714  0.00  0.00     0.000 C 
ATOM     20  C   UNL d   1      44.996 -12.168  43.058  0.00  0.00     0.000 C 
ENDBRANCH  18  19
ENDBRANCH  17  18
ENDBRANCH  16  17
ENDBRANCH   6  16
TORSDOF 6
ENDMDL
MODEL 2
REMARK VINA RESULT:      13.1      2.524      5.074
REMARK  6 active torsions:
REMARK  status: ('A' for Active; 'I' for Inactive)
REMARK    1  A    between atoms: C_2  and  C_4 
REMARK    2  A    between atoms: C_5  and  C_3 
REMARK    3  A    between atoms: C_16  and  C_15 
REMARK    4  A    between atoms: C_17  and  C_16 
REMARK    5  A    between atoms: C_19  and  C_17 
REMARK    6  A    between atoms: C_18  and  C_19 
ROOT
ATOM      1  N   UNL d   1      46.093 -16.640  43.523  0.00  0.00    -0.244 NA
ATOM      2  C   UNL d   1      45.906 -16.265  44.252  0.00  0.00     0.081 A 
ATOM      3  C   UNL d   1      45.848 -16.731  44.955  0.00  0.00     0.019 A 
ATOM      4  C   UNL d   1      46.227 -17.489  43.482  0.00  0.00     0.099 A 
ATOM      5  C   UNL d   1      45.974 -17.535  44.924  0.00  0.00     0.003 A 
ATOM      6  C   UNL d   1      46.161 -17.911  44.195  0.00  0.00     0.019 A 
ENDROOT
BRANCH   2   7
ATOM      7  C   UNL d   1      45.788 -15.484  44.262  0.00  0.00     0.018 A 
ATOM      8  C   UNL d   1      46.326 -14.992  43.899  0.00  0.00     0.002 A 
ATOM      9  C   UNL d   1      46.186 -14.157  43.917  0.00  0.00     0.006 A 
ATOM     10  C   UNL d   1      45.525 -13.857  44.293  0.00  0.00     0.064 A 
ATOM     11  C   UNL d   1      44.974 -14.387  44.667  0.00  0.00     0.006 A 
ATOM     12  C   UNL d   1      45.125 -15.188  44.638  0.00  0.00     0.002 A 
BRANCH  10  13
ATOM     13  C   UNL d   1      45.383 -13.022  44.312  0.00  0.00     0.211 C 
ATOM     14  O   UNL d   1      45.805 -12.494  44.807  0.00  0.00    -0.644 OA
ATOM     15  O   UNL d   1      44.786 -12.682  43.810  0.00  0.00    -0.644 OA
ENDBRANCH  10  13
ENDBRANCH   2   7
BRANCH   6  16
ATOM     16  C   UNL d   1      46.296 -18.762  44.150  0.00  0.00     0.002 C 
BRANCH  16  17
ATOM     17  C   UNL d   1      46.609 -19.059  43.460  0.00  0.00     0.000 C 
BRANCH  17  18
ATOM     18  C   UNL d   1      46.363 -19.823  43.186  0.00  0.00     0.000 C 
BRANCH  18  19
ATOM     19  C   UNL d   1      46.625 -20.136  42.504  0.00  0.00     0.000 C 
ATOM     20  C   UNL d   1      46.113 -20.324  41.894  0.00  0.00     0.000 C 
ENDBRANCH  18  19
ENDBRANCH  17  18
ENDBRANCH  16  17
ENDBRANCH   6  16
TORSDOF 6
ENDMDL
