MODEL 1
REMARK VINA RESULT:      39.1      0.000      0.000
REMARK  1 active torsions:
REMARK  status: ('A' for Active; 'I' for Inactive)
REMARK    1  A    between atoms: C_7  and  C_1 
ROOT
ATOM      1  C   UNL d   1     -54.751-101.247 -42.579  0.00  0.00     0.103 A 
ATOM      2  C   UNL d   1     -54.743-101.684 -43.294  0.00  0.00     0.067 A 
ATOM      3  C   UNL d   1     -54.735-100.451 -44.049  0.00  0.00     0.062 A 
ATOM      4  C   UNL d   1     -54.735-101.281 -44.024  0.00  0.00     0.200 A 
ATOM      5  O   UNL d   1     -54.751-100.414 -42.601  0.00  0.00    -0.307 OA
ATOM      6  C   UNL d   1     -54.743-100.020 -43.330  0.00  0.00     0.103 A 
ATOM      7  C   UNL d   1     -54.728-100.057 -44.768  0.00  0.00     0.005 A 
ATOM      8  O   UNL d   1     -54.728-101.712 -44.727  0.00  0.00    -0.286 OA
ATOM      9  C   UNL d   1     -54.743 -99.191 -43.355  0.00  0.00     0.025 A 
ATOM     10  C   UNL d   1     -54.728 -99.233 -44.789  0.00  0.00     0.000 A 
ATOM     11  C   UNL d   1     -54.735 -98.803 -44.086  0.00  0.00     0.002 A 
ATOM     12  C   UNL d   1     -54.720 -98.842 -45.513  0.00  0.00     0.000 C 
ENDROOT
BRANCH   1  13
ATOM     13  C   UNL d   1     -54.759-101.643 -41.863  0.00  0.00     0.023 A 
ATOM     14  C   UNL d   1     -54.717-101.220 -41.151  0.00  0.00     0.002 A 
ATOM     15  C   UNL d   1     -54.726-101.625 -40.433  0.00  0.00     0.000 A 
ATOM     16  C   UNL d   1     -54.775-102.448 -40.424  0.00  0.00     0.000 A 
ATOM     17  C   UNL d   1     -54.816-102.867 -41.132  0.00  0.00     0.000 A 
ATOM     18  C   UNL d   1     -54.783-102.852 -39.700  0.00  0.00     0.000 C 
ATOM     19  C   UNL d   1     -54.808-102.462 -41.849  0.00  0.00     0.002 A 
ENDBRANCH   1  13
TORSDOF 1
ENDMDL
