MODEL 1
REMARK VINA RESULT:      -3.9      0.000      0.000
REMARK  3 active torsions:
REMARK  status: ('A' for Active; 'I' for Inactive)
REMARK    1  A    between atoms: N_6  and  C_1 
REMARK       I    between atoms: C_8  and  N_6 
REMARK       I    between atoms: C_11  and  N_7 
REMARK    2  A    between atoms: C_14  and  C_8 
REMARK    3  A    between atoms: O_20  and  C_19 
ROOT
ATOM      1  C   UNL d   1      57.562   0.655  31.800  0.00  0.00     0.124 A 
ATOM      2  C   UNL d   1      57.831   0.666  32.587  0.00  0.00     0.093 A 
ATOM      3  C   UNL d   1      56.492   0.660  32.616  0.00  0.00     0.049 A 
ATOM      4  C   UNL d   1      57.167   0.669  33.087  0.00  0.00     0.021 A 
ATOM      5  S   UNL d   1      56.723   0.651  31.822  0.00  0.00    -0.066 SA
ATOM      6  N   UNL d   1      55.668   0.670  33.789  0.00  0.00    -0.272 N 
ATOM      7  C   UNL d   1      55.733   0.660  32.971  0.00  0.00     0.089 A 
ATOM      8  C   UNL d   1      58.623   0.673  32.821  0.00  0.00     0.103 C 
ATOM      9  C   UNL d   1      54.919   0.671  34.150  0.00  0.00     0.265 C 
ATOM     10  N   UNL d   1      59.402   0.681  33.051  0.00  0.00    -0.191 NA
ATOM     11  C   UNL d   1      57.107   0.680  33.920  0.00  0.00     0.020 A 
ATOM     12  C   UNL d   1      56.355   0.680  34.263  0.00  0.00     0.083 A 
ATOM     13  O   UNL d   1      54.242   0.661  33.683  0.00  0.00    -0.267 OA
ATOM     14  C   UNL d   1      54.854   0.681  34.968  0.00  0.00     0.066 C 
ENDROOT
BRANCH   1  15
ATOM     15  N   UNL d   1      58.031   0.648  31.120  0.00  0.00    -0.201 NA
ATOM     16  C   UNL d   1      57.885   0.097  30.524  0.00  0.00     0.280 C 
ATOM     17  O   UNL d   1      57.275  -0.451  30.597  0.00  0.00    -0.265 OA
BRANCH  16  18
ATOM     18  C   UNL d   1      58.345   0.091  29.857  0.00  0.00     0.060 A 
ATOM     19  C   UNL d   1      58.954  -0.459  29.773  0.00  0.00     0.029 A 
ATOM     20  C   UNL d   1      59.422  -0.465  29.096  0.00  0.00     0.094 A 
ATOM     21  C   UNL d   1      59.285   0.078  28.497  0.00  0.00     0.024 A 
ATOM     22  C   UNL d   1      58.678   0.631  28.572  0.00  0.00     0.002 A 
ATOM     23  C   UNL d   1      58.203   0.638  29.259  0.00  0.00     0.005 A 
BRANCH  20  24
ATOM     24  O   UNL d   1      60.047  -1.025  29.003  0.00  0.00    -0.328 OA
ATOM     25  C   UNL d   1      60.763  -0.809  28.662  0.00  0.00     0.181 C 
ENDBRANCH  20  24
ENDBRANCH  16  18
ENDBRANCH   1  15
TORSDOF 3
ENDMDL
MODEL 2
REMARK VINA RESULT:      -2.8      9.869     10.882
REMARK  3 active torsions:
REMARK  status: ('A' for Active; 'I' for Inactive)
REMARK    1  A    between atoms: N_6  and  C_1 
REMARK       I    between atoms: C_8  and  N_6 
REMARK       I    between atoms: C_11  and  N_7 
REMARK    2  A    between atoms: C_14  and  C_8 
REMARK    3  A    between atoms: O_20  and  C_19 
ROOT
ATOM      1  C   UNL d   1      58.960  -9.789  32.720  0.00  0.00     0.124 A 
ATOM      2  C   UNL d   1      59.394  -9.791  32.010  0.00  0.00     0.093 A 
ATOM      3  C   UNL d   1      58.094  -9.798  31.690  0.00  0.00     0.049 A 
ATOM      4  C   UNL d   1      58.855  -9.797  31.377  0.00  0.00     0.021 A 
ATOM      5  S   UNL d   1      58.147  -9.793  32.516  0.00  0.00    -0.066 SA
ATOM      6  N   UNL d   1      57.544  -9.808  30.367  0.00  0.00    -0.272 N 
ATOM      7  C   UNL d   1      57.430  -9.804  31.179  0.00  0.00     0.089 A 
ATOM      8  C   UNL d   1      60.219  -9.788  31.954  0.00  0.00     0.103 C 
ATOM      9  C   UNL d   1      56.892  -9.813  29.851  0.00  0.00     0.265 C 
ATOM     10  N   UNL d   1      61.029  -9.785  31.899  0.00  0.00    -0.191 NA
ATOM     11  C   UNL d   1      58.978  -9.801  30.552  0.00  0.00     0.020 A 
ATOM     12  C   UNL d   1      58.318  -9.807  30.053  0.00  0.00     0.083 A 
ATOM     13  O   UNL d   1      56.129  -9.815  30.160  0.00  0.00    -0.267 OA
ATOM     14  C   UNL d   1      57.006  -9.818  29.039  0.00  0.00     0.066 C 
ENDROOT
BRANCH   1  15
ATOM     15  N   UNL d   1      59.270  -9.783  33.486  0.00  0.00    -0.201 NA
ATOM     16  C   UNL d   1      59.071  -9.175  34.007  0.00  0.00     0.280 C 
ATOM     17  O   UNL d   1      58.564  -8.570  33.773  0.00  0.00    -0.265 OA
BRANCH  16  18
ATOM     18  C   UNL d   1      59.375  -9.170  34.757  0.00  0.00     0.060 A 
ATOM     19  C   UNL d   1      59.994  -8.662  34.955  0.00  0.00     0.029 A 
ATOM     20  C   UNL d   1      60.303  -8.657  35.717  0.00  0.00     0.094 A 
ATOM     21  C   UNL d   1      59.996  -9.159  36.289  0.00  0.00     0.024 A 
ATOM     22  C   UNL d   1      59.377  -9.670  36.100  0.00  0.00     0.002 A 
ATOM     23  C   UNL d   1      59.063  -9.675  35.326  0.00  0.00     0.005 A 
BRANCH  20  24
ATOM     24  O   UNL d   1      60.937  -8.140  35.927  0.00  0.00    -0.328 OA
ATOM     25  C   UNL d   1      60.793  -7.416  36.288  0.00  0.00     0.181 C 
ENDBRANCH  20  24
ENDBRANCH  16  18
ENDBRANCH   1  15
TORSDOF 3
ENDMDL
