MODEL 1
REMARK VINA RESULT:      26.6      0.000      0.000
REMARK  5 active torsions:
REMARK  status: ('A' for Active; 'I' for Inactive)
REMARK    1  A    between atoms: C_9  and  N_1 
REMARK    2  A    between atoms: S_8  and  C_2 
REMARK    3  A    between atoms: C_6  and  C_10 
REMARK       I    between atoms: N_7  and  C_6 
REMARK    4  A    between atoms: C_10  and  S_8 
REMARK    5  A    between atoms: C_13  and  C_9 
ROOT
ATOM      1  N   UNL d   1      46.433 -18.563  42.907  0.00  0.00    -0.303 N 
ATOM      2  C   UNL d   1      46.053 -17.907  44.005  0.00  0.00     0.049 A 
ATOM      3  C   UNL d   1      46.220 -17.835  43.190  0.00  0.00     0.087 A 
ATOM      4  C   UNL d   1      46.172 -18.701  44.202  0.00  0.00     0.024 A 
ATOM      5  C   UNL d   1      46.408 -19.106  43.524  0.00  0.00     0.065 A 
ATOM      6  C   UNL d   1      46.095 -19.100  44.916  0.00  0.00     0.002 A 
ATOM      7  C   UNL d   1      46.566 -19.911  43.558  0.00  0.00     0.018 A 
ATOM      8  C   UNL d   1      46.254 -19.910  44.953  0.00  0.00     0.000 A 
ATOM      9  C   UNL d   1      46.490 -20.315  44.274  0.00  0.00     0.002 A 
ENDROOT
BRANCH   2  10
ATOM     10  S   UNL d   1      45.815 -17.309  44.517  0.00  0.00    -0.080 SA
BRANCH  10  11
ATOM     11  C   UNL d   1      45.942 -16.512  44.318  0.00  0.00     0.097 C 
BRANCH  11  12
ATOM     12  C   UNL d   1      45.424 -15.925  44.568  0.00  0.00     0.272 C 
ATOM     13  N   UNL d   1      45.588 -15.127  44.436  0.00  0.00    -0.267 N 
ATOM     14  C   UNL d   1      46.287 -14.919  44.045  0.00  0.00     0.110 A 
ATOM     15  C   UNL d   1      45.062 -14.547  44.691  0.00  0.00     0.110 A 
ATOM     16  C   UNL d   1      46.461 -14.131  43.908  0.00  0.00     0.142 A 
ATOM     17  O   UNL d   1      45.928 -13.535  44.166  0.00  0.00    -0.300 OA
ATOM     18  C   UNL d   1      45.233 -13.745  44.555  0.00  0.00     0.142 A 
ATOM     19  O   UNL d   1      44.735 -16.140  44.954  0.00  0.00    -0.266 OA
ENDBRANCH  11  12
ENDBRANCH  10  11
ENDBRANCH   2  10
BRANCH   1  20
ATOM     20  C   UNL d   1      46.646 -18.733  42.113  0.00  0.00     0.080 C 
BRANCH  20  21
ATOM     21  C   UNL d   1      46.134 -18.551  41.499  0.00  0.00     0.018 A 
ATOM     22  C   UNL d   1      46.425 -18.352  40.752  0.00  0.00     0.002 A 
ATOM     23  C   UNL d   1      45.907 -18.170  40.138  0.00  0.00     0.000 A 
ATOM     24  C   UNL d   1      45.099 -18.185  40.260  0.00  0.00     0.000 A 
ATOM     25  C   UNL d   1      44.795 -18.386  41.014  0.00  0.00     0.000 A 
ATOM     26  C   UNL d   1      45.320 -18.568  41.628  0.00  0.00     0.002 A 
ENDBRANCH  20  21
ENDBRANCH   1  20
TORSDOF 5
ENDMDL
