MODEL 1
REMARK VINA RESULT:      45.4      0.000      0.000
REMARK  5 active torsions:
REMARK  status: ('A' for Active; 'I' for Inactive)
REMARK    1  A    between atoms: N_2  and  C_1 
REMARK       I    between atoms: C_7  and  N_2 
REMARK    2  A    between atoms: C_21  and  N_3 
REMARK    3  A    between atoms: C_8  and  C_7 
REMARK       I    between atoms: C_12  and  N_13 
REMARK    4  A    between atoms: N_13  and  C_14 
REMARK    5  A    between atoms: C_20  and  C_21 
ROOT
ATOM      1  C   UNL d   1      13.583  13.712  -3.954  0.00  0.00     0.182 A 
ATOM      2  N   UNL d   1      13.304  12.944  -3.892  0.00  0.00    -0.285 N 
ATOM      3  S   UNL d   1      13.977  13.897  -3.254  0.00  0.00    -0.048 SA
ATOM      4  C   UNL d   1      13.940  13.237  -2.758  0.00  0.00     0.050 A 
ATOM      5  C   UNL d   1      13.522  12.645  -3.154  0.00  0.00     0.072 A 
ATOM      6  C   UNL d   1      14.232  13.098  -2.000  0.00  0.00     0.027 A 
ATOM      7  C   UNL d   1      13.396  11.916  -2.791  0.00  0.00     0.020 A 
ATOM      8  C   UNL d   1      14.106  12.370  -1.639  0.00  0.00     0.085 A 
ATOM      9  C   UNL d   1      13.688  11.779  -2.034  0.00  0.00     0.021 A 
ENDROOT
BRANCH   1  10
ATOM     10  N   UNL d   1      13.483  14.208  -4.606  0.00  0.00    -0.183 NA
ATOM     11  C   UNL d   1      13.623  15.015  -4.527  0.00  0.00     0.287 C 
ATOM     12  O   UNL d   1      13.860  15.321  -3.800  0.00  0.00    -0.265 OA
BRANCH  11  13
ATOM     13  C   UNL d   1      13.525  15.517  -5.174  0.00  0.00     0.087 A 
ATOM     14  S   UNL d   1      14.080  15.666  -5.770  0.00  0.00    -0.082 SA
ATOM     15  C   UNL d   1      13.757  16.201  -6.309  0.00  0.00     0.036 A 
ATOM     16  C   UNL d   1      12.996  16.385  -6.046  0.00  0.00     0.008 A 
ATOM     17  C   UNL d   1      12.848  15.968  -5.349  0.00  0.00     0.012 A 
ENDBRANCH  11  13
ENDBRANCH   1  10
BRANCH   2  18
ATOM     18  C   UNL d   1      12.876  12.532  -4.466  0.00  0.00     0.082 C 
BRANCH  18  19
ATOM     19  C   UNL d   1      13.266  12.138  -5.074  0.00  0.00     0.019 C 
ATOM     20  C   UNL d   1      12.839  11.794  -5.686  0.00  0.00     0.002 C 
ENDBRANCH  18  19
ENDBRANCH   2  18
BRANCH   8  21
ATOM     21  N   UNL d   1      14.401  12.228  -0.870  0.00  0.00    -0.208 NA
ATOM     22  C   UNL d   1      15.157  11.937  -0.773  0.00  0.00     0.279 C 
ATOM     23  O   UNL d   1      15.445  11.798  -0.014  0.00  0.00    -0.265 OA
ATOM     24  C   UNL d   1      15.638  11.780  -1.424  0.00  0.00     0.068 C 
ENDBRANCH   8  21
TORSDOF 5
ENDMDL
