MODEL 1
REMARK VINA RESULT:       2.2      0.000      0.000
REMARK  5 active torsions:
REMARK  status: ('A' for Active; 'I' for Inactive)
REMARK    1  A    between atoms: C_11  and  N_1 
REMARK    2  A    between atoms: S_14  and  C_2 
REMARK    3  A    between atoms: C_12  and  C_3 
REMARK    4  A    between atoms: C_8  and  C_12 
REMARK    5  A    between atoms: C_20  and  S_14 
ROOT
ATOM      1  N   UNL d   1     -41.274-122.344 -51.705  0.00  0.00    -0.269 N 
ATOM      2  C   UNL d   1     -41.379-122.964 -51.193  0.00  0.00     0.201 A 
ATOM      3  C   UNL d   1     -41.230-122.655 -52.465  0.00  0.00     0.172 A 
ATOM      4  N   UNL d   1     -41.403-123.660 -51.611  0.00  0.00    -0.121 NA
ATOM      5  N   UNL d   1     -41.309-123.467 -52.407  0.00  0.00    -0.128 NA
ENDROOT
BRANCH   3   6
ATOM      6  C   UNL d   1     -41.124-122.161 -53.100  0.00  0.00     0.059 C 
BRANCH   6   7
ATOM      7  C   UNL d   1     -41.467-122.351 -53.822  0.00  0.00     0.094 A 
ATOM      8  C   UNL d   1     -42.130-121.945 -54.083  0.00  0.00     0.082 A 
ATOM      9  C   UNL d   1     -42.472-122.138 -54.808  0.00  0.00     0.285 A 
ATOM     10  O   UNL d   1     -43.153-121.724 -55.080  0.00  0.00    -0.265 OA
ATOM     11  N   UNL d   1     -42.136-122.747 -55.268  0.00  0.00    -0.152 NA
ATOM     12  C   UNL d   1     -41.477-123.149 -55.006  0.00  0.00     0.371 A 
ATOM     13  N   UNL d   1     -41.137-122.949 -54.274  0.00  0.00    -0.191 NA
ATOM     14  O   UNL d   1     -41.152-123.750 -55.470  0.00  0.00    -0.242 OA
ENDBRANCH   6   7
ENDBRANCH   3   6
BRANCH   1  15
ATOM     15  C   UNL d   1     -41.224-121.561 -51.472  0.00  0.00     0.067 A 
ATOM     16  C   UNL d   1     -41.204-120.963 -52.044  0.00  0.00     0.018 A 
ATOM     17  C   UNL d   1     -41.154-120.166 -51.808  0.00  0.00     0.001 A 
ATOM     18  C   UNL d   1     -41.133-119.558 -52.387  0.00  0.00     0.000 C 
ATOM     19  C   UNL d   1     -41.124-119.980 -51.006  0.00  0.00     0.000 A 
ATOM     20  C   UNL d   1     -41.145-120.581 -50.440  0.00  0.00     0.002 A 
ATOM     21  C   UNL d   1     -41.195-121.370 -50.674  0.00  0.00     0.018 A 
ENDBRANCH   1  15
BRANCH   2  22
ATOM     22  S   UNL d   1     -41.452-122.890 -50.357  0.00  0.00    -0.048 SA
BRANCH  22  23
ATOM     23  C   UNL d   1     -41.901-123.452 -49.933  0.00  0.00     0.032 C 
ATOM     24  C   UNL d   1     -41.641-123.710 -49.191  0.00  0.00     0.007 C 
ATOM     25  C   UNL d   1     -42.600-123.744 -50.261  0.00  0.00     0.007 C 
ENDBRANCH  22  23
ENDBRANCH   2  22
TORSDOF 5
ENDMDL
MODEL 2
REMARK VINA RESULT:       2.2      2.336      3.846
REMARK  5 active torsions:
REMARK  status: ('A' for Active; 'I' for Inactive)
REMARK    1  A    between atoms: C_11  and  N_1 
REMARK    2  A    between atoms: S_14  and  C_2 
REMARK    3  A    between atoms: C_12  and  C_3 
REMARK    4  A    between atoms: C_8  and  C_12 
REMARK    5  A    between atoms: C_20  and  S_14 
ROOT
ATOM      1  N   UNL d   1     -41.759-122.352 -51.731  0.00  0.00    -0.269 N 
ATOM      2  C   UNL d   1     -41.740-122.815 -52.398  0.00  0.00     0.201 A 
ATOM      3  C   UNL d   1     -42.020-122.823 -51.111  0.00  0.00     0.172 A 
ATOM      4  N   UNL d   1     -41.984-123.566 -52.213  0.00  0.00    -0.121 NA
ATOM      5  N   UNL d   1     -42.159-123.572 -51.408  0.00  0.00    -0.128 NA
ENDROOT
BRANCH   3   6
ATOM      6  C   UNL d   1     -42.096-122.508 -50.366  0.00  0.00     0.059 C 
BRANCH   6   7
ATOM      7  C   UNL d   1     -42.483-122.938 -49.782  0.00  0.00     0.094 A 
ATOM      8  C   UNL d   1     -43.266-123.158 -49.884  0.00  0.00     0.082 A 
ATOM      9  C   UNL d   1     -43.652-123.589 -49.295  0.00  0.00     0.285 A 
ATOM     10  O   UNL d   1     -44.457-123.817 -49.395  0.00  0.00    -0.265 OA
ATOM     11  N   UNL d   1     -43.236-123.796 -48.603  0.00  0.00    -0.152 NA
ATOM     12  C   UNL d   1     -42.457-123.576 -48.506  0.00  0.00     0.371 A 
ATOM     13  N   UNL d   1     -42.075-123.142 -49.102  0.00  0.00    -0.191 NA
ATOM     14  O   UNL d   1     -42.055-123.787 -47.816  0.00  0.00    -0.242 OA
ENDBRANCH   6   7
ENDBRANCH   3   6
BRANCH   1  15
ATOM     15  C   UNL d   1     -41.548-121.561 -51.717  0.00  0.00     0.067 A 
ATOM     16  C   UNL d   1     -41.543-121.125 -52.420  0.00  0.00     0.018 A 
ATOM     17  C   UNL d   1     -41.328-120.320 -52.406  0.00  0.00     0.001 A 
ATOM     18  C   UNL d   1     -41.322-119.876 -53.119  0.00  0.00     0.000 C 
ATOM     19  C   UNL d   1     -41.123-119.966 -51.692  0.00  0.00     0.000 A 
ATOM     20  C   UNL d   1     -41.130-120.407 -50.993  0.00  0.00     0.002 A 
ATOM     21  C   UNL d   1     -41.342-121.203 -51.007  0.00  0.00     0.018 A 
ENDBRANCH   1  15
BRANCH   2  22
ATOM     22  S   UNL d   1     -41.503-122.548 -53.161  0.00  0.00    -0.048 SA
BRANCH  22  23
ATOM     23  C   UNL d   1     -41.696-123.004 -53.833  0.00  0.00     0.032 C 
ATOM     24  C   UNL d   1     -41.123-123.490 -54.179  0.00  0.00     0.007 C 
ATOM     25  C   UNL d   1     -42.460-122.964 -54.145  0.00  0.00     0.007 C 
ENDBRANCH  22  23
ENDBRANCH   2  22
TORSDOF 5
ENDMDL
