MODEL 1
REMARK VINA RESULT:      98.9      0.000      0.000
REMARK  3 active torsions:
REMARK  status: ('A' for Active; 'I' for Inactive)
REMARK    1  A    between atoms: S_5  and  C_3 
REMARK    2  A    between atoms: C_12  and  S_5 
REMARK    3  A    between atoms: C_23  and  N_6 
ROOT
ATOM      1  C   UNL d   1     -47.823  30.429  35.042  0.00  0.00     0.155 A 
ATOM      2  C   UNL d   1     -48.319  30.472  34.396  0.00  0.00     0.092 A 
ATOM      3  C   UNL d   1     -48.659  29.111  34.570  0.00  0.00     0.124 A 
ATOM      4  N   UNL d   1     -47.402  31.092  35.279  0.00  0.00    -0.210 NA
ATOM      5  N   UNL d   1     -47.740  29.740  35.453  0.00  0.00    -0.273 N 
ATOM      6  C   UNL d   1     -48.157  29.067  35.224  0.00  0.00     0.181 A 
ATOM      7  C   UNL d   1     -48.401  31.176  33.980  0.00  0.00     0.269 A 
ATOM      8  N   UNL d   1     -47.981  31.835  34.218  0.00  0.00    -0.258 N 
ATOM      9  C   UNL d   1     -48.738  29.814  34.158  0.00  0.00     0.022 A 
ATOM     10  C   UNL d   1     -47.480  31.791  34.871  0.00  0.00     0.152 A 
ATOM     11  N   UNL d   1     -48.072  28.355  35.649  0.00  0.00    -0.128 N 
ATOM     12  C   UNL d   1     -48.057  32.541  33.808  0.00  0.00     0.084 A 
ATOM     13  O   UNL d   1     -48.908  31.221  33.319  0.00  0.00    -0.266 OA
ATOM     14  C   UNL d   1     -47.059  32.453  35.108  0.00  0.00     0.038 A 
ATOM     15  C   UNL d   1     -47.638  33.196  34.047  0.00  0.00     0.019 A 
ATOM     16  C   UNL d   1     -47.137  33.152  34.700  0.00  0.00     0.005 A 
ENDROOT
BRANCH   3  17
ATOM     17  S   UNL d   1     -49.084  28.430  34.336  0.00  0.00     0.213 S 
ATOM     18  O   UNL d   1     -48.457  28.188  33.842  0.00  0.00    -0.217 OA
ATOM     19  O   UNL d   1     -49.712  28.669  34.828  0.00  0.00    -0.217 OA
BRANCH  17  20
ATOM     20  C   UNL d   1     -49.521  27.755  34.112  0.00  0.00     0.088 A 
ATOM     21  C   UNL d   1     -50.102  27.811  33.525  0.00  0.00     0.014 A 
ATOM     22  C   UNL d   1     -50.533  27.139  33.306  0.00  0.00     0.030 A 
ATOM     23  C   UNL d   1     -50.389  26.408  33.670  0.00  0.00     0.140 A 
ATOM     24  C   UNL d   1     -49.799  26.357  34.265  0.00  0.00     0.030 A 
ATOM     25  F   UNL d   1     -50.822  25.731  33.451  0.00  0.00    -0.204 F 
ATOM     26  C   UNL d   1     -49.368  27.028  34.484  0.00  0.00     0.014 A 
ENDBRANCH  17  20
ENDBRANCH   3  17
BRANCH   5  27
ATOM     27  C   UNL d   1     -47.231  29.695  36.117  0.00  0.00     0.083 C 
ATOM     28  C   UNL d   1     -47.483  29.271  36.797  0.00  0.00     0.021 C 
ENDBRANCH   5  27
TORSDOF 3
ENDMDL
MODEL 2
REMARK VINA RESULT:     101.6      2.196      5.382
REMARK  3 active torsions:
REMARK  status: ('A' for Active; 'I' for Inactive)
REMARK    1  A    between atoms: S_5  and  C_3 
REMARK    2  A    between atoms: C_12  and  S_5 
REMARK    3  A    between atoms: C_23  and  N_6 
ROOT
ATOM      1  C   UNL d   1     -50.469  27.035  33.692  0.00  0.00     0.155 A 
ATOM      2  C   UNL d   1     -49.736  26.842  33.993  0.00  0.00     0.092 A 
ATOM      3  C   UNL d   1     -49.442  28.216  34.148  0.00  0.00     0.124 A 
ATOM      4  N   UNL d   1     -50.986  26.440  33.463  0.00  0.00    -0.210 NA
ATOM      5  N   UNL d   1     -50.694  27.806  33.617  0.00  0.00    -0.273 N 
ATOM      6  C   UNL d   1     -50.184  28.412  33.843  0.00  0.00     0.181 A 
ATOM      7  C   UNL d   1     -49.510  26.055  34.069  0.00  0.00     0.269 A 
ATOM      8  N   UNL d   1     -50.026  25.465  33.840  0.00  0.00    -0.258 N 
ATOM      9  C   UNL d   1     -49.221  27.432  34.222  0.00  0.00     0.022 A 
ATOM     10  C   UNL d   1     -50.767  25.661  33.536  0.00  0.00     0.152 A 
ATOM     11  N   UNL d   1     -50.416  29.208  33.765  0.00  0.00    -0.128 N 
ATOM     12  C   UNL d   1     -49.809  24.678  33.912  0.00  0.00     0.084 A 
ATOM     13  O   UNL d   1     -48.761  25.858  34.377  0.00  0.00    -0.266 OA
ATOM     14  C   UNL d   1     -51.284  25.067  33.306  0.00  0.00     0.038 A 
ATOM     15  C   UNL d   1     -50.324  24.092  33.684  0.00  0.00     0.019 A 
ATOM     16  C   UNL d   1     -51.065  24.287  33.379  0.00  0.00     0.005 A 
ENDROOT
BRANCH   3  17
ATOM     17  S   UNL d   1     -48.923  28.829  34.380  0.00  0.00     0.213 S 
ATOM     18  O   UNL d   1     -49.454  29.408  34.101  0.00  0.00    -0.217 OA
ATOM     19  O   UNL d   1     -48.389  28.253  34.659  0.00  0.00    -0.217 OA
BRANCH  17  20
ATOM     20  C   UNL d   1     -48.392  29.429  34.616  0.00  0.00     0.088 A 
ATOM     21  C   UNL d   1     -47.961  29.349  35.318  0.00  0.00     0.014 A 
ATOM     22  C   UNL d   1     -47.436  29.946  35.549  0.00  0.00     0.030 A 
ATOM     23  C   UNL d   1     -47.338  30.625  35.084  0.00  0.00     0.140 A 
ATOM     24  C   UNL d   1     -47.778  30.700  34.373  0.00  0.00     0.030 A 
ATOM     25  F   UNL d   1     -46.810  31.227  35.315  0.00  0.00    -0.204 F 
ATOM     26  C   UNL d   1     -48.303  30.104  34.142  0.00  0.00     0.014 A 
ENDBRANCH  17  20
ENDBRANCH   3  17
BRANCH   5  27
ATOM     27  C   UNL d   1     -51.448  28.004  33.307  0.00  0.00     0.083 C 
ATOM     28  C   UNL d   1     -52.071  27.444  33.359  0.00  0.00     0.021 C 
ENDBRANCH   5  27
TORSDOF 3
ENDMDL
