MODEL 1
REMARK VINA RESULT:      80.3      0.000      0.000
REMARK  7 active torsions:
REMARK  status: ('A' for Active; 'I' for Inactive)
REMARK    1  A    between atoms: C_13  and  N_1 
REMARK    2  A    between atoms: C_2  and  N_6 
REMARK    3  A    between atoms: C_9  and  C_5 
REMARK       I    between atoms: N_6  and  C_9 
REMARK    4  A    between atoms: S_14  and  C_7 
REMARK    5  A    between atoms: C_21  and  S_14 
REMARK    6  A    between atoms: C_15  and  C_21 
REMARK    7  A    between atoms: O_25  and  C_15 
ROOT
ATOM      1  N   UNL d   1      61.233  46.901  50.110  0.00  0.00    -0.181 NA
ATOM      2  C   UNL d   1      61.464  47.619  50.307  0.00  0.00     0.283 C 
ATOM      3  O   UNL d   1      62.211  47.823  50.225  0.00  0.00    -0.265 OA
ENDROOT
BRANCH   2   4
ATOM      4  C   UNL d   1      60.949  48.129  50.583  0.00  0.00     0.080 A 
ATOM      5  C   UNL d   1      60.194  48.163  50.409  0.00  0.00     0.088 A 
ATOM      6  N   UNL d   1      59.882  48.754  50.805  0.00  0.00    -0.273 N 
ATOM      7  C   UNL d   1      60.442  49.084  51.222  0.00  0.00     0.265 A 
ATOM      8  C   UNL d   1      61.108  48.699  51.088  0.00  0.00     0.067 A 
ATOM      9  O   UNL d   1      60.359  49.699  51.699  0.00  0.00    -0.267 OA
BRANCH   6  10
ATOM     10  C   UNL d   1      59.076  48.989  50.781  0.00  0.00     0.067 A 
ATOM     11  C   UNL d   1      58.619  48.961  51.477  0.00  0.00     0.020 A 
ATOM     12  C   UNL d   1      57.817  49.197  51.443  0.00  0.00     0.031 A 
ATOM     13  C   UNL d   1      57.480  49.455  50.733  0.00  0.00     0.140 A 
ATOM     14  C   UNL d   1      57.946  49.481  50.036  0.00  0.00     0.031 A 
ATOM     15  F   UNL d   1      56.672  49.692  50.701  0.00  0.00    -0.204 F 
ATOM     16  C   UNL d   1      58.736  49.251  50.060  0.00  0.00     0.020 A 
ENDBRANCH   6  10
ENDBRANCH   2   4
BRANCH   1  17
ATOM     17  C   UNL d   1      61.745  46.388  49.833  0.00  0.00     0.219 A 
ATOM     18  S   UNL d   1      61.902  45.687  50.133  0.00  0.00    -0.019 SA
ATOM     19  C   UNL d   1      62.441  45.354  49.695  0.00  0.00     0.165 A 
ATOM     20  N   UNL d   1      62.630  45.839  49.116  0.00  0.00    -0.133 NA
ATOM     21  N   UNL d   1      62.192  46.490  49.203  0.00  0.00    -0.120 NA
BRANCH  19  22
ATOM     22  S   UNL d   1      62.955  43.786  50.162  0.00  0.00    -0.053 SA
BRANCH  22  23
ATOM     23  C   UNL d   1      62.409  43.248  50.492  0.00  0.00     0.106 C 
BRANCH  23  24
ATOM     24  C   UNL d   1      62.674  42.651  51.028  0.00  0.00     0.303 C 
ATOM     25  O   UNL d   1      63.158  42.026  50.759  0.00  0.00    -0.259 OA
BRANCH  24  26
ATOM     26  O   UNL d   1      62.439  42.701  51.837  0.00  0.00    -0.295 OA
ATOM     27  C   UNL d   1      61.631  42.810  52.011  0.00  0.00     0.185 C 
ENDBRANCH  24  26
ENDBRANCH  23  24
ENDBRANCH  22  23
ENDBRANCH  19  22
ENDBRANCH   1  17
TORSDOF 7
ENDMDL
MODEL 2
REMARK VINA RESULT:      81.1      2.661      6.031
REMARK  7 active torsions:
REMARK  status: ('A' for Active; 'I' for Inactive)
REMARK    1  A    between atoms: C_13  and  N_1 
REMARK    2  A    between atoms: C_2  and  N_6 
REMARK    3  A    between atoms: C_9  and  C_5 
REMARK       I    between atoms: N_6  and  C_9 
REMARK    4  A    between atoms: S_14  and  C_7 
REMARK    5  A    between atoms: C_21  and  S_14 
REMARK    6  A    between atoms: C_15  and  C_21 
REMARK    7  A    between atoms: O_25  and  C_15 
ROOT
ATOM      1  N   UNL d   1      61.233  47.380  50.750  0.00  0.00    -0.181 NA
ATOM      2  C   UNL d   1      61.047  46.993  50.100  0.00  0.00     0.283 C 
ATOM      3  O   UNL d   1      60.544  47.303  49.593  0.00  0.00    -0.265 OA
ENDROOT
BRANCH   2   4
ATOM      4  C   UNL d   1      61.363  46.299  49.960  0.00  0.00     0.080 A 
ATOM      5  C   UNL d   1      61.415  45.707  50.458  0.00  0.00     0.088 A 
ATOM      6  N   UNL d   1      61.769  45.117  50.095  0.00  0.00    -0.273 N 
ATOM      7  C   UNL d   1      61.935  45.345  49.376  0.00  0.00     0.265 A 
ATOM      8  C   UNL d   1      61.684  46.079  49.286  0.00  0.00     0.067 A 
ATOM      9  O   UNL d   1      62.292  44.915  48.829  0.00  0.00    -0.267 OA
BRANCH   6  10
ATOM     10  C   UNL d   1      61.940  44.367  50.431  0.00  0.00     0.067 A 
ATOM     11  C   UNL d   1      62.450  43.844  50.030  0.00  0.00     0.020 A 
ATOM     12  C   UNL d   1      62.614  43.098  50.372  0.00  0.00     0.031 A 
ATOM     13  C   UNL d   1      62.277  42.880  51.096  0.00  0.00     0.140 A 
ATOM     14  C   UNL d   1      61.765  43.411  51.494  0.00  0.00     0.031 A 
ATOM     15  F   UNL d   1      62.444  42.128  51.438  0.00  0.00    -0.204 F 
ATOM     16  C   UNL d   1      61.598  44.147  51.165  0.00  0.00     0.020 A 
ENDBRANCH   6  10
ENDBRANCH   2   4
BRANCH   1  17
ATOM     17  C   UNL d   1      60.919  48.076  50.894  0.00  0.00     0.219 A 
ATOM     18  S   UNL d   1      60.174  48.274  50.788  0.00  0.00    -0.019 SA
ATOM     19  C   UNL d   1      60.090  49.011  50.996  0.00  0.00     0.165 A 
ATOM     20  N   UNL d   1      60.779  49.285  51.235  0.00  0.00    -0.133 NA
ATOM     21  N   UNL d   1      61.300  48.696  51.170  0.00  0.00    -0.120 NA
BRANCH  19  22
ATOM     22  S   UNL d   1      58.518  49.681  50.851  0.00  0.00    -0.053 SA
BRANCH  22  23
ATOM     23  C   UNL d   1      58.030  49.466  50.209  0.00  0.00     0.106 C 
BRANCH  23  24
ATOM     24  C   UNL d   1      57.206  49.321  50.333  0.00  0.00     0.303 C 
ATOM     25  O   UNL d   1      56.828  49.595  51.025  0.00  0.00    -0.259 OA
BRANCH  24  26
ATOM     26  O   UNL d   1      56.778  48.895  49.744  0.00  0.00    -0.295 OA
ATOM     27  C   UNL d   1      56.073  49.226  49.445  0.00  0.00     0.185 C 
ENDBRANCH  24  26
ENDBRANCH  23  24
ENDBRANCH  22  23
ENDBRANCH  19  22
ENDBRANCH   1  17
TORSDOF 7
ENDMDL
