MODEL 1
REMARK VINA RESULT:     -10.1      0.000      0.000
REMARK  2 active torsions:
REMARK  status: ('A' for Active; 'I' for Inactive)
REMARK    1  A    between atoms: N_3  and  C_1 
REMARK       I    between atoms: C_6  and  N_3 
REMARK    2  A    between atoms: C_8  and  C_6 
ROOT
ATOM      1  N   UNL d   1      53.589  34.055  54.974  0.00  0.00    -0.183 NA
ATOM      2  C   UNL d   1      54.177  33.447  54.993  0.00  0.00     0.281 C 
ATOM      3  O   UNL d   1      54.734  33.437  55.595  0.00  0.00    -0.265 OA
ENDROOT
BRANCH   1   4
ATOM      4  C   UNL d   1      53.034  34.065  54.374  0.00  0.00     0.197 A 
ATOM      5  N   UNL d   1      52.321  33.668  54.372  0.00  0.00    -0.221 NA
ATOM      6  C   UNL d   1      51.941  33.828  53.675  0.00  0.00     0.090 A 
ATOM      7  C   UNL d   1      51.215  33.585  53.369  0.00  0.00     0.020 A 
ATOM      8  C   UNL d   1      52.425  34.334  53.235  0.00  0.00     0.050 A 
ATOM      9  C   UNL d   1      50.969  33.846  52.625  0.00  0.00     0.002 A 
ATOM     10  C   UNL d   1      51.453  34.352  52.185  0.00  0.00     0.001 A 
ATOM     11  C   UNL d   1      52.178  34.592  52.494  0.00  0.00     0.008 A 
ATOM     12  S   UNL d   1      53.094  34.475  53.671  0.00  0.00    -0.047 SA
ENDBRANCH   1   4
BRANCH   2  13
ATOM     13  C   UNL d   1      54.185  32.879  54.418  0.00  0.00     0.058 A 
ATOM     14  C   UNL d   1      53.812  32.155  54.552  0.00  0.00     0.005 A 
ATOM     15  C   UNL d   1      53.815  31.570  53.970  0.00  0.00     0.000 A 
ATOM     16  C   UNL d   1      53.450  30.857  54.101  0.00  0.00     0.000 C 
ATOM     17  C   UNL d   1      54.194  31.710  53.247  0.00  0.00     0.000 A 
ATOM     18  C   UNL d   1      54.569  32.447  53.121  0.00  0.00     0.000 A 
ATOM     19  C   UNL d   1      54.564  33.019  53.695  0.00  0.00     0.005 A 
ENDBRANCH   2  13
TORSDOF 2
ENDMDL
MODEL 2
REMARK VINA RESULT:     -10.1      1.491      2.013
REMARK  2 active torsions:
REMARK  status: ('A' for Active; 'I' for Inactive)
REMARK    1  A    between atoms: N_3  and  C_1 
REMARK       I    between atoms: C_6  and  N_3 
REMARK    2  A    between atoms: C_8  and  C_6 
ROOT
ATOM      1  N   UNL d   1      52.781  31.319  53.089  0.00  0.00    -0.183 NA
ATOM      2  C   UNL d   1      53.536  31.252  53.465  0.00  0.00     0.281 C 
ATOM      3  O   UNL d   1      53.887  30.515  53.545  0.00  0.00    -0.265 OA
ENDROOT
BRANCH   1   4
ATOM      4  C   UNL d   1      52.430  32.053  53.010  0.00  0.00     0.197 A 
ATOM      5  N   UNL d   1      52.601  32.608  52.437  0.00  0.00    -0.221 NA
ATOM      6  C   UNL d   1      52.129  33.256  52.558  0.00  0.00     0.090 A 
ATOM      7  C   UNL d   1      52.058  33.975  52.161  0.00  0.00     0.020 A 
ATOM      8  C   UNL d   1      51.656  33.101  53.218  0.00  0.00     0.050 A 
ATOM      9  C   UNL d   1      51.516  34.541  52.419  0.00  0.00     0.002 A 
ATOM     10  C   UNL d   1      51.042  34.386  53.079  0.00  0.00     0.001 A 
ATOM     11  C   UNL d   1      51.116  33.667  53.473  0.00  0.00     0.008 A 
ATOM     12  S   UNL d   1      51.846  32.361  53.489  0.00  0.00    -0.047 SA
ENDBRANCH   1   4
BRANCH   2  13
ATOM     13  C   UNL d   1      53.905  31.915  53.743  0.00  0.00     0.058 A 
ATOM     14  C   UNL d   1      53.832  32.121  54.539  0.00  0.00     0.005 A 
ATOM     15  C   UNL d   1      54.205  32.796  54.831  0.00  0.00     0.000 A 
ATOM     16  C   UNL d   1      54.134  33.000  55.613  0.00  0.00     0.000 C 
ATOM     17  C   UNL d   1      54.657  33.269  54.324  0.00  0.00     0.000 A 
ATOM     18  C   UNL d   1      54.726  33.051  53.519  0.00  0.00     0.000 A 
ATOM     19  C   UNL d   1      54.357  32.388  53.236  0.00  0.00     0.005 A 
ENDBRANCH   2  13
TORSDOF 2
ENDMDL
MODEL 3
REMARK VINA RESULT:      -9.3      1.625      3.248
REMARK  2 active torsions:
REMARK  status: ('A' for Active; 'I' for Inactive)
REMARK    1  A    between atoms: N_3  and  C_1 
REMARK       I    between atoms: C_6  and  N_3 
REMARK    2  A    between atoms: C_8  and  C_6 
ROOT
ATOM      1  N   UNL d   1      53.385  31.577  53.303  0.00  0.00    -0.183 NA
ATOM      2  C   UNL d   1      52.728  31.841  52.840  0.00  0.00     0.281 C 
ATOM      3  O   UNL d   1      52.341  31.315  52.345  0.00  0.00    -0.265 OA
ENDROOT
BRANCH   1   4
ATOM      4  C   UNL d   1      53.771  32.101  53.797  0.00  0.00     0.197 A 
ATOM      5  N   UNL d   1      53.592  32.247  54.579  0.00  0.00    -0.221 NA
ATOM      6  C   UNL d   1      54.109  32.803  54.862  0.00  0.00     0.090 A 
ATOM      7  C   UNL d   1      54.193  33.160  55.600  0.00  0.00     0.020 A 
ATOM      8  C   UNL d   1      54.619  33.008  54.244  0.00  0.00     0.050 A 
ATOM      9  C   UNL d   1      54.785  33.722  55.726  0.00  0.00     0.002 A 
ATOM     10  C   UNL d   1      55.296  33.927  55.108  0.00  0.00     0.001 A 
ATOM     11  C   UNL d   1      55.208  33.568  54.372  0.00  0.00     0.008 A 
ATOM     12  S   UNL d   1      54.406  32.574  53.594  0.00  0.00    -0.047 SA
ENDBRANCH   1   4
BRANCH   2  13
ATOM     13  C   UNL d   1      52.488  32.611  52.888  0.00  0.00     0.058 A 
ATOM     14  C   UNL d   1      51.814  32.803  53.325  0.00  0.00     0.005 A 
ATOM     15  C   UNL d   1      51.561  33.586  53.380  0.00  0.00     0.000 A 
ATOM     16  C   UNL d   1      50.899  33.776  53.809  0.00  0.00     0.000 C 
ATOM     17  C   UNL d   1      51.985  34.184  52.995  0.00  0.00     0.000 A 
ATOM     18  C   UNL d   1      52.666  33.979  52.555  0.00  0.00     0.000 A 
ATOM     19  C   UNL d   1      52.912  33.209  52.503  0.00  0.00     0.005 A 
ENDBRANCH   2  13
TORSDOF 2
ENDMDL
MODEL 4
REMARK VINA RESULT:      -9.3      1.029      2.939
REMARK  2 active torsions:
REMARK  status: ('A' for Active; 'I' for Inactive)
REMARK    1  A    between atoms: N_3  and  C_1 
REMARK       I    between atoms: C_6  and  N_3 
REMARK    2  A    between atoms: C_8  and  C_6 
ROOT
ATOM      1  N   UNL d   1      53.495  34.681  54.718  0.00  0.00    -0.183 NA
ATOM      2  C   UNL d   1      52.938  35.174  54.314  0.00  0.00     0.281 C 
ATOM      3  O   UNL d   1      52.808  35.941  54.573  0.00  0.00    -0.265 OA
ENDROOT
BRANCH   1   4
ATOM      4  C   UNL d   1      53.624  33.917  54.460  0.00  0.00     0.197 A 
ATOM      5  N   UNL d   1      53.217  33.253  54.702  0.00  0.00    -0.221 NA
ATOM      6  C   UNL d   1      53.519  32.610  54.312  0.00  0.00     0.090 A 
ATOM      7  C   UNL d   1      53.330  31.808  54.331  0.00  0.00     0.020 A 
ATOM      8  C   UNL d   1      54.126  32.879  53.818  0.00  0.00     0.050 A 
ATOM      9  C   UNL d   1      53.745  31.271  53.860  0.00  0.00     0.002 A 
ATOM     10  C   UNL d   1      54.352  31.540  53.366  0.00  0.00     0.001 A 
ATOM     11  C   UNL d   1      54.537  32.343  53.349  0.00  0.00     0.008 A 
ATOM     12  S   UNL d   1      54.184  33.682  53.915  0.00  0.00    -0.047 SA
ENDBRANCH   1   4
BRANCH   2  13
ATOM     13  C   UNL d   1      52.537  34.883  53.675  0.00  0.00     0.058 A 
ATOM     14  C   UNL d   1      51.769  34.595  53.769  0.00  0.00     0.005 A 
ATOM     15  C   UNL d   1      51.353  34.297  53.123  0.00  0.00     0.000 A 
ATOM     16  C   UNL d   1      50.598  34.013  53.214  0.00  0.00     0.000 C 
ATOM     17  C   UNL d   1      51.706  34.287  52.374  0.00  0.00     0.000 A 
ATOM     18  C   UNL d   1      52.484  34.582  52.289  0.00  0.00     0.000 A 
ATOM     19  C   UNL d   1      52.890  34.873  52.926  0.00  0.00     0.005 A 
ENDBRANCH   2  13
TORSDOF 2
ENDMDL
MODEL 5
REMARK VINA RESULT:      -8.5      1.634      2.946
REMARK  2 active torsions:
REMARK  status: ('A' for Active; 'I' for Inactive)
REMARK    1  A    between atoms: N_3  and  C_1 
REMARK       I    between atoms: C_6  and  N_3 
REMARK    2  A    between atoms: C_8  and  C_6 
ROOT
ATOM      1  N   UNL d   1      52.256  33.117  52.893  0.00  0.00    -0.183 NA
ATOM      2  C   UNL d   1      52.791  33.691  53.210  0.00  0.00     0.281 C 
ATOM      3  O   UNL d   1      52.626  34.490  53.130  0.00  0.00    -0.265 OA
ENDROOT
BRANCH   1   4
ATOM      4  C   UNL d   1      52.421  32.321  52.973  0.00  0.00     0.197 A 
ATOM      5  N   UNL d   1      52.927  31.885  52.504  0.00  0.00    -0.221 NA
ATOM      6  C   UNL d   1      52.930  31.120  52.771  0.00  0.00     0.090 A 
ATOM      7  C   UNL d   1      53.330  30.444  52.519  0.00  0.00     0.020 A 
ATOM      8  C   UNL d   1      52.417  31.079  53.418  0.00  0.00     0.050 A 
ATOM      9  C   UNL d   1      53.219  29.726  52.910  0.00  0.00     0.002 A 
ATOM     10  C   UNL d   1      52.706  29.684  53.557  0.00  0.00     0.001 A 
ATOM     11  C   UNL d   1      52.309  30.361  53.806  0.00  0.00     0.008 A 
ATOM     12  S   UNL d   1      52.109  31.819  53.536  0.00  0.00    -0.047 SA
ENDBRANCH   1   4
BRANCH   2  13
ATOM     13  C   UNL d   1      53.462  33.447  53.589  0.00  0.00     0.058 A 
ATOM     14  C   UNL d   1      53.476  33.411  54.414  0.00  0.00     0.005 A 
ATOM     15  C   UNL d   1      54.157  33.163  54.809  0.00  0.00     0.000 A 
ATOM     16  C   UNL d   1      54.172  33.126  55.620  0.00  0.00     0.000 C 
ATOM     17  C   UNL d   1      54.830  32.950  54.376  0.00  0.00     0.000 A 
ATOM     18  C   UNL d   1      54.805  32.990  53.541  0.00  0.00     0.000 A 
ATOM     19  C   UNL d   1      54.135  33.234  53.157  0.00  0.00     0.005 A 
ENDBRANCH   2  13
TORSDOF 2
ENDMDL
