MODEL 1
REMARK VINA RESULT:      50.3      0.000      0.000
REMARK  6 active torsions:
REMARK  status: ('A' for Active; 'I' for Inactive)
REMARK    1  A    between atoms: C_3  and  C_1 
REMARK    2  A    between atoms: N_9  and  C_3 
REMARK    3  A    between atoms: C_13  and  C_3 
REMARK    4  A    between atoms: N_4  and  C_10 
REMARK    5  A    between atoms: C_19  and  C_8 
REMARK    6  A    between atoms: C_15  and  N_9 
ROOT
ATOM      1  C   UNL d   1      13.628  13.035  -2.840  0.00  0.00     0.125 C 
ENDROOT
BRANCH   1   2
ATOM      2  C   UNL d   1      14.023  12.670  -2.196  0.00  0.00     0.161 A 
ATOM      3  C   UNL d   1      13.606  12.407  -1.545  0.00  0.00     0.258 A 
ATOM      4  C   UNL d   1      14.010  12.046  -0.913  0.00  0.00     0.238 A 
ATOM      5  O   UNL d   1      12.770  12.493  -1.502  0.00  0.00    -0.281 OA
ATOM      6  O   UNL d   1      13.593  11.783  -0.263  0.00  0.00    -0.283 OA
ATOM      7  C   UNL d   1      14.830  11.956  -0.944  0.00  0.00     0.073 A 
ATOM      8  C   UNL d   1      15.247  12.219  -1.594  0.00  0.00     0.146 A 
ATOM      9  O   UNL d   1      14.850  12.577  -2.223  0.00  0.00    -0.299 OA
BRANCH   8  10
ATOM     10  C   UNL d   1      16.072  12.126  -1.622  0.00  0.00     0.259 C 
ATOM     11  O   UNL d   1      16.501  11.937  -0.948  0.00  0.00    -0.281 OA
ENDBRANCH   8  10
ENDBRANCH   1   2
BRANCH   1  12
ATOM     12  N   UNL d   1      13.316  13.786  -2.768  0.00  0.00    -0.242 NA
BRANCH  12  13
ATOM     13  C   UNL d   1      13.774  14.440  -2.912  0.00  0.00     0.083 A 
ATOM     14  C   UNL d   1      14.083  14.872  -2.272  0.00  0.00     0.043 A 
ATOM     15  C   UNL d   1      14.551  15.542  -2.408  0.00  0.00     0.128 A 
ATOM     16  C   UNL d   1      14.710  15.779  -3.173  0.00  0.00     0.024 A 
ATOM     17  C   UNL d   1      14.403  15.350  -3.812  0.00  0.00     0.003 A 
ATOM     18  C   UNL d   1      13.933  14.678  -3.676  0.00  0.00     0.019 A 
BRANCH  15  19
ATOM     19  N   UNL d   1      14.862  15.977  -1.779  0.00  0.00    -0.114 N 
ATOM     20  O   UNL d   1      15.028  16.795  -1.815  0.00  0.00    -0.532 OA
ATOM     21  O   UNL d   1      15.046  15.662  -1.045  0.00  0.00    -0.532 OA
ENDBRANCH  15  19
ENDBRANCH  12  13
ENDBRANCH   1  12
BRANCH   1  22
ATOM     22  C   UNL d   1      13.558  12.625  -3.557  0.00  0.00     0.101 A 
ATOM     23  N   UNL d   1      14.236  12.434  -3.997  0.00  0.00    -0.242 NA
ATOM     24  C   UNL d   1      14.164  12.025  -4.711  0.00  0.00     0.099 A 
ATOM     25  C   UNL d   1      13.427  11.807  -4.985  0.00  0.00     0.021 A 
ATOM     26  C   UNL d   1      12.769  12.000  -4.543  0.00  0.00     0.003 A 
ATOM     27  C   UNL d   1      12.827  12.401  -3.843  0.00  0.00     0.021 A 
ENDBRANCH   1  22
TORSDOF 6
ENDMDL
