MODEL 1
REMARK VINA RESULT:      -7.2      0.000      0.000
REMARK  4 active torsions:
REMARK  status: ('A' for Active; 'I' for Inactive)
REMARK    1  A    between atoms: C_2  and  C_1 
REMARK    2  A    between atoms: C_8  and  C_1 
REMARK    3  A    between atoms: C_9  and  C_2 
REMARK    4  A    between atoms: N_4  and  C_3 
ROOT
ATOM      1  C   UNL d   1      53.153  30.652  53.395  0.00  0.00     0.064 A 
ATOM      2  C   UNL d   1      53.724  30.980  53.888  0.00  0.00     0.018 A 
ATOM      3  C   UNL d   1      52.634  31.134  52.957  0.00  0.00     0.018 A 
ATOM      4  C   UNL d   1      53.274  32.289  53.519  0.00  0.00     0.000 A 
ATOM      5  C   UNL d   1      53.780  31.796  53.946  0.00  0.00     0.002 A 
ATOM      6  C   UNL d   1      52.695  31.948  53.020  0.00  0.00     0.002 A 
ENDROOT
BRANCH   4   7
ATOM      7  C   UNL d   1      53.330  33.108  53.577  0.00  0.00     0.000 C 
BRANCH   7   8
ATOM      8  C   UNL d   1      52.854  33.511  54.113  0.00  0.00     0.000 C 
BRANCH   8   9
ATOM      9  C   UNL d   1      52.966  34.322  54.229  0.00  0.00     0.003 A 
ATOM     10  C   UNL d   1      53.208  34.565  54.976  0.00  0.00     0.021 A 
ATOM     11  C   UNL d   1      53.329  35.379  55.126  0.00  0.00     0.099 A 
ATOM     12  N   UNL d   1      53.205  35.935  54.521  0.00  0.00    -0.242 NA
ATOM     13  C   UNL d   1      52.961  35.674  53.775  0.00  0.00     0.099 A 
ATOM     14  C   UNL d   1      52.841  34.873  53.624  0.00  0.00     0.021 A 
ENDBRANCH   8   9
ENDBRANCH   7   8
ENDBRANCH   4   7
BRANCH   1  15
ATOM     15  N   UNL d   1      53.086  29.821  53.327  0.00  0.00    -0.301 N 
ATOM     16  C   UNL d   1      53.296  29.342  53.970  0.00  0.00     0.100 C 
ATOM     17  C   UNL d   1      52.812  29.485  52.623  0.00  0.00     0.100 C 
ENDBRANCH   1  15
TORSDOF 4
ENDMDL
MODEL 2
REMARK VINA RESULT:      -7.1      2.518      3.805
REMARK  4 active torsions:
REMARK  status: ('A' for Active; 'I' for Inactive)
REMARK    1  A    between atoms: C_2  and  C_1 
REMARK    2  A    between atoms: C_8  and  C_1 
REMARK    3  A    between atoms: C_9  and  C_2 
REMARK    4  A    between atoms: N_4  and  C_3 
ROOT
ATOM      1  C   UNL d   1      50.251  34.307  52.373  0.00  0.00     0.064 A 
ATOM      2  C   UNL d   1      50.943  34.416  51.941  0.00  0.00     0.018 A 
ATOM      3  C   UNL d   1      50.259  33.912  53.106  0.00  0.00     0.018 A 
ATOM      4  C   UNL d   1      51.677  33.735  52.965  0.00  0.00     0.000 A 
ATOM      5  C   UNL d   1      51.650  34.129  52.240  0.00  0.00     0.002 A 
ATOM      6  C   UNL d   1      50.970  33.628  53.399  0.00  0.00     0.002 A 
ENDROOT
BRANCH   4   7
ATOM      7  C   UNL d   1      52.387  33.447  53.266  0.00  0.00     0.000 C 
BRANCH   7   8
ATOM      8  C   UNL d   1      52.883  33.949  53.686  0.00  0.00     0.000 C 
BRANCH   8   9
ATOM      9  C   UNL d   1      53.574  33.649  54.028  0.00  0.00     0.003 A 
ATOM     10  C   UNL d   1      53.758  33.904  54.788  0.00  0.00     0.021 A 
ATOM     11  C   UNL d   1      54.450  33.619  55.162  0.00  0.00     0.099 A 
ATOM     12  N   UNL d   1      54.945  33.082  54.764  0.00  0.00    -0.242 NA
ATOM     13  C   UNL d   1      54.745  32.836  54.001  0.00  0.00     0.099 A 
ATOM     14  C   UNL d   1      54.064  33.114  53.630  0.00  0.00     0.021 A 
ENDBRANCH   8   9
ENDBRANCH   7   8
ENDBRANCH   4   7
BRANCH   1  15
ATOM     15  N   UNL d   1      49.523  34.595  52.078  0.00  0.00    -0.301 N 
ATOM     16  C   UNL d   1      49.044  35.063  52.564  0.00  0.00     0.100 C 
ATOM     17  C   UNL d   1      49.289  34.410  51.306  0.00  0.00     0.100 C 
ENDBRANCH   1  15
TORSDOF 4
ENDMDL
MODEL 3
REMARK VINA RESULT:      -7.0      2.703      3.538
REMARK  4 active torsions:
REMARK  status: ('A' for Active; 'I' for Inactive)
REMARK    1  A    between atoms: C_2  and  C_1 
REMARK    2  A    between atoms: C_8  and  C_1 
REMARK    3  A    between atoms: C_9  and  C_2 
REMARK    4  A    between atoms: N_4  and  C_3 
ROOT
ATOM      1  C   UNL d   1      53.423  33.337  53.794  0.00  0.00     0.064 A 
ATOM      2  C   UNL d   1      52.911  32.792  53.448  0.00  0.00     0.018 A 
ATOM      3  C   UNL d   1      53.277  34.155  53.743  0.00  0.00     0.018 A 
ATOM      4  C   UNL d   1      52.090  33.872  52.988  0.00  0.00     0.000 A 
ATOM      5  C   UNL d   1      52.249  33.065  53.048  0.00  0.00     0.002 A 
ATOM      6  C   UNL d   1      52.614  34.420  53.342  0.00  0.00     0.002 A 
ENDROOT
BRANCH   4   7
ATOM      7  C   UNL d   1      51.425  34.146  52.587  0.00  0.00     0.000 C 
BRANCH   7   8
ATOM      8  C   UNL d   1      50.693  34.134  52.959  0.00  0.00     0.000 C 
BRANCH   8   9
ATOM      9  C   UNL d   1      50.031  34.441  52.569  0.00  0.00     0.003 A 
ATOM     10  C   UNL d   1      49.541  34.942  52.997  0.00  0.00     0.021 A 
ATOM     11  C   UNL d   1      48.863  35.269  52.631  0.00  0.00     0.099 A 
ATOM     12  N   UNL d   1      48.691  35.085  51.839  0.00  0.00    -0.242 NA
ATOM     13  C   UNL d   1      49.195  34.579  51.422  0.00  0.00     0.099 A 
ATOM     14  C   UNL d   1      49.863  34.256  51.780  0.00  0.00     0.021 A 
ENDBRANCH   8   9
ENDBRANCH   7   8
ENDBRANCH   4   7
BRANCH   1  15
ATOM     15  N   UNL d   1      54.101  33.071  54.204  0.00  0.00    -0.301 N 
ATOM     16  C   UNL d   1      54.805  32.944  53.787  0.00  0.00     0.100 C 
ATOM     17  C   UNL d   1      54.064  32.939  55.020  0.00  0.00     0.100 C 
ENDBRANCH   1  15
TORSDOF 4
ENDMDL
MODEL 4
REMARK VINA RESULT:      -6.9      0.606      4.399
REMARK  4 active torsions:
REMARK  status: ('A' for Active; 'I' for Inactive)
REMARK    1  A    between atoms: C_2  and  C_1 
REMARK    2  A    between atoms: C_8  and  C_1 
REMARK    3  A    between atoms: C_9  and  C_2 
REMARK    4  A    between atoms: N_4  and  C_3 
ROOT
ATOM      1  C   UNL d   1      53.181  34.241  54.170  0.00  0.00     0.064 A 
ATOM      2  C   UNL d   1      53.832  33.751  54.290  0.00  0.00     0.018 A 
ATOM      3  C   UNL d   1      52.510  33.972  53.756  0.00  0.00     0.018 A 
ATOM      4  C   UNL d   1      53.157  32.703  53.583  0.00  0.00     0.000 A 
ATOM      5  C   UNL d   1      53.814  32.986  53.995  0.00  0.00     0.002 A 
ATOM      6  C   UNL d   1      52.500  33.207  53.465  0.00  0.00     0.002 A 
ENDROOT
BRANCH   4   7
ATOM      7  C   UNL d   1      53.140  31.935  53.287  0.00  0.00     0.000 C 
BRANCH   7   8
ATOM      8  C   UNL d   1      53.536  31.337  53.687  0.00  0.00     0.000 C 
BRANCH   8   9
ATOM      9  C   UNL d   1      53.286  30.553  53.601  0.00  0.00     0.003 A 
ATOM     10  C   UNL d   1      53.437  30.040  54.225  0.00  0.00     0.021 A 
ATOM     11  C   UNL d   1      53.197  29.240  54.170  0.00  0.00     0.099 A 
ATOM     12  N   UNL d   1      52.809  28.971  53.486  0.00  0.00    -0.242 NA
ATOM     13  C   UNL d   1      52.665  29.499  52.867  0.00  0.00     0.099 A 
ATOM     14  C   UNL d   1      52.900  30.287  52.919  0.00  0.00     0.021 A 
ENDBRANCH   8   9
ENDBRANCH   7   8
ENDBRANCH   4   7
BRANCH   1  15
ATOM     15  N   UNL d   1      53.187  35.023  54.466  0.00  0.00    -0.301 N 
ATOM     16  C   UNL d   1      53.192  35.149  55.285  0.00  0.00     0.100 C 
ATOM     17  C   UNL d   1      53.188  35.662  53.941  0.00  0.00     0.100 C 
ENDBRANCH   1  15
TORSDOF 4
ENDMDL
MODEL 5
REMARK VINA RESULT:      -4.8     10.384     11.373
REMARK  4 active torsions:
REMARK  status: ('A' for Active; 'I' for Inactive)
REMARK    1  A    between atoms: C_2  and  C_1 
REMARK    2  A    between atoms: C_8  and  C_1 
REMARK    3  A    between atoms: C_9  and  C_2 
REMARK    4  A    between atoms: N_4  and  C_3 
ROOT
ATOM      1  C   UNL d   1      44.451  30.446  61.266  0.00  0.00     0.064 A 
ATOM      2  C   UNL d   1      44.314  29.637  61.200  0.00  0.00     0.018 A 
ATOM      3  C   UNL d   1      44.619  30.910  60.594  0.00  0.00     0.018 A 
ATOM      4  C   UNL d   1      44.509  29.730  59.784  0.00  0.00     0.000 A 
ATOM      5  C   UNL d   1      44.344  29.286  60.460  0.00  0.00     0.002 A 
ATOM      6  C   UNL d   1      44.648  30.551  59.858  0.00  0.00     0.002 A 
ENDROOT
BRANCH   4   7
ATOM      7  C   UNL d   1      44.539  29.377  59.041  0.00  0.00     0.000 C 
BRANCH   7   8
ATOM      8  C   UNL d   1      45.207  28.953  58.820  0.00  0.00     0.000 C 
BRANCH   8   9
ATOM      9  C   UNL d   1      45.215  28.551  58.097  0.00  0.00     0.003 A 
ATOM     10  C   UNL d   1      45.450  27.763  58.107  0.00  0.00     0.021 A 
ATOM     11  C   UNL d   1      45.469  27.329  57.392  0.00  0.00     0.099 A 
ATOM     12  N   UNL d   1      45.251  27.696  56.679  0.00  0.00    -0.242 NA
ATOM     13  C   UNL d   1      45.018  28.489  56.685  0.00  0.00     0.099 A 
ATOM     14  C   UNL d   1      44.998  28.919  57.388  0.00  0.00     0.021 A 
ENDBRANCH   8   9
ENDBRANCH   7   8
ENDBRANCH   4   7
BRANCH   1  15
ATOM     15  N   UNL d   1      44.424  30.816  62.015  0.00  0.00    -0.301 N 
ATOM     16  C   UNL d   1      44.418  30.350  62.699  0.00  0.00     0.100 C 
ATOM     17  C   UNL d   1      44.402  31.641  62.067  0.00  0.00     0.100 C 
ENDBRANCH   1  15
TORSDOF 4
ENDMDL
MODEL 6
REMARK VINA RESULT:      -4.8      9.644     11.306
REMARK  4 active torsions:
REMARK  status: ('A' for Active; 'I' for Inactive)
REMARK    1  A    between atoms: C_2  and  C_1 
REMARK    2  A    between atoms: C_8  and  C_1 
REMARK    3  A    between atoms: C_9  and  C_2 
REMARK    4  A    between atoms: N_4  and  C_3 
ROOT
ATOM      1  C   UNL d   1      45.052  29.291  57.862  0.00  0.00     0.064 A 
ATOM      2  C   UNL d   1      44.941  29.141  57.060  0.00  0.00     0.018 A 
ATOM      3  C   UNL d   1      45.216  28.673  58.396  0.00  0.00     0.018 A 
ATOM      4  C   UNL d   1      45.157  27.746  57.302  0.00  0.00     0.000 A 
ATOM      5  C   UNL d   1      44.995  28.370  56.787  0.00  0.00     0.002 A 
ATOM      6  C   UNL d   1      45.268  27.905  58.116  0.00  0.00     0.002 A 
ENDROOT
BRANCH   4   7
ATOM      7  C   UNL d   1      45.210  26.972  57.028  0.00  0.00     0.000 C 
BRANCH   7   8
ATOM      8  C   UNL d   1      44.525  26.538  56.900  0.00  0.00     0.000 C 
BRANCH   8   9
ATOM      9  C   UNL d   1      44.578  25.735  56.708  0.00  0.00     0.003 A 
ATOM     10  C   UNL d   1      44.789  25.546  55.937  0.00  0.00     0.021 A 
ATOM     11  C   UNL d   1      44.852  24.743  55.711  0.00  0.00     0.099 A 
ATOM     12  N   UNL d   1      44.702  24.144  56.267  0.00  0.00    -0.242 NA
ATOM     13  C   UNL d   1      44.490  24.351  57.039  0.00  0.00     0.099 A 
ATOM     14  C   UNL d   1      44.427  25.141  57.264  0.00  0.00     0.021 A 
ENDBRANCH   8   9
ENDBRANCH   7   8
ENDBRANCH   4   7
BRANCH   1  15
ATOM     15  N   UNL d   1      45.000  30.073  58.153  0.00  0.00    -0.301 N 
ATOM     16  C   UNL d   1      44.608  30.649  57.704  0.00  0.00     0.100 C 
ATOM     17  C   UNL d   1      45.339  30.266  58.882  0.00  0.00     0.100 C 
ENDBRANCH   1  15
TORSDOF 4
ENDMDL
MODEL 7
REMARK VINA RESULT:      -4.5     10.539     11.014
REMARK  4 active torsions:
REMARK  status: ('A' for Active; 'I' for Inactive)
REMARK    1  A    between atoms: C_2  and  C_1 
REMARK    2  A    between atoms: C_8  and  C_1 
REMARK    3  A    between atoms: C_9  and  C_2 
REMARK    4  A    between atoms: N_4  and  C_3 
ROOT
ATOM      1  C   UNL d   1      44.589  29.572  61.508  0.00  0.00     0.064 A 
ATOM      2  C   UNL d   1      44.405  29.085  60.871  0.00  0.00     0.018 A 
ATOM      3  C   UNL d   1      44.685  30.393  61.409  0.00  0.00     0.018 A 
ATOM      4  C   UNL d   1      44.405  30.230  60.010  0.00  0.00     0.000 A 
ATOM      5  C   UNL d   1      44.314  29.418  60.127  0.00  0.00     0.002 A 
ATOM      6  C   UNL d   1      44.593  30.719  60.663  0.00  0.00     0.002 A 
ENDROOT
BRANCH   4   7
ATOM      7  C   UNL d   1      44.314  30.565  59.264  0.00  0.00     0.000 C 
BRANCH   7   8
ATOM      8  C   UNL d   1      44.862  30.399  58.675  0.00  0.00     0.000 C 
BRANCH   8   9
ATOM      9  C   UNL d   1      44.761  30.721  57.920  0.00  0.00     0.003 A 
ATOM     10  C   UNL d   1      44.706  30.195  57.291  0.00  0.00     0.021 A 
ATOM     11  C   UNL d   1      44.603  30.489  56.514  0.00  0.00     0.099 A 
ATOM     12  N   UNL d   1      44.559  31.309  56.385  0.00  0.00    -0.242 NA
ATOM     13  C   UNL d   1      44.616  31.825  57.028  0.00  0.00     0.099 A 
ATOM     14  C   UNL d   1      44.717  31.538  57.794  0.00  0.00     0.021 A 
ENDBRANCH   8   9
ENDBRANCH   7   8
ENDBRANCH   4   7
BRANCH   1  15
ATOM     15  N   UNL d   1      44.684  29.244  62.272  0.00  0.00    -0.301 N 
ATOM     16  C   UNL d   1      44.735  28.422  62.358  0.00  0.00     0.100 C 
ATOM     17  C   UNL d   1      44.727  29.740  62.931  0.00  0.00     0.100 C 
ENDBRANCH   1  15
TORSDOF 4
ENDMDL
MODEL 8
REMARK VINA RESULT:      -4.5     10.637     10.986
REMARK  4 active torsions:
REMARK  status: ('A' for Active; 'I' for Inactive)
REMARK    1  A    between atoms: C_2  and  C_1 
REMARK    2  A    between atoms: C_8  and  C_1 
REMARK    3  A    between atoms: C_9  and  C_2 
REMARK    4  A    between atoms: N_4  and  C_3 
ROOT
ATOM      1  C   UNL d   1      44.839  28.723  58.038  0.00  0.00     0.064 A 
ATOM      2  C   UNL d   1      44.412  28.436  58.681  0.00  0.00     0.018 A 
ATOM      3  C   UNL d   1      45.171  29.487  58.050  0.00  0.00     0.018 A 
ATOM      4  C   UNL d   1      44.636  29.672  59.369  0.00  0.00     0.000 A 
ATOM      5  C   UNL d   1      44.314  28.913  59.341  0.00  0.00     0.002 A 
ATOM      6  C   UNL d   1      45.069  29.958  58.713  0.00  0.00     0.002 A 
ENDROOT
BRANCH   4   7
ATOM      7  C   UNL d   1      44.538  30.150  60.032  0.00  0.00     0.000 C 
BRANCH   7   8
ATOM      8  C   UNL d   1      44.678  29.841  60.780  0.00  0.00     0.000 C 
BRANCH   8   9
ATOM      9  C   UNL d   1      44.579  30.322  61.446  0.00  0.00     0.003 A 
ATOM     10  C   UNL d   1      44.659  29.965  62.182  0.00  0.00     0.021 A 
ATOM     11  C   UNL d   1      44.565  30.424  62.875  0.00  0.00     0.099 A 
ATOM     12  N   UNL d   1      44.392  31.235  62.815  0.00  0.00    -0.242 NA
ATOM     13  C   UNL d   1      44.314  31.578  62.067  0.00  0.00     0.099 A 
ATOM     14  C   UNL d   1      44.406  31.129  61.383  0.00  0.00     0.021 A 
ENDBRANCH   8   9
ENDBRANCH   7   8
ENDBRANCH   4   7
BRANCH   1  15
ATOM     15  N   UNL d   1      44.945  28.247  57.359  0.00  0.00    -0.301 N 
ATOM     16  C   UNL d   1      45.495  27.627  57.379  0.00  0.00     0.100 C 
ATOM     17  C   UNL d   1      44.504  28.397  56.677  0.00  0.00     0.100 C 
ENDBRANCH   1  15
TORSDOF 4
ENDMDL
MODEL 9
REMARK VINA RESULT:      -4.3      9.634     10.624
REMARK  4 active torsions:
REMARK  status: ('A' for Active; 'I' for Inactive)
REMARK    1  A    between atoms: C_2  and  C_1 
REMARK    2  A    between atoms: C_8  and  C_1 
REMARK    3  A    between atoms: C_9  and  C_2 
REMARK    4  A    between atoms: N_4  and  C_3 
ROOT
ATOM      1  C   UNL d   1      44.588  24.941  56.303  0.00  0.00     0.064 A 
ATOM      2  C   UNL d   1      44.711  25.153  57.089  0.00  0.00     0.018 A 
ATOM      3  C   UNL d   1      44.399  25.513  55.728  0.00  0.00     0.018 A 
ATOM      4  C   UNL d   1      44.457  26.521  56.748  0.00  0.00     0.000 A 
ATOM      5  C   UNL d   1      44.644  25.941  57.305  0.00  0.00     0.002 A 
ATOM      6  C   UNL d   1      44.334  26.298  55.951  0.00  0.00     0.002 A 
ENDROOT
BRANCH   4   7
ATOM      7  C   UNL d   1      44.390  27.312  56.964  0.00  0.00     0.000 C 
BRANCH   7   8
ATOM      8  C   UNL d   1      45.060  27.787  56.981  0.00  0.00     0.000 C 
BRANCH   8   9
ATOM      9  C   UNL d   1      44.992  28.583  57.194  0.00  0.00     0.003 A 
ATOM     10  C   UNL d   1      45.123  28.774  57.983  0.00  0.00     0.021 A 
ATOM     11  C   UNL d   1      45.061  29.571  58.231  0.00  0.00     0.099 A 
ATOM     12  N   UNL d   1      44.869  30.162  57.679  0.00  0.00    -0.242 NA
ATOM     13  C   UNL d   1      44.740  29.954  56.890  0.00  0.00     0.099 A 
ATOM     14  C   UNL d   1      44.800  29.170  56.643  0.00  0.00     0.021 A 
ENDBRANCH   8   9
ENDBRANCH   7   8
ENDBRANCH   4   7
BRANCH   1  15
ATOM     15  N   UNL d   1      44.654  24.140  56.071  0.00  0.00    -0.301 N 
ATOM     16  C   UNL d   1      44.315  23.551  56.544  0.00  0.00     0.100 C 
ATOM     17  C   UNL d   1      45.054  23.944  55.374  0.00  0.00     0.100 C 
ENDBRANCH   1  15
TORSDOF 4
ENDMDL
