MODEL 1
REMARK VINA RESULT:      -9.6      0.000      0.000
REMARK  2 active torsions:
REMARK  status: ('A' for Active; 'I' for Inactive)
REMARK    1  A    between atoms: C_5  and  C_1 
REMARK    2  A    between atoms: C_7  and  C_5 
ROOT
ATOM      1  C   UNL d   1      53.383  32.196  53.235  0.00  0.00     0.061 A 
ATOM      2  C   UNL d   1      52.748  32.401  52.777  0.00  0.00     0.102 A 
ATOM      3  N   UNL d   1      52.309  31.716  52.611  0.00  0.00    -0.244 NA
ATOM      4  C   UNL d   1      53.353  31.388  53.364  0.00  0.00     0.022 A 
ATOM      5  C   UNL d   1      52.692  31.093  52.980  0.00  0.00     0.082 A 
ATOM      6  C   UNL d   1      53.853  30.884  53.789  0.00  0.00     0.002 A 
ATOM      7  C   UNL d   1      52.514  30.285  53.011  0.00  0.00     0.019 A 
ATOM      8  C   UNL d   1      53.674  30.079  53.818  0.00  0.00     0.000 A 
ATOM      9  C   UNL d   1      53.013  29.784  53.435  0.00  0.00     0.002 A 
ENDROOT
BRANCH   1  10
ATOM     10  C   UNL d   1      53.970  32.737  53.525  0.00  0.00     0.215 C 
ATOM     11  O   UNL d   1      54.763  32.600  53.374  0.00  0.00    -0.285 OA
BRANCH  10  12
ATOM     12  C   UNL d   1      53.722  33.402  53.960  0.00  0.00     0.120 A 
ATOM     13  N   UNL d   1      53.357  34.031  53.573  0.00  0.00    -0.241 NA
ATOM     14  C   UNL d   1      53.116  34.684  54.017  0.00  0.00     0.099 A 
ATOM     15  C   UNL d   1      53.240  34.702  54.834  0.00  0.00     0.021 A 
ATOM     16  C   UNL d   1      53.604  34.072  55.206  0.00  0.00     0.003 A 
ATOM     17  C   UNL d   1      53.844  33.424  54.777  0.00  0.00     0.022 A 
ENDBRANCH  10  12
ENDBRANCH   1  10
TORSDOF 2
ENDMDL
MODEL 2
REMARK VINA RESULT:      -9.4      0.699      3.408
REMARK  2 active torsions:
REMARK  status: ('A' for Active; 'I' for Inactive)
REMARK    1  A    between atoms: C_5  and  C_1 
REMARK    2  A    between atoms: C_7  and  C_5 
ROOT
ATOM      1  C   UNL d   1      53.860  32.986  54.115  0.00  0.00     0.061 A 
ATOM      2  C   UNL d   1      53.964  32.816  54.899  0.00  0.00     0.102 A 
ATOM      3  N   UNL d   1      53.700  33.463  55.348  0.00  0.00    -0.244 NA
ATOM      4  C   UNL d   1      53.532  33.734  54.058  0.00  0.00     0.022 A 
ATOM      5  C   UNL d   1      53.433  34.027  54.817  0.00  0.00     0.082 A 
ATOM      6  C   UNL d   1      53.310  34.185  53.401  0.00  0.00     0.002 A 
ATOM      7  C   UNL d   1      53.110  34.780  54.938  0.00  0.00     0.019 A 
ATOM      8  C   UNL d   1      52.987  34.935  53.523  0.00  0.00     0.000 A 
ATOM      9  C   UNL d   1      52.889  35.228  54.282  0.00  0.00     0.002 A 
ENDROOT
BRANCH   1  10
ATOM     10  C   UNL d   1      54.061  32.467  53.473  0.00  0.00     0.215 C 
ATOM     11  O   UNL d   1      54.664  32.671  52.956  0.00  0.00    -0.285 OA
BRANCH  10  12
ATOM     12  C   UNL d   1      53.636  31.757  53.384  0.00  0.00     0.120 A 
ATOM     13  N   UNL d   1      52.958  31.743  52.916  0.00  0.00    -0.241 NA
ATOM     14  C   UNL d   1      52.546  31.032  52.836  0.00  0.00     0.099 A 
ATOM     15  C   UNL d   1      52.813  30.350  53.219  0.00  0.00     0.021 A 
ATOM     16  C   UNL d   1      53.487  30.377  53.680  0.00  0.00     0.003 A 
ATOM     17  C   UNL d   1      53.899  31.073  53.765  0.00  0.00     0.022 A 
ENDBRANCH  10  12
ENDBRANCH   1  10
TORSDOF 2
ENDMDL
MODEL 3
REMARK VINA RESULT:      -9.3      1.774      3.078
REMARK  2 active torsions:
REMARK  status: ('A' for Active; 'I' for Inactive)
REMARK    1  A    between atoms: C_5  and  C_1 
REMARK    2  A    between atoms: C_7  and  C_5 
ROOT
ATOM      1  C   UNL d   1      53.016  33.831  53.624  0.00  0.00     0.061 A 
ATOM      2  C   UNL d   1      53.052  34.635  53.709  0.00  0.00     0.102 A 
ATOM      3  N   UNL d   1      53.563  34.813  54.338  0.00  0.00    -0.244 NA
ATOM      4  C   UNL d   1      53.500  33.494  54.193  0.00  0.00     0.022 A 
ATOM      5  C   UNL d   1      53.836  34.098  54.632  0.00  0.00     0.082 A 
ATOM      6  C   UNL d   1      53.674  32.703  54.363  0.00  0.00     0.002 A 
ATOM      7  C   UNL d   1      54.356  33.928  55.253  0.00  0.00     0.019 A 
ATOM      8  C   UNL d   1      54.192  32.535  54.983  0.00  0.00     0.000 A 
ATOM      9  C   UNL d   1      54.529  33.139  55.421  0.00  0.00     0.002 A 
ENDROOT
BRANCH   1  10
ATOM     10  C   UNL d   1      52.553  33.422  53.042  0.00  0.00     0.215 C 
ATOM     11  O   UNL d   1      52.882  32.802  52.619  0.00  0.00    -0.285 OA
BRANCH  10  12
ATOM     12  C   UNL d   1      51.767  33.664  52.913  0.00  0.00     0.120 A 
ATOM     13  N   UNL d   1      51.170  33.399  53.417  0.00  0.00    -0.241 NA
ATOM     14  C   UNL d   1      50.395  33.647  53.277  0.00  0.00     0.099 A 
ATOM     15  C   UNL d   1      50.225  34.150  52.644  0.00  0.00     0.021 A 
ATOM     16  C   UNL d   1      50.826  34.405  52.152  0.00  0.00     0.003 A 
ATOM     17  C   UNL d   1      51.592  34.167  52.281  0.00  0.00     0.022 A 
ENDBRANCH  10  12
ENDBRANCH   1  10
TORSDOF 2
ENDMDL
MODEL 4
REMARK VINA RESULT:      -8.9      1.909      2.756
REMARK  2 active torsions:
REMARK  status: ('A' for Active; 'I' for Inactive)
REMARK    1  A    between atoms: C_5  and  C_1 
REMARK    2  A    between atoms: C_7  and  C_5 
ROOT
ATOM      1  C   UNL d   1      52.850  33.692  53.259  0.00  0.00     0.061 A 
ATOM      2  C   UNL d   1      53.067  34.459  53.116  0.00  0.00     0.102 A 
ATOM      3  N   UNL d   1      52.385  34.900  52.944  0.00  0.00    -0.244 NA
ATOM      4  C   UNL d   1      52.037  33.640  53.180  0.00  0.00     0.022 A 
ATOM      5  C   UNL d   1      51.751  34.383  52.987  0.00  0.00     0.082 A 
ATOM      6  C   UNL d   1      51.520  32.998  53.263  0.00  0.00     0.002 A 
ATOM      7  C   UNL d   1      50.941  34.504  52.870  0.00  0.00     0.019 A 
ATOM      8  C   UNL d   1      50.712  33.121  53.146  0.00  0.00     0.000 A 
ATOM      9  C   UNL d   1      50.427  33.864  52.952  0.00  0.00     0.002 A 
ENDROOT
BRANCH   1  10
ATOM     10  C   UNL d   1      53.385  33.063  53.456  0.00  0.00     0.215 C 
ATOM     11  O   UNL d   1      53.388  32.374  53.011  0.00  0.00    -0.285 OA
BRANCH  10  12
ATOM     12  C   UNL d   1      53.900  33.161  54.103  0.00  0.00     0.120 A 
ATOM     13  N   UNL d   1      53.662  32.920  54.854  0.00  0.00    -0.241 NA
ATOM     14  C   UNL d   1      54.183  33.024  55.486  0.00  0.00     0.099 A 
ATOM     15  C   UNL d   1      54.926  33.364  55.364  0.00  0.00     0.021 A 
ATOM     16  C   UNL d   1      55.149  33.599  54.614  0.00  0.00     0.003 A 
ATOM     17  C   UNL d   1      54.644  33.500  53.985  0.00  0.00     0.022 A 
ENDBRANCH  10  12
ENDBRANCH   1  10
TORSDOF 2
ENDMDL
