MODEL 1
REMARK VINA RESULT:      -3.0      0.000      0.000
REMARK  4 active torsions:
REMARK  status: ('A' for Active; 'I' for Inactive)
REMARK    1  A    between atoms: C_8  and  C_1 
REMARK    2  A    between atoms: N_5  and  C_2 
REMARK       I    between atoms: C_7  and  N_5 
REMARK    3  A    between atoms: C_10  and  C_7 
REMARK    4  A    between atoms: O_17  and  C_16 
ROOT
ATOM      1  N   UNL d   1      33.241  20.545 -21.899  0.00  0.00    -0.165 NA
ATOM      2  C   UNL d   1      32.659  20.908 -21.456  0.00  0.00     0.282 C 
ATOM      3  O   UNL d   1      31.958  20.508 -21.272  0.00  0.00    -0.265 OA
ENDROOT
BRANCH   1   4
ATOM      4  C   UNL d   1      33.137  19.773 -22.170  0.00  0.00     0.297 A 
ATOM      5  O   UNL d   1      32.907  19.562 -22.934  0.00  0.00    -0.253 OA
ATOM      6  C   UNL d   1      32.870  18.735 -22.968  0.00  0.00     0.212 A 
ATOM      7  N   UNL d   1      33.076  18.446 -22.229  0.00  0.00    -0.119 NA
ATOM      8  N   UNL d   1      33.241  19.086 -21.737  0.00  0.00    -0.101 NA
BRANCH   6   9
ATOM      9  C   UNL d   1      32.662  18.289 -23.635  0.00  0.00     0.072 A 
ATOM     10  S   UNL d   1      33.162  18.076 -24.250  0.00  0.00    -0.083 SA
ATOM     11  C   UNL d   1      32.725  17.636 -24.793  0.00  0.00     0.035 A 
ATOM     12  C   UNL d   1      31.947  17.577 -24.510  0.00  0.00     0.008 A 
ATOM     13  C   UNL d   1      31.911  17.984 -23.791  0.00  0.00     0.011 A 
ENDBRANCH   6   9
ENDBRANCH   1   4
BRANCH   2  14
ATOM     14  C   UNL d   1      32.765  21.684 -21.185  0.00  0.00     0.060 A 
ATOM     15  C   UNL d   1      32.949  21.828 -20.393  0.00  0.00     0.029 A 
ATOM     16  C   UNL d   1      33.052  22.596 -20.130  0.00  0.00     0.094 A 
ATOM     17  C   UNL d   1      32.973  23.225 -20.655  0.00  0.00     0.024 A 
ATOM     18  C   UNL d   1      32.788  23.085 -21.450  0.00  0.00     0.002 A 
ATOM     19  C   UNL d   1      32.686  22.312 -21.709  0.00  0.00     0.005 A 
BRANCH  16  20
ATOM     20  O   UNL d   1      33.241  22.752 -19.322  0.00  0.00    -0.328 OA
ATOM     21  C   UNL d   1      32.702  23.132 -18.839  0.00  0.00     0.181 C 
ENDBRANCH  16  20
ENDBRANCH   2  14
TORSDOF 4
ENDMDL
MODEL 2
REMARK VINA RESULT:      -2.9      1.782      5.322
REMARK  4 active torsions:
REMARK  status: ('A' for Active; 'I' for Inactive)
REMARK    1  A    between atoms: C_8  and  C_1 
REMARK    2  A    between atoms: N_5  and  C_2 
REMARK       I    between atoms: C_7  and  N_5 
REMARK    3  A    between atoms: C_10  and  C_7 
REMARK    4  A    between atoms: O_17  and  C_16 
ROOT
ATOM      1  N   UNL d   1      32.923  18.444 -22.913  0.00  0.00    -0.165 NA
ATOM      2  C   UNL d   1      32.546  18.194 -23.593  0.00  0.00     0.282 C 
ATOM      3  O   UNL d   1      32.205  18.742 -24.111  0.00  0.00    -0.265 OA
ENDROOT
BRANCH   1   4
ATOM      4  C   UNL d   1      32.970  19.248 -22.735  0.00  0.00     0.297 A 
ATOM      5  O   UNL d   1      32.746  19.591 -22.018  0.00  0.00    -0.253 OA
ATOM      6  C   UNL d   1      32.883  20.406 -22.074  0.00  0.00     0.212 A 
ATOM      7  N   UNL d   1      33.188  20.557 -22.820  0.00  0.00    -0.119 NA
ATOM      8  N   UNL d   1      33.241  19.843 -23.228  0.00  0.00    -0.101 NA
BRANCH   6   9
ATOM      9  C   UNL d   1      32.736  20.962 -21.477  0.00  0.00     0.072 A 
ATOM     10  S   UNL d   1      33.232  21.577 -21.255  0.00  0.00    -0.083 SA
ATOM     11  C   UNL d   1      32.868  21.990 -20.642  0.00  0.00     0.035 A 
ATOM     12  C   UNL d   1      32.140  21.627 -20.484  0.00  0.00     0.008 A 
ATOM     13  C   UNL d   1      32.060  20.988 -21.004  0.00  0.00     0.011 A 
ENDBRANCH   6   9
ENDBRANCH   1   4
BRANCH   2  14
ATOM     14  C   UNL d   1      32.500  17.386 -23.771  0.00  0.00     0.060 A 
ATOM     15  C   UNL d   1      31.844  16.943 -23.535  0.00  0.00     0.029 A 
ATOM     16  C   UNL d   1      31.803  16.145 -23.713  0.00  0.00     0.094 A 
ATOM     17  C   UNL d   1      32.416  15.785 -24.128  0.00  0.00     0.024 A 
ATOM     18  C   UNL d   1      33.075  16.225 -24.366  0.00  0.00     0.002 A 
ATOM     19  C   UNL d   1      33.111  17.025 -24.185  0.00  0.00     0.005 A 
BRANCH  16  20
ATOM     20  O   UNL d   1      31.136  15.685 -23.475  0.00  0.00    -0.328 OA
ATOM     21  C   UNL d   1      30.533  15.532 -24.004  0.00  0.00     0.181 C 
ENDBRANCH  16  20
ENDBRANCH   2  14
TORSDOF 4
ENDMDL
MODEL 3
REMARK VINA RESULT:      -2.8      1.404      1.893
REMARK  4 active torsions:
REMARK  status: ('A' for Active; 'I' for Inactive)
REMARK    1  A    between atoms: C_8  and  C_1 
REMARK    2  A    between atoms: N_5  and  C_2 
REMARK       I    between atoms: C_7  and  N_5 
REMARK    3  A    between atoms: C_10  and  C_7 
REMARK    4  A    between atoms: O_17  and  C_16 
ROOT
ATOM      1  N   UNL d   1      32.649  19.389 -23.107  0.00  0.00    -0.165 NA
ATOM      2  C   UNL d   1      32.935  19.602 -22.373  0.00  0.00     0.282 C 
ATOM      3  O   UNL d   1      33.203  19.026 -21.841  0.00  0.00    -0.265 OA
ENDROOT
BRANCH   1   4
ATOM      4  C   UNL d   1      32.623  18.595 -23.329  0.00  0.00     0.297 A 
ATOM      5  O   UNL d   1      31.959  18.107 -23.278  0.00  0.00    -0.253 OA
ATOM      6  C   UNL d   1      32.174  17.358 -23.557  0.00  0.00     0.212 A 
ATOM      7  N   UNL d   1      32.963  17.390 -23.776  0.00  0.00    -0.119 NA
ATOM      8  N   UNL d   1      33.240  18.154 -23.636  0.00  0.00    -0.101 NA
BRANCH   6   9
ATOM      9  C   UNL d   1      31.673  16.698 -23.602  0.00  0.00     0.072 A 
ATOM     10  S   UNL d   1      31.870  15.927 -23.402  0.00  0.00    -0.083 SA
ATOM     11  C   UNL d   1      31.208  15.453 -23.532  0.00  0.00     0.035 A 
ATOM     12  C   UNL d   1      30.597  15.937 -23.817  0.00  0.00     0.008 A 
ATOM     13  C   UNL d   1      30.889  16.710 -23.859  0.00  0.00     0.011 A 
ENDBRANCH   6   9
ENDBRANCH   1   4
BRANCH   2  14
ATOM     14  C   UNL d   1      32.961  20.400 -22.150  0.00  0.00     0.060 A 
ATOM     15  C   UNL d   1      32.739  20.629 -21.389  0.00  0.00     0.029 A 
ATOM     16  C   UNL d   1      32.766  21.418 -21.174  0.00  0.00     0.094 A 
ATOM     17  C   UNL d   1      33.015  21.984 -21.717  0.00  0.00     0.024 A 
ATOM     18  C   UNL d   1      33.239  21.759 -22.482  0.00  0.00     0.002 A 
ATOM     19  C   UNL d   1      33.210  20.966 -22.693  0.00  0.00     0.005 A 
BRANCH  16  20
ATOM     20  O   UNL d   1      32.541  21.660 -20.397  0.00  0.00    -0.328 OA
ATOM     21  C   UNL d   1      33.078  22.038 -19.912  0.00  0.00     0.181 C 
ENDBRANCH  16  20
ENDBRANCH   2  14
TORSDOF 4
ENDMDL
MODEL 4
REMARK VINA RESULT:      -2.6      1.711      5.036
REMARK  4 active torsions:
REMARK  status: ('A' for Active; 'I' for Inactive)
REMARK    1  A    between atoms: C_8  and  C_1 
REMARK    2  A    between atoms: N_5  and  C_2 
REMARK       I    between atoms: C_7  and  N_5 
REMARK    3  A    between atoms: C_10  and  C_7 
REMARK    4  A    between atoms: O_17  and  C_16 
ROOT
ATOM      1  N   UNL d   1      32.672  19.971 -22.602  0.00  0.00    -0.165 NA
ATOM      2  C   UNL d   1      32.900  19.188 -22.568  0.00  0.00     0.282 C 
ATOM      3  O   UNL d   1      33.241  18.878 -21.880  0.00  0.00    -0.265 OA
ENDROOT
BRANCH   1   4
ATOM      4  C   UNL d   1      32.779  20.464 -21.950  0.00  0.00     0.297 A 
ATOM      5  O   UNL d   1      32.516  21.245 -21.894  0.00  0.00    -0.253 OA
ATOM      6  C   UNL d   1      32.739  21.534 -21.151  0.00  0.00     0.212 A 
ATOM      7  N   UNL d   1      33.135  20.934 -20.758  0.00  0.00    -0.119 NA
ATOM      8  N   UNL d   1      33.159  20.274 -21.251  0.00  0.00    -0.101 NA
BRANCH   6   9
ATOM      9  C   UNL d   1      32.585  22.297 -20.864  0.00  0.00     0.072 A 
ATOM     10  S   UNL d   1      32.663  22.547 -20.086  0.00  0.00    -0.083 SA
ATOM     11  C   UNL d   1      32.453  23.342 -20.051  0.00  0.00     0.035 A 
ATOM     12  C   UNL d   1      32.241  23.587 -20.815  0.00  0.00     0.008 A 
ATOM     13  C   UNL d   1      32.324  22.935 -21.319  0.00  0.00     0.011 A 
ENDBRANCH   6   9
ENDBRANCH   1   4
BRANCH   2  14
ATOM     14  C   UNL d   1      32.792  18.693 -23.223  0.00  0.00     0.060 A 
ATOM     15  C   UNL d   1      32.273  18.052 -23.182  0.00  0.00     0.029 A 
ATOM     16  C   UNL d   1      32.170  17.566 -23.832  0.00  0.00     0.094 A 
ATOM     17  C   UNL d   1      32.583  17.716 -24.528  0.00  0.00     0.024 A 
ATOM     18  C   UNL d   1      33.104  18.358 -24.574  0.00  0.00     0.002 A 
ATOM     19  C   UNL d   1      33.204  18.843 -23.919  0.00  0.00     0.005 A 
BRANCH  16  20
ATOM     20  O   UNL d   1      31.641  16.908 -23.798  0.00  0.00    -0.328 OA
ATOM     21  C   UNL d   1      31.031  16.842 -24.337  0.00  0.00     0.181 C 
ENDBRANCH  16  20
ENDBRANCH   2  14
TORSDOF 4
ENDMDL
MODEL 5
REMARK VINA RESULT:      -2.5      2.078      5.577
REMARK  4 active torsions:
REMARK  status: ('A' for Active; 'I' for Inactive)
REMARK    1  A    between atoms: C_8  and  C_1 
REMARK    2  A    between atoms: N_5  and  C_2 
REMARK       I    between atoms: C_7  and  N_5 
REMARK    3  A    between atoms: C_10  and  C_7 
REMARK    4  A    between atoms: O_17  and  C_16 
ROOT
ATOM      1  N   UNL d   1      31.934  18.105 -23.831  0.00  0.00    -0.165 NA
ATOM      2  C   UNL d   1      32.211  17.340 -23.765  0.00  0.00     0.282 C 
ATOM      3  O   UNL d   1      32.941  17.186 -23.406  0.00  0.00    -0.265 OA
ENDROOT
BRANCH   1   4
ATOM      4  C   UNL d   1      32.379  18.735 -23.540  0.00  0.00     0.297 A 
ATOM      5  O   UNL d   1      32.335  19.036 -22.773  0.00  0.00    -0.253 OA
ATOM      6  C   UNL d   1      32.872  19.663 -22.715  0.00  0.00     0.212 A 
ATOM      7  N   UNL d   1      33.241  19.743 -23.443  0.00  0.00    -0.119 NA
ATOM      8  N   UNL d   1      32.936  19.170 -23.951  0.00  0.00    -0.101 NA
BRANCH   6   9
ATOM      9  C   UNL d   1      33.007  20.123 -22.038  0.00  0.00     0.072 A 
ATOM     10  S   UNL d   1      33.041  20.942 -22.009  0.00  0.00    -0.083 SA
ATOM     11  C   UNL d   1      33.185  21.164 -21.228  0.00  0.00     0.035 A 
ATOM     12  C   UNL d   1      33.241  20.474 -20.771  0.00  0.00     0.008 A 
ATOM     13  C   UNL d   1      33.129  19.829 -21.277  0.00  0.00     0.011 A 
ENDBRANCH   6   9
ENDBRANCH   1   4
BRANCH   2  14
ATOM     14  C   UNL d   1      31.763  16.707 -24.058  0.00  0.00     0.060 A 
ATOM     15  C   UNL d   1      31.089  16.451 -23.655  0.00  0.00     0.029 A 
ATOM     16  C   UNL d   1      30.650  15.826 -23.949  0.00  0.00     0.094 A 
ATOM     17  C   UNL d   1      30.880  15.453 -24.645  0.00  0.00     0.024 A 
ATOM     18  C   UNL d   1      31.555  15.706 -25.052  0.00  0.00     0.002 A 
ATOM     19  C   UNL d   1      31.992  16.334 -24.754  0.00  0.00     0.005 A 
BRANCH  16  20
ATOM     20  O   UNL d   1      29.960  15.558 -23.543  0.00  0.00    -0.328 OA
ATOM     21  C   UNL d   1      29.232  15.571 -23.915  0.00  0.00     0.181 C 
ENDBRANCH  16  20
ENDBRANCH   2  14
TORSDOF 4
ENDMDL
MODEL 6
REMARK VINA RESULT:      -1.0      3.164      6.153
REMARK  4 active torsions:
REMARK  status: ('A' for Active; 'I' for Inactive)
REMARK    1  A    between atoms: C_8  and  C_1 
REMARK    2  A    between atoms: N_5  and  C_2 
REMARK       I    between atoms: C_7  and  N_5 
REMARK    3  A    between atoms: C_10  and  C_7 
REMARK    4  A    between atoms: O_17  and  C_16 
ROOT
ATOM      1  N   UNL d   1      30.495  17.187 -24.111  0.00  0.00    -0.165 NA
ATOM      2  C   UNL d   1      30.368  16.382 -24.071  0.00  0.00     0.282 C 
ATOM      3  O   UNL d   1      30.990  15.866 -23.892  0.00  0.00    -0.265 OA
ENDROOT
BRANCH   1   4
ATOM      4  C   UNL d   1      31.246  17.498 -23.973  0.00  0.00     0.297 A 
ATOM      5  O   UNL d   1      31.404  18.227 -23.622  0.00  0.00    -0.253 OA
ATOM      6  C   UNL d   1      32.226  18.321 -23.591  0.00  0.00     0.212 A 
ATOM      7  N   UNL d   1      32.566  17.653 -23.922  0.00  0.00    -0.119 NA
ATOM      8  N   UNL d   1      31.961  17.145 -24.158  0.00  0.00    -0.101 NA
BRANCH   6   9
ATOM      9  C   UNL d   1      32.625  18.978 -23.279  0.00  0.00     0.072 A 
ATOM     10  S   UNL d   1      32.866  19.072 -22.500  0.00  0.00    -0.083 SA
ATOM     11  C   UNL d   1      33.240  19.804 -22.436  0.00  0.00     0.035 A 
ATOM     12  C   UNL d   1      33.230  20.164 -23.183  0.00  0.00     0.008 A 
ATOM     13  C   UNL d   1      32.847  19.649 -23.705  0.00  0.00     0.011 A 
ENDBRANCH   6   9
ENDBRANCH   1   4
BRANCH   2  14
ATOM     14  C   UNL d   1      29.612  16.071 -24.209  0.00  0.00     0.060 A 
ATOM     15  C   UNL d   1      29.047  16.064 -23.606  0.00  0.00     0.029 A 
ATOM     16  C   UNL d   1      28.302  15.756 -23.748  0.00  0.00     0.094 A 
ATOM     17  C   UNL d   1      28.116  15.453 -24.490  0.00  0.00     0.024 A 
ATOM     18  C   UNL d   1      28.680  15.459 -25.097  0.00  0.00     0.002 A 
ATOM     19  C   UNL d   1      29.426  15.769 -24.950  0.00  0.00     0.005 A 
BRANCH  16  20
ATOM     20  O   UNL d   1      27.719  15.745 -23.137  0.00  0.00    -0.328 OA
ATOM     21  C   UNL d   1      26.951  15.521 -23.305  0.00  0.00     0.181 C 
ENDBRANCH  16  20
ENDBRANCH   2  14
TORSDOF 4
ENDMDL
