MODEL 1
REMARK VINA RESULT:      55.4      0.000      0.000
REMARK  4 active torsions:
REMARK  status: ('A' for Active; 'I' for Inactive)
REMARK    1  A    between atoms: N_5  and  C_1 
REMARK    2  A    between atoms: N_8  and  C_3 
REMARK    3  A    between atoms: C_14  and  N_8 
REMARK    4  A    between atoms: C_16  and  C_14 
ROOT
ATOM      1  C   UNL d   1     -54.932-101.403 -42.741  0.00  0.00     0.737 A 
ATOM      2  N   UNL d   1     -55.095-100.613 -42.934  0.00  0.00    -0.041 NA
ATOM      3  C   UNL d   1     -55.131-100.376 -43.730  0.00  0.00     0.182 A 
ATOM      4  N   UNL d   1     -54.804-101.962 -43.342  0.00  0.00    -0.060 NA
ATOM      5  C   UNL d   1     -55.004-100.932 -44.332  0.00  0.00     0.055 A 
ATOM      6  C   UNL d   1     -54.841-101.718 -44.145  0.00  0.00     0.103 A 
ATOM      7  C   UNL d   1     -55.040-100.695 -45.127  0.00  0.00     0.005 A 
ATOM      8  C   UNL d   1     -54.712-102.282 -44.749  0.00  0.00     0.020 A 
ATOM      9  C   UNL d   1     -54.914-101.245 -45.726  0.00  0.00     0.000 A 
ATOM     10  C   UNL d   1     -54.750-102.040 -45.537  0.00  0.00     0.002 A 
ENDROOT
BRANCH   3  11
ATOM     11  N   UNL d   1     -55.301 -99.554 -43.930  0.00  0.00    -0.225 NA
BRANCH  11  12
ATOM     12  C   UNL d   1     -55.897 -99.167 -43.656  0.00  0.00     0.101 C 
BRANCH  12  13
ATOM     13  C   UNL d   1     -56.490 -99.030 -44.108  0.00  0.00     0.019 A 
ATOM     14  C   UNL d   1     -57.174 -98.932 -43.798  0.00  0.00     0.002 A 
ATOM     15  C   UNL d   1     -57.765 -98.796 -44.236  0.00  0.00     0.000 A 
ATOM     16  C   UNL d   1     -57.681 -98.756 -44.996  0.00  0.00     0.000 A 
ATOM     17  C   UNL d   1     -56.999 -98.855 -45.297  0.00  0.00     0.000 A 
ATOM     18  C   UNL d   1     -56.399 -98.992 -44.857  0.00  0.00     0.002 A 
ENDBRANCH  12  13
ENDBRANCH  11  12
ENDBRANCH   3  11
BRANCH   1  19
ATOM     19  N   UNL d   1     -54.894-101.649 -41.928  0.00  0.00    -0.134 N 
ATOM     20  C   UNL d   1     -54.896-102.480 -41.732  0.00  0.00     0.117 A 
ATOM     21  C   UNL d   1     -54.857-102.720 -40.912  0.00  0.00     0.100 A 
ATOM     22  N   UNL d   1     -54.817-102.140 -40.294  0.00  0.00    -0.299 N 
ATOM     23  C   UNL d   1     -54.815-101.309 -40.491  0.00  0.00     0.100 A 
ATOM     24  C   UNL d   1     -54.779-102.386 -39.478  0.00  0.00     0.100 C 
ATOM     25  C   UNL d   1     -54.853-101.059 -41.305  0.00  0.00     0.117 A 
ENDBRANCH   1  19
TORSDOF 4
ENDMDL
