MODEL 1
REMARK VINA RESULT:      31.2      0.000      0.000
REMARK  4 active torsions:
REMARK  status: ('A' for Active; 'I' for Inactive)
REMARK    1  A    between atoms: C_13  and  C_2 
REMARK       I    between atoms: N_7  and  C_8 
REMARK    2  A    between atoms: C_8  and  C_15 
REMARK    3  A    between atoms: S_14  and  C_10 
REMARK    4  A    between atoms: C_15  and  S_14 
ROOT
ATOM      1  N   UNL d   1      46.407 -18.569  43.480  0.00  0.00    -0.191 N 
ATOM      2  C   UNL d   1      46.451 -19.074  42.836  0.00  0.00     0.187 A 
ATOM      3  N   UNL d   1      46.500 -19.841  43.123  0.00  0.00    -0.127 NA
ATOM      4  C   UNL d   1      46.427 -19.010  44.170  0.00  0.00     0.187 A 
ATOM      5  N   UNL d   1      46.348 -17.734  43.527  0.00  0.00    -0.156 NA
ATOM      6  N   UNL d   1      46.486 -19.810  43.948  0.00  0.00    -0.127 NA
ATOM      7  C   UNL d   1      46.311 -17.363  44.264  0.00  0.00     0.131 A 
ATOM      8  C   UNL d   1      46.390 -18.639  44.906  0.00  0.00     0.043 A 
ATOM      9  C   UNL d   1      46.332 -17.816  44.953  0.00  0.00     0.031 A 
ENDROOT
BRANCH   7  10
ATOM     10  S   UNL d   1      46.253 -16.540  44.311  0.00  0.00    -0.061 SA
BRANCH  10  11
ATOM     11  C   UNL d   1      45.618 -16.153  43.958  0.00  0.00     0.098 C 
BRANCH  11  12
ATOM     12  C   UNL d   1      45.034 -15.831  44.422  0.00  0.00     0.271 C 
ATOM     13  N   UNL d   1      44.940 -15.014  44.453  0.00  0.00    -0.273 N 
ATOM     14  C   UNL d   1      45.435 -14.530  44.017  0.00  0.00     0.067 A 
ATOM     15  C   UNL d   1      44.346 -14.695  44.924  0.00  0.00     0.083 A 
ATOM     16  C   UNL d   1      45.337 -13.721  44.051  0.00  0.00     0.016 A 
ATOM     17  C   UNL d   1      46.025 -14.857  43.549  0.00  0.00     0.018 A 
ATOM     18  C   UNL d   1      45.832 -13.222  43.615  0.00  0.00     0.001 A 
ATOM     19  C   UNL d   1      44.752 -13.383  44.514  0.00  0.00     0.003 A 
ATOM     20  C   UNL d   1      46.429 -13.541  43.140  0.00  0.00     0.000 A 
ATOM     21  C   UNL d   1      46.525 -14.368  43.108  0.00  0.00     0.002 A 
ATOM     22  C   UNL d   1      44.256 -13.885  44.953  0.00  0.00     0.019 A 
ATOM     23  O   UNL d   1      44.534 -16.319  44.862  0.00  0.00    -0.266 OA
ENDBRANCH  11  12
ENDBRANCH  10  11
ENDBRANCH   7  10
BRANCH   2  24
ATOM     24  C   UNL d   1      46.449 -18.861  42.045  0.00  0.00     0.038 A 
ATOM     25  C   UNL d   1      46.646 -18.098  41.820  0.00  0.00     0.003 A 
ATOM     26  C   UNL d   1      46.644 -17.880  41.022  0.00  0.00     0.000 A 
ATOM     27  C   UNL d   1      46.439 -18.442  40.450  0.00  0.00     0.000 A 
ATOM     28  C   UNL d   1      46.239 -19.212  40.671  0.00  0.00     0.000 A 
ATOM     29  C   UNL d   1      46.244 -19.423  41.473  0.00  0.00     0.003 A 
ENDBRANCH   2  24
TORSDOF 4
ENDMDL
