MODEL 1
REMARK VINA RESULT:      -5.0      0.000      0.000
REMARK  3 active torsions:
REMARK  status: ('A' for Active; 'I' for Inactive)
REMARK    1  A    between atoms: N_2  and  C_1 
REMARK    2  A    between atoms: N_3  and  C_1 
REMARK       I    between atoms: C_4  and  N_3 
REMARK    3  A    between atoms: C_7  and  C_4 
ROOT
ATOM      1  C   UNL d   1      58.802  -0.545  29.426  0.00  0.00     0.209 C 
ATOM      2  S   UNL d   1      58.431  -0.179  28.777  0.00  0.00    -0.038 SA
ENDROOT
BRANCH   1   3
ATOM      3  N   UNL d   1      59.555  -0.862  29.351  0.00  0.00    -0.282 N 
ATOM      4  C   UNL d   1      59.645  -1.659  29.134  0.00  0.00     0.066 A 
ATOM      5  C   UNL d   1      60.398  -1.977  29.059  0.00  0.00     0.016 A 
ATOM      6  C   UNL d   1      58.989  -2.130  28.997  0.00  0.00     0.018 A 
ATOM      7  C   UNL d   1      60.496  -2.762  28.846  0.00  0.00     0.001 A 
ATOM      8  C   UNL d   1      61.062  -1.510  29.196  0.00  0.00     0.003 A 
ATOM      9  C   UNL d   1      59.837  -3.232  28.708  0.00  0.00     0.000 A 
ATOM     10  C   UNL d   1      59.083  -2.922  28.782  0.00  0.00     0.002 A 
ATOM     11  C   UNL d   1      60.968  -0.717  29.411  0.00  0.00     0.019 A 
ATOM     12  C   UNL d   1      60.215  -0.396  29.487  0.00  0.00     0.082 A 
ENDBRANCH   1   3
BRANCH   1  13
ATOM     13  N   UNL d   1      58.405  -0.587  30.155  0.00  0.00    -0.180 NA
ATOM     14  C   UNL d   1      57.803  -0.039  30.325  0.00  0.00     0.281 C 
ATOM     15  O   UNL d   1      57.600   0.541  29.779  0.00  0.00    -0.265 OA
BRANCH  14  16
ATOM     16  C   UNL d   1      57.402  -0.081  31.060  0.00  0.00     0.058 A 
ATOM     17  C   UNL d   1      57.045  -0.795  31.289  0.00  0.00     0.005 A 
ATOM     18  C   UNL d   1      56.648  -0.837  32.018  0.00  0.00     0.007 A 
ATOM     19  C   UNL d   1      56.610  -0.173  32.509  0.00  0.00     0.035 A 
ATOM     20  C   UNL d   1      56.973   0.543  32.269  0.00  0.00     0.007 A 
ATOM     21 BR   UNL d   1      56.213  -0.215  33.237  0.00  0.00    -0.049 Br
ATOM     22  C   UNL d   1      57.366   0.584  31.547  0.00  0.00     0.005 A 
ENDBRANCH  14  16
ENDBRANCH   1  13
TORSDOF 3
ENDMDL
MODEL 2
REMARK VINA RESULT:      -4.6      0.781      1.652
REMARK  3 active torsions:
REMARK  status: ('A' for Active; 'I' for Inactive)
REMARK    1  A    between atoms: N_2  and  C_1 
REMARK    2  A    between atoms: N_3  and  C_1 
REMARK       I    between atoms: C_4  and  N_3 
REMARK    3  A    between atoms: C_7  and  C_4 
ROOT
ATOM      1  C   UNL d   1      58.200  -0.116  29.912  0.00  0.00     0.209 C 
ATOM      2  S   UNL d   1      58.034   0.594  29.510  0.00  0.00    -0.038 SA
ENDROOT
BRANCH   1   3
ATOM      3  N   UNL d   1      58.705  -0.672  29.582  0.00  0.00    -0.282 N 
ATOM      4  C   UNL d   1      59.521  -0.516  29.546  0.00  0.00     0.066 A 
ATOM      5  C   UNL d   1      60.026  -1.072  29.217  0.00  0.00     0.016 A 
ATOM      6  C   UNL d   1      59.823   0.187  29.837  0.00  0.00     0.018 A 
ATOM      7  C   UNL d   1      60.831  -0.927  29.178  0.00  0.00     0.001 A 
ATOM      8  C   UNL d   1      59.729  -1.782  28.922  0.00  0.00     0.003 A 
ATOM      9  C   UNL d   1      61.133  -0.221  29.470  0.00  0.00     0.000 A 
ATOM     10  C   UNL d   1      60.635   0.338  29.800  0.00  0.00     0.002 A 
ATOM     11  C   UNL d   1      58.917  -1.933  28.960  0.00  0.00     0.019 A 
ATOM     12  C   UNL d   1      58.408  -1.378  29.290  0.00  0.00     0.082 A 
ENDBRANCH   1   3
BRANCH   1  13
ATOM     13  N   UNL d   1      57.850  -0.260  30.652  0.00  0.00    -0.180 NA
ATOM     14  C   UNL d   1      57.154   0.144  30.860  0.00  0.00     0.281 C 
ATOM     15  O   UNL d   1      56.812   0.682  30.342  0.00  0.00    -0.265 OA
BRANCH  14  16
ATOM     16  C   UNL d   1      56.800  -0.001  31.607  0.00  0.00     0.058 A 
ATOM     17  C   UNL d   1      56.653  -0.783  31.843  0.00  0.00     0.005 A 
ATOM     18  C   UNL d   1      56.303  -0.927  32.582  0.00  0.00     0.007 A 
ATOM     19  C   UNL d   1      56.104  -0.295  33.077  0.00  0.00     0.035 A 
ATOM     20  C   UNL d   1      56.256   0.491  32.830  0.00  0.00     0.007 A 
ATOM     21 BR   UNL d   1      55.753  -0.439  33.817  0.00  0.00    -0.049 Br
ATOM     22  C   UNL d   1      56.603   0.633  32.097  0.00  0.00     0.005 A 
ENDBRANCH  14  16
ENDBRANCH   1  13
TORSDOF 3
ENDMDL
MODEL 3
REMARK VINA RESULT:      -2.1      1.845      2.302
REMARK  3 active torsions:
REMARK  status: ('A' for Active; 'I' for Inactive)
REMARK    1  A    between atoms: N_2  and  C_1 
REMARK    2  A    between atoms: N_3  and  C_1 
REMARK       I    between atoms: C_4  and  N_3 
REMARK    3  A    between atoms: C_7  and  C_4 
ROOT
ATOM      1  C   UNL d   1      57.884  -0.519  31.056  0.00  0.00     0.209 C 
ATOM      2  S   UNL d   1      57.692  -1.248  30.704  0.00  0.00    -0.038 SA
ENDROOT
BRANCH   1   3
ATOM      3  N   UNL d   1      58.566  -0.119  30.837  0.00  0.00    -0.282 N 
ATOM      4  C   UNL d   1      58.781  -0.079  30.035  0.00  0.00     0.066 A 
ATOM      5  C   UNL d   1      59.463   0.321  29.816  0.00  0.00     0.016 A 
ATOM      6  C   UNL d   1      58.317  -0.436  29.463  0.00  0.00     0.018 A 
ATOM      7  C   UNL d   1      59.681   0.364  29.028  0.00  0.00     0.001 A 
ATOM      8  C   UNL d   1      59.935   0.682  30.387  0.00  0.00     0.003 A 
ATOM      9  C   UNL d   1      59.215   0.006  28.455  0.00  0.00     0.000 A 
ATOM     10  C   UNL d   1      58.533  -0.394  28.666  0.00  0.00     0.002 A 
ATOM     11  C   UNL d   1      59.718   0.640  31.183  0.00  0.00     0.019 A 
ATOM     12  C   UNL d   1      59.035   0.240  31.406  0.00  0.00     0.082 A 
ENDBRANCH   1   3
BRANCH   1  13
ATOM     13  N   UNL d   1      57.380  -0.196  31.632  0.00  0.00    -0.180 NA
ATOM     14  C   UNL d   1      56.768  -0.662  31.947  0.00  0.00     0.281 C 
ATOM     15  O   UNL d   1      56.658  -1.435  31.692  0.00  0.00    -0.265 OA
BRANCH  14  16
ATOM     16  C   UNL d   1      56.259  -0.336  32.529  0.00  0.00     0.058 A 
ATOM     17  C   UNL d   1      56.175  -0.722  33.259  0.00  0.00     0.005 A 
ATOM     18  C   UNL d   1      55.671  -0.399  33.835  0.00  0.00     0.007 A 
ATOM     19  C   UNL d   1      55.258   0.300  33.681  0.00  0.00     0.035 A 
ATOM     20  C   UNL d   1      55.349   0.682  32.940  0.00  0.00     0.007 A 
ATOM     21 BR   UNL d   1      54.754   0.623  34.257  0.00  0.00    -0.049 Br
ATOM     22  C   UNL d   1      55.848   0.362  32.370  0.00  0.00     0.005 A 
ENDBRANCH  14  16
ENDBRANCH   1  13
TORSDOF 3
ENDMDL
