MODEL 1
REMARK VINA RESULT:      14.9      0.000      0.000
REMARK  1 active torsions:
REMARK  status: ('A' for Active; 'I' for Inactive)
REMARK    1  A    between atoms: C_15  and  C_6 
ROOT
ATOM      1  C   UNL d   1     -51.971  24.785  33.352  0.00  0.00     0.087 A 
ATOM      2  C   UNL d   1     -50.559  25.030  33.348  0.00  0.00     0.111 A 
ATOM      3  C   UNL d   1     -51.827  23.971  33.341  0.00  0.00     0.109 A 
ATOM      4  C   UNL d   1     -52.743  25.076  33.360  0.00  0.00     0.302 A 
ATOM      5  C   UNL d   1     -50.423  24.210  33.337  0.00  0.00     0.213 A 
ATOM      6  C   UNL d   1     -51.344  25.322  33.356  0.00  0.00     0.020 A 
ATOM      7  O   UNL d   1     -51.057  23.689  33.334  0.00  0.00    -0.287 OA
ATOM      8  C   UNL d   1     -52.455  23.443  33.338  0.00  0.00     0.050 A 
ATOM      9  O   UNL d   1     -53.382  24.537  33.357  0.00  0.00    -0.273 OA
ATOM     10  C   UNL d   1     -49.930  25.562  33.351  0.00  0.00     0.105 C 
ATOM     11  C   UNL d   1     -53.240  23.728  33.346  0.00  0.00     0.105 A 
ATOM     12  N   UNL d   1     -49.290  26.089  33.355  0.00  0.00    -0.191 NA
ATOM     13  O   UNL d   1     -52.886  25.889  33.371  0.00  0.00    -0.259 OA
ATOM     14  N   UNL d   1     -49.643  23.930  33.329  0.00  0.00    -0.120 N 
ATOM     15  C   UNL d   1     -53.876  23.197  33.343  0.00  0.00     0.027 C 
ENDROOT
BRANCH   6  16
ATOM     16  C   UNL d   1     -51.485  26.124  33.367  0.00  0.00     0.001 C 
ATOM     17  C   UNL d   1     -52.257  26.415  33.326  0.00  0.00     0.000 C 
ATOM     18  C   UNL d   1     -50.859  26.651  33.419  0.00  0.00     0.000 C 
ENDBRANCH   6  16
TORSDOF 1
ENDMDL
