MODEL 1
REMARK VINA RESULT:      -7.1      0.000      0.000
REMARK  5 active torsions:
REMARK  status: ('A' for Active; 'I' for Inactive)
REMARK    1  A    between atoms: C_2  and  S_1 
REMARK    2  A    between atoms: N_3  and  S_1 
REMARK    3  A    between atoms: C_11  and  N_3 
REMARK    4  A    between atoms: O_13  and  C_5 
REMARK    5  A    between atoms: C_14  and  C_11 
ROOT
ATOM      1  S   UNL d   1     -47.778  13.617  22.923  0.00  0.00     0.285 S 
ATOM      2  O   UNL d   1     -47.485  14.130  23.499  0.00  0.00    -0.198 OA
ATOM      3  O   UNL d   1     -48.072  13.105  22.349  0.00  0.00    -0.198 OA
ENDROOT
BRANCH   1   4
ATOM      4  C   UNL d   1     -47.015  13.330  22.792  0.00  0.00     0.107 A 
ATOM      5  C   UNL d   1     -46.729  12.701  23.242  0.00  0.00     0.039 A 
ATOM      6  C   UNL d   1     -45.966  12.415  23.110  0.00  0.00     0.122 A 
ATOM      7  C   UNL d   1     -45.490  12.758  22.528  0.00  0.00     0.162 A 
ATOM      8  C   UNL d   1     -45.779  13.386  22.080  0.00  0.00     0.032 A 
ATOM      9  F   UNL d   1     -44.730  12.471  22.399  0.00  0.00    -0.202 F 
ATOM     10  C   UNL d   1     -46.539  13.674  22.209  0.00  0.00     0.015 A 
BRANCH   6  11
ATOM     11  O   UNL d   1     -45.680  11.786  23.560  0.00  0.00    -0.326 OA
ATOM     12  C   UNL d   1     -46.156  11.125  23.698  0.00  0.00     0.181 C 
ENDBRANCH   6  11
ENDBRANCH   1   4
BRANCH   1  13
ATOM     13  N   UNL d   1     -48.543  13.905  23.056  0.00  0.00    -0.157 NA
BRANCH  13  14
ATOM     14  C   UNL d   1     -48.797  14.592  22.675  0.00  0.00     0.112 C 
BRANCH  14  15
ATOM     15  C   UNL d   1     -49.548  14.894  22.832  0.00  0.00     0.020 A 
ATOM     16  C   UNL d   1     -49.651  15.465  23.419  0.00  0.00     0.002 A 
ATOM     17  C   UNL d   1     -50.411  15.768  23.574  0.00  0.00     0.000 A 
ATOM     18  C   UNL d   1     -51.060  15.497  23.142  0.00  0.00     0.000 A 
ATOM     19  C   UNL d   1     -50.957  14.926  22.555  0.00  0.00     0.000 A 
ATOM     20  C   UNL d   1     -50.205  14.623  22.398  0.00  0.00     0.002 A 
ENDBRANCH  14  15
ENDBRANCH  13  14
ENDBRANCH   1  13
TORSDOF 5
ENDMDL
MODEL 2
REMARK VINA RESULT:      -6.8      0.737      1.366
REMARK  5 active torsions:
REMARK  status: ('A' for Active; 'I' for Inactive)
REMARK    1  A    between atoms: C_2  and  S_1 
REMARK    2  A    between atoms: N_3  and  S_1 
REMARK    3  A    between atoms: C_11  and  N_3 
REMARK    4  A    between atoms: O_13  and  C_5 
REMARK    5  A    between atoms: C_14  and  C_11 
ROOT
ATOM      1  S   UNL d   1     -47.940  13.381  22.944  0.00  0.00     0.285 S 
ATOM      2  O   UNL d   1     -47.539  13.983  23.340  0.00  0.00    -0.198 OA
ATOM      3  O   UNL d   1     -48.342  12.781  22.549  0.00  0.00    -0.198 OA
ENDROOT
BRANCH   1   4
ATOM      4  C   UNL d   1     -47.309  12.868  23.085  0.00  0.00     0.107 A 
ATOM      5  C   UNL d   1     -46.558  13.052  22.798  0.00  0.00     0.039 A 
ATOM      6  C   UNL d   1     -45.927  12.540  22.938  0.00  0.00     0.122 A 
ATOM      7  C   UNL d   1     -46.048  11.842  23.367  0.00  0.00     0.162 A 
ATOM      8  C   UNL d   1     -46.798  11.662  23.652  0.00  0.00     0.032 A 
ATOM      9  F   UNL d   1     -45.416  11.333  23.505  0.00  0.00    -0.202 F 
ATOM     10  C   UNL d   1     -47.429  12.171  23.513  0.00  0.00     0.015 A 
BRANCH   6  11
ATOM     11  O   UNL d   1     -45.176  12.723  22.651  0.00  0.00    -0.326 OA
ATOM     12  C   UNL d   1     -45.075  12.921  21.854  0.00  0.00     0.181 C 
ENDBRANCH   6  11
ENDBRANCH   1   4
BRANCH   1  13
ATOM     13  N   UNL d   1     -48.573  13.896  22.804  0.00  0.00    -0.157 NA
BRANCH  13  14
ATOM     14  C   UNL d   1     -49.268  13.824  23.243  0.00  0.00     0.112 C 
BRANCH  14  15
ATOM     15  C   UNL d   1     -49.866  14.388  23.160  0.00  0.00     0.020 A 
ATOM     16  C   UNL d   1     -50.418  14.319  22.549  0.00  0.00     0.002 A 
ATOM     17  C   UNL d   1     -51.019  14.889  22.469  0.00  0.00     0.000 A 
ATOM     18  C   UNL d   1     -51.064  15.521  22.998  0.00  0.00     0.000 A 
ATOM     19  C   UNL d   1     -50.512  15.589  23.609  0.00  0.00     0.000 A 
ATOM     20  C   UNL d   1     -49.914  15.026  23.692  0.00  0.00     0.002 A 
ENDBRANCH  14  15
ENDBRANCH  13  14
ENDBRANCH   1  13
TORSDOF 5
ENDMDL
MODEL 3
REMARK VINA RESULT:      -6.3      1.922      4.468
REMARK  5 active torsions:
REMARK  status: ('A' for Active; 'I' for Inactive)
REMARK    1  A    between atoms: C_2  and  S_1 
REMARK    2  A    between atoms: N_3  and  S_1 
REMARK    3  A    between atoms: C_11  and  N_3 
REMARK    4  A    between atoms: O_13  and  C_5 
REMARK    5  A    between atoms: C_14  and  C_11 
ROOT
ATOM      1  S   UNL d   1     -48.243  14.022  22.601  0.00  0.00     0.285 S 
ATOM      2  O   UNL d   1     -47.930  14.201  23.343  0.00  0.00    -0.198 OA
ATOM      3  O   UNL d   1     -48.553  13.843  21.860  0.00  0.00    -0.198 OA
ENDROOT
BRANCH   1   4
ATOM      4  C   UNL d   1     -48.948  14.397  22.808  0.00  0.00     0.107 A 
ATOM      5  C   UNL d   1     -49.580  13.953  23.097  0.00  0.00     0.039 A 
ATOM      6  C   UNL d   1     -50.285  14.327  23.304  0.00  0.00     0.122 A 
ATOM      7  C   UNL d   1     -50.358  15.147  23.222  0.00  0.00     0.162 A 
ATOM      8  C   UNL d   1     -49.726  15.587  22.934  0.00  0.00     0.032 A 
ATOM      9  F   UNL d   1     -51.063  15.517  23.430  0.00  0.00    -0.202 F 
ATOM     10  C   UNL d   1     -49.021  15.217  22.726  0.00  0.00     0.015 A 
BRANCH   6  11
ATOM     11  O   UNL d   1     -50.917  13.883  23.593  0.00  0.00    -0.326 OA
ATOM     12  C   UNL d   1     -50.936  13.064  23.476  0.00  0.00     0.181 C 
ENDBRANCH   6  11
ENDBRANCH   1   4
BRANCH   1  13
ATOM     13  N   UNL d   1     -47.534  13.646  22.394  0.00  0.00    -0.157 NA
BRANCH  13  14
ATOM     14  C   UNL d   1     -46.905  13.628  22.929  0.00  0.00     0.112 C 
BRANCH  14  15
ATOM     15  C   UNL d   1     -46.209  13.234  22.730  0.00  0.00     0.020 A 
ATOM     16  C   UNL d   1     -46.058  12.480  23.034  0.00  0.00     0.002 A 
ATOM     17  C   UNL d   1     -45.354  12.085  22.831  0.00  0.00     0.000 A 
ATOM     18  C   UNL d   1     -44.808  12.446  22.328  0.00  0.00     0.000 A 
ATOM     19  C   UNL d   1     -44.958  13.199  22.024  0.00  0.00     0.000 A 
ATOM     20  C   UNL d   1     -45.655  13.594  22.223  0.00  0.00     0.002 A 
ENDBRANCH  14  15
ENDBRANCH  13  14
ENDBRANCH   1  13
TORSDOF 5
ENDMDL
MODEL 4
REMARK VINA RESULT:      -6.0      2.014      4.756
REMARK  5 active torsions:
REMARK  status: ('A' for Active; 'I' for Inactive)
REMARK    1  A    between atoms: C_2  and  S_1 
REMARK    2  A    between atoms: N_3  and  S_1 
REMARK    3  A    between atoms: C_11  and  N_3 
REMARK    4  A    between atoms: O_13  and  C_5 
REMARK    5  A    between atoms: C_14  and  C_11 
ROOT
ATOM      1  S   UNL d   1     -46.491  12.974  22.902  0.00  0.00     0.285 S 
ATOM      2  O   UNL d   1     -46.820  12.816  23.642  0.00  0.00    -0.198 OA
ATOM      3  O   UNL d   1     -46.161  13.130  22.164  0.00  0.00    -0.198 OA
ENDROOT
BRANCH   1   4
ATOM      4  C   UNL d   1     -47.163  13.407  22.696  0.00  0.00     0.107 A 
ATOM      5  C   UNL d   1     -47.753  13.057  22.238  0.00  0.00     0.039 A 
ATOM      6  C   UNL d   1     -48.425  13.489  22.032  0.00  0.00     0.122 A 
ATOM      7  C   UNL d   1     -48.506  14.272  22.284  0.00  0.00     0.162 A 
ATOM      8  C   UNL d   1     -47.916  14.619  22.741  0.00  0.00     0.032 A 
ATOM      9  F   UNL d   1     -49.177  14.701  22.077  0.00  0.00    -0.202 F 
ATOM     10  C   UNL d   1     -47.245  14.190  22.948  0.00  0.00     0.015 A 
BRANCH   6  11
ATOM     11  O   UNL d   1     -49.015  13.139  21.574  0.00  0.00    -0.326 OA
ATOM     12  C   UNL d   1     -49.398  12.457  21.843  0.00  0.00     0.181 C 
ENDBRANCH   6  11
ENDBRANCH   1   4
BRANCH   1  13
ATOM     13  N   UNL d   1     -45.817  12.540  23.110  0.00  0.00    -0.157 NA
BRANCH  13  14
ATOM     14  C   UNL d   1     -45.884  11.737  23.290  0.00  0.00     0.112 C 
BRANCH  14  15
ATOM     15  C   UNL d   1     -45.207  11.266  23.321  0.00  0.00     0.020 A 
ATOM     16  C   UNL d   1     -45.239  10.517  23.668  0.00  0.00     0.002 A 
ATOM     17  C   UNL d   1     -44.554  10.045  23.698  0.00  0.00     0.000 A 
ATOM     18  C   UNL d   1     -43.845  10.324  23.381  0.00  0.00     0.000 A 
ATOM     19  C   UNL d   1     -43.813  11.073  23.034  0.00  0.00     0.000 A 
ATOM     20  C   UNL d   1     -44.490  11.544  23.003  0.00  0.00     0.002 A 
ENDBRANCH  14  15
ENDBRANCH  13  14
ENDBRANCH   1  13
TORSDOF 5
ENDMDL
MODEL 5
REMARK VINA RESULT:      -5.5      8.733      9.792
REMARK  5 active torsions:
REMARK  status: ('A' for Active; 'I' for Inactive)
REMARK    1  A    between atoms: C_2  and  S_1 
REMARK    2  A    between atoms: N_3  and  S_1 
REMARK    3  A    between atoms: C_11  and  N_3 
REMARK    4  A    between atoms: O_13  and  C_5 
REMARK    5  A    between atoms: C_14  and  C_11 
ROOT
ATOM      1  S   UNL d   1     -40.065  14.592  19.210  0.00  0.00     0.285 S 
ATOM      2  O   UNL d   1     -40.459  13.889  19.033  0.00  0.00    -0.198 OA
ATOM      3  O   UNL d   1     -39.671  15.292  19.390  0.00  0.00    -0.198 OA
ENDROOT
BRANCH   1   4
ATOM      4  C   UNL d   1     -40.234  14.877  18.455  0.00  0.00     0.107 A 
ATOM      5  C   UNL d   1     -39.819  14.586  17.804  0.00  0.00     0.039 A 
ATOM      6  C   UNL d   1     -39.988  14.871  17.048  0.00  0.00     0.122 A 
ATOM      7  C   UNL d   1     -40.572  15.448  16.944  0.00  0.00     0.162 A 
ATOM      8  C   UNL d   1     -40.983  15.735  17.596  0.00  0.00     0.032 A 
ATOM      9  F   UNL d   1     -40.737  15.730  16.189  0.00  0.00    -0.202 F 
ATOM     10  C   UNL d   1     -40.818  15.453  18.351  0.00  0.00     0.015 A 
BRANCH   6  11
ATOM     11  O   UNL d   1     -39.573  14.581  16.397  0.00  0.00    -0.326 OA
ATOM     12  C   UNL d   1     -38.750  14.648  16.367  0.00  0.00     0.181 C 
ENDBRANCH   6  11
ENDBRANCH   1   4
BRANCH   1  13
ATOM     13  N   UNL d   1     -39.896  14.304  19.969  0.00  0.00    -0.157 NA
BRANCH  13  14
ATOM     14  C   UNL d   1     -39.137  14.390  20.282  0.00  0.00     0.112 C 
BRANCH  14  15
ATOM     15  C   UNL d   1     -38.944  14.020  20.995  0.00  0.00     0.020 A 
ATOM     16  C   UNL d   1     -38.277  13.534  21.042  0.00  0.00     0.002 A 
ATOM     17  C   UNL d   1     -38.085  13.163  21.761  0.00  0.00     0.000 A 
ATOM     18  C   UNL d   1     -38.559  13.281  22.427  0.00  0.00     0.000 A 
ATOM     19  C   UNL d   1     -39.226  13.767  22.380  0.00  0.00     0.000 A 
ATOM     20  C   UNL d   1     -39.419  14.137  21.668  0.00  0.00     0.002 A 
ENDBRANCH  14  15
ENDBRANCH  13  14
ENDBRANCH   1  13
TORSDOF 5
ENDMDL
MODEL 6
REMARK VINA RESULT:      -5.2      8.136     10.012
REMARK  5 active torsions:
REMARK  status: ('A' for Active; 'I' for Inactive)
REMARK    1  A    between atoms: C_2  and  S_1 
REMARK    2  A    between atoms: N_3  and  S_1 
REMARK    3  A    between atoms: C_11  and  N_3 
REMARK    4  A    between atoms: O_13  and  C_5 
REMARK    5  A    between atoms: C_14  and  C_11 
ROOT
ATOM      1  S   UNL d   1     -39.770  15.018  18.754  0.00  0.00     0.285 S 
ATOM      2  O   UNL d   1     -39.177  15.571  18.907  0.00  0.00    -0.198 OA
ATOM      3  O   UNL d   1     -40.360  14.465  18.599  0.00  0.00    -0.198 OA
ENDROOT
BRANCH   1   4
ATOM      4  C   UNL d   1     -40.088  15.151  19.503  0.00  0.00     0.107 A 
ATOM      5  C   UNL d   1     -39.899  14.644  20.126  0.00  0.00     0.039 A 
ATOM      6  C   UNL d   1     -40.217  14.778  20.875  0.00  0.00     0.122 A 
ATOM      7  C   UNL d   1     -40.724  15.418  21.002  0.00  0.00     0.162 A 
ATOM      8  C   UNL d   1     -40.910  15.922  20.379  0.00  0.00     0.032 A 
ATOM      9  F   UNL d   1     -41.039  15.548  21.751  0.00  0.00    -0.202 F 
ATOM     10  C   UNL d   1     -40.595  15.792  19.630  0.00  0.00     0.015 A 
BRANCH   6  11
ATOM     11  O   UNL d   1     -40.028  14.271  21.498  0.00  0.00    -0.326 OA
ATOM     12  C   UNL d   1     -39.243  14.042  21.622  0.00  0.00     0.181 C 
ENDBRANCH   6  11
ENDBRANCH   1   4
BRANCH   1  13
ATOM     13  N   UNL d   1     -39.450  14.885  18.001  0.00  0.00    -0.157 NA
BRANCH  13  14
ATOM     14  C   UNL d   1     -39.408  14.117  17.701  0.00  0.00     0.112 C 
BRANCH  14  15
ATOM     15  C   UNL d   1     -38.931  13.958  17.047  0.00  0.00     0.020 A 
ATOM     16  C   UNL d   1     -38.963  14.447  16.382  0.00  0.00     0.002 A 
ATOM     17  C   UNL d   1     -38.480  14.283  15.724  0.00  0.00     0.000 A 
ATOM     18  C   UNL d   1     -37.971  13.633  15.736  0.00  0.00     0.000 A 
ATOM     19  C   UNL d   1     -37.940  13.144  16.401  0.00  0.00     0.000 A 
ATOM     20  C   UNL d   1     -38.417  13.303  17.055  0.00  0.00     0.002 A 
ENDBRANCH  14  15
ENDBRANCH  13  14
ENDBRANCH   1  13
TORSDOF 5
ENDMDL
MODEL 7
REMARK VINA RESULT:      -5.1      8.612      9.005
REMARK  5 active torsions:
REMARK  status: ('A' for Active; 'I' for Inactive)
REMARK    1  A    between atoms: C_2  and  S_1 
REMARK    2  A    between atoms: N_3  and  S_1 
REMARK    3  A    between atoms: C_11  and  N_3 
REMARK    4  A    between atoms: O_13  and  C_5 
REMARK    5  A    between atoms: C_14  and  C_11 
ROOT
ATOM      1  S   UNL d   1     -39.916  15.443  20.402  0.00  0.00     0.285 S 
ATOM      2  O   UNL d   1     -40.662  15.172  20.627  0.00  0.00    -0.198 OA
ATOM      3  O   UNL d   1     -39.173  15.714  20.175  0.00  0.00    -0.198 OA
ENDROOT
BRANCH   1   4
ATOM      4  C   UNL d   1     -39.633  15.294  21.162  0.00  0.00     0.107 A 
ATOM      5  C   UNL d   1     -39.428  14.526  21.381  0.00  0.00     0.039 A 
ATOM      6  C   UNL d   1     -39.145  14.377  22.142  0.00  0.00     0.122 A 
ATOM      7  C   UNL d   1     -39.067  14.997  22.684  0.00  0.00     0.162 A 
ATOM      8  C   UNL d   1     -39.273  15.762  22.462  0.00  0.00     0.032 A 
ATOM      9  F   UNL d   1     -38.785  14.845  23.441  0.00  0.00    -0.202 F 
ATOM     10  C   UNL d   1     -39.556  15.914  21.704  0.00  0.00     0.015 A 
BRANCH   6  11
ATOM     11  O   UNL d   1     -38.939  13.609  22.361  0.00  0.00    -0.326 OA
ATOM     12  C   UNL d   1     -38.250  13.264  22.062  0.00  0.00     0.181 C 
ENDBRANCH   6  11
ENDBRANCH   1   4
BRANCH   1  13
ATOM     13  N   UNL d   1     -40.202  15.592  19.638  0.00  0.00    -0.157 NA
BRANCH  13  14
ATOM     14  C   UNL d   1     -40.334  14.965  19.118  0.00  0.00     0.112 C 
BRANCH  14  15
ATOM     15  C   UNL d   1     -40.465  15.117  18.318  0.00  0.00     0.020 A 
ATOM     16  C   UNL d   1     -40.963  15.734  18.089  0.00  0.00     0.002 A 
ATOM     17  C   UNL d   1     -41.092  15.884  17.281  0.00  0.00     0.000 A 
ATOM     18  C   UNL d   1     -40.724  15.417  16.709  0.00  0.00     0.000 A 
ATOM     19  C   UNL d   1     -40.225  14.799  16.938  0.00  0.00     0.000 A 
ATOM     20  C   UNL d   1     -40.095  14.647  17.738  0.00  0.00     0.002 A 
ENDBRANCH  14  15
ENDBRANCH  13  14
ENDBRANCH   1  13
TORSDOF 5
ENDMDL
