MODEL 1
REMARK VINA RESULT:      43.6      0.000      0.000
REMARK  2 active torsions:
REMARK  status: ('A' for Active; 'I' for Inactive)
REMARK    1  A    between atoms: C_9  and  C_4 
REMARK    2  A    between atoms: C_13  and  C_6 
ROOT
ATOM      1  N   UNL d   1     -55.930 -99.849 -44.247  0.00  0.00    -0.185 N 
ATOM      2  C   UNL d   1     -55.130 -99.750 -44.429  0.00  0.00     0.219 A 
ATOM      3  N   UNL d   1     -56.001-100.517 -43.783  0.00  0.00    -0.153 NA
ATOM      4  C   UNL d   1     -55.255-100.837 -43.671  0.00  0.00     0.156 A 
ATOM      5  S   UNL d   1     -54.714-100.364 -44.071  0.00  0.00    -0.024 SA
ATOM      6  C   UNL d   1     -56.349 -99.236 -44.604  0.00  0.00     0.187 A 
ATOM      7  N   UNL d   1     -55.809 -98.756 -45.009  0.00  0.00    -0.127 NA
ATOM      8  N   UNL d   1     -55.056 -99.077 -44.898  0.00  0.00    -0.120 NA
ENDROOT
BRANCH   6   9
ATOM      9  C   UNL d   1     -57.161 -99.116 -44.570  0.00  0.00     0.038 A 
ATOM     10  C   UNL d   1     -57.583 -98.930 -45.253  0.00  0.00     0.004 A 
ATOM     11  C   UNL d   1     -58.395 -98.810 -45.218  0.00  0.00     0.011 A 
ATOM     12  C   UNL d   1     -58.786 -98.877 -44.495  0.00  0.00     0.058 A 
ATOM     13  C   UNL d   1     -58.361 -99.064 -43.807  0.00  0.00     0.011 A 
ATOM     14 CL   UNL d   1     -59.604 -98.757 -44.454  0.00  0.00    -0.082 Cl
ATOM     15  C   UNL d   1     -57.553 -99.181 -43.855  0.00  0.00     0.004 A 
ENDBRANCH   6   9
BRANCH   4  16
ATOM     16  C   UNL d   1     -55.071-101.515 -43.236  0.00  0.00     0.126 A 
ATOM     17  O   UNL d   1     -55.047-101.563 -42.413  0.00  0.00    -0.298 OA
ATOM     18  C   UNL d   1     -54.841-102.336 -42.214  0.00  0.00     0.134 A 
ATOM     19 BR   UNL d   1     -54.752-102.636 -41.454  0.00  0.00    -0.022 Br
ATOM     20  C   UNL d   1     -54.737-102.768 -42.914  0.00  0.00     0.034 A 
ATOM     21  C   UNL d   1     -54.879-102.259 -43.546  0.00  0.00     0.029 A 
ENDBRANCH   4  16
TORSDOF 2
ENDMDL
MODEL 2
REMARK VINA RESULT:      45.9      3.729      4.983
REMARK  2 active torsions:
REMARK  status: ('A' for Active; 'I' for Inactive)
REMARK    1  A    between atoms: C_9  and  C_4 
REMARK    2  A    between atoms: C_13  and  C_6 
ROOT
ATOM      1  N   UNL d   1     -58.488 -98.964 -44.766  0.00  0.00    -0.185 N 
ATOM      2  C   UNL d   1     -59.284 -98.943 -44.543  0.00  0.00     0.219 A 
ATOM      3  N   UNL d   1     -58.457 -99.090 -45.572  0.00  0.00    -0.153 NA
ATOM      4  C   UNL d   1     -59.223 -99.148 -45.857  0.00  0.00     0.156 A 
ATOM      5  S   UNL d   1     -59.737 -99.057 -45.222  0.00  0.00    -0.024 SA
ATOM      6  C   UNL d   1     -58.032 -98.851 -44.089  0.00  0.00     0.187 A 
ATOM      7  N   UNL d   1     -58.544 -98.758 -43.445  0.00  0.00    -0.127 NA
ATOM      8  N   UNL d   1     -59.317 -98.816 -43.730  0.00  0.00    -0.120 NA
ENDROOT
BRANCH   6   9
ATOM      9  C   UNL d   1     -57.212 -98.831 -44.052  0.00  0.00     0.038 A 
ATOM     10  C   UNL d   1     -56.829 -98.792 -43.323  0.00  0.00     0.004 A 
ATOM     11  C   UNL d   1     -56.008 -98.773 -43.287  0.00  0.00     0.011 A 
ATOM     12  C   UNL d   1     -55.569 -98.793 -43.985  0.00  0.00     0.058 A 
ATOM     13  C   UNL d   1     -55.954 -98.833 -44.719  0.00  0.00     0.011 A 
ATOM     14 CL   UNL d   1     -54.742 -98.774 -43.954  0.00  0.00    -0.082 Cl
ATOM     15  C   UNL d   1     -56.772 -98.851 -44.742  0.00  0.00     0.004 A 
ENDBRANCH   6   9
BRANCH   4  16
ATOM     16  C   UNL d   1     -59.448 -99.275 -46.642  0.00  0.00     0.126 A 
ATOM     17  O   UNL d   1     -59.310 -98.755 -47.269  0.00  0.00    -0.298 OA
ATOM     18  C   UNL d   1     -59.624 -99.098 -47.949  0.00  0.00     0.134 A 
ATOM     19 BR   UNL d   1     -59.613 -98.777 -48.706  0.00  0.00    -0.022 Br
ATOM     20  C   UNL d   1     -59.957 -99.830 -47.745  0.00  0.00     0.034 A 
ATOM     21  C   UNL d   1     -59.848 -99.938 -46.935  0.00  0.00     0.029 A 
ENDBRANCH   4  16
TORSDOF 2
ENDMDL
