MODEL 1
REMARK VINA RESULT:      38.2      0.000      0.000
REMARK  4 active torsions:
REMARK  status: ('A' for Active; 'I' for Inactive)
REMARK    1  A    between atoms: N_7  and  C_3 
REMARK       I    between atoms: C_8  and  N_7 
REMARK    2  A    between atoms: C_10  and  C_8 
REMARK    3  A    between atoms: C_12  and  C_10 
REMARK    4  A    between atoms: C_16  and  C_12 
ROOT
ATOM      1  N   UNL d   1     -54.712-101.669 -42.474  0.00  0.00    -0.190 NA
ATOM      2  C   UNL d   1     -55.195-102.305 -42.276  0.00  0.00     0.281 C 
ATOM      3  O   UNL d   1     -55.763-102.573 -42.810  0.00  0.00    -0.265 OA
ENDROOT
BRANCH   1   4
ATOM      4  C   UNL d   1     -54.795-101.298 -43.208  0.00  0.00     0.159 A 
ATOM      5  N   UNL d   1     -54.904-101.745 -43.889  0.00  0.00    -0.241 N 
ATOM      6  C   UNL d   1     -54.987-101.377 -44.614  0.00  0.00     0.343 A 
ATOM      7  C   UNL d   1     -54.930-102.568 -43.839  0.00  0.00     0.105 C 
ATOM      8  N   UNL d   1     -54.961-100.554 -44.664  0.00  0.00    -0.224 N 
ATOM      9  O   UNL d   1     -55.096-101.828 -45.298  0.00  0.00    -0.245 OA
ATOM     10  C   UNL d   1     -54.853-100.090 -43.989  0.00  0.00     0.271 A 
ATOM     11  C   UNL d   1     -55.045-100.182 -45.397  0.00  0.00     0.107 C 
ATOM     12  C   UNL d   1     -54.770-100.475 -43.258  0.00  0.00     0.099 A 
ATOM     13  O   UNL d   1     -54.828 -99.275 -44.039  0.00  0.00    -0.266 OA
ENDBRANCH   1   4
BRANCH   2  14
ATOM     14  C   UNL d   1     -55.110-102.673 -41.545  0.00  0.00     0.063 C 
BRANCH  14  15
ATOM     15  C   UNL d   1     -54.931-102.226 -40.882  0.00  0.00     0.005 C 
BRANCH  15  16
ATOM     16  C   UNL d   1     -55.215-102.440 -40.151  0.00  0.00     0.000 A 
ATOM     17  C   UNL d   1     -56.020-102.615 -40.066  0.00  0.00     0.000 A 
ATOM     18  C   UNL d   1     -56.320-102.836 -39.317  0.00  0.00     0.000 A 
ATOM     19  C   UNL d   1     -55.817-102.876 -38.682  0.00  0.00     0.000 A 
ATOM     20  C   UNL d   1     -55.013-102.702 -38.764  0.00  0.00     0.000 A 
ATOM     21  C   UNL d   1     -54.714-102.482 -39.510  0.00  0.00     0.000 A 
ENDBRANCH  15  16
ENDBRANCH  14  15
ENDBRANCH   2  14
TORSDOF 4
ENDMDL
