MODEL 1
REMARK VINA RESULT:      57.5      0.000      0.000
REMARK  10 active torsions:
REMARK  status: ('A' for Active; 'I' for Inactive)
REMARK    1  A    between atoms: C_16  and  N_1 
REMARK    2  A    between atoms: S_10  and  C_2 
REMARK    3  A    between atoms: N_8  and  C_9 
REMARK    4  A    between atoms: C_18  and  S_10 
REMARK    5  A    between atoms: C_12  and  C_18 
REMARK       I    between atoms: N_19  and  C_12 
REMARK    6  A    between atoms: C_27  and  C_16 
REMARK    7  A    between atoms: C_25  and  N_19 
REMARK    8  A    between atoms: O_22  and  C_26 
REMARK    9  A    between atoms: C_26  and  C_25 
REMARK   10  A    between atoms: C_29  and  C_27 
ROOT
ATOM      1  N   UNL d   1      14.509  15.963  -3.547  0.00  0.00    -0.253 N 
ATOM      2  C   UNL d   1      14.154  15.399  -4.045  0.00  0.00     0.182 A 
ATOM      3  C   UNL d   1      14.600  16.739  -3.796  0.00  0.00     0.268 A 
ATOM      4  C   UNL d   1      14.331  16.949  -4.551  0.00  0.00     0.076 A 
ATOM      5  N   UNL d   1      13.891  15.614  -4.789  0.00  0.00    -0.222 NA
ATOM      6  C   UNL d   1      13.979  16.390  -5.043  0.00  0.00     0.088 A 
ATOM      7  C   UNL d   1      14.424  17.722  -4.791  0.00  0.00     0.024 A 
ATOM      8  C   UNL d   1      14.158  17.951  -5.550  0.00  0.00     0.065 A 
ATOM      9  O   UNL d   1      14.952  17.298  -3.303  0.00  0.00    -0.267 OA
ATOM     10  C   UNL d   1      13.716  16.608  -5.790  0.00  0.00     0.021 A 
ATOM     11  C   UNL d   1      13.804  17.379  -6.039  0.00  0.00     0.019 A 
ENDROOT
BRANCH   2  12
ATOM     12  S   UNL d   1      14.068  14.611  -3.778  0.00  0.00    -0.044 SA
BRANCH  12  13
ATOM     13  C   UNL d   1      13.661  14.067  -4.245  0.00  0.00     0.101 C 
BRANCH  13  14
ATOM     14  C   UNL d   1      13.425  13.336  -3.936  0.00  0.00     0.286 C 
ATOM     15  O   UNL d   1      12.769  12.952  -4.228  0.00  0.00    -0.265 OA
ATOM     16  N   UNL d   1      13.854  12.984  -3.323  0.00  0.00    -0.204 NA
BRANCH  16  17
ATOM     17  C   UNL d   1      13.619  12.243  -3.006  0.00  0.00     0.129 C 
BRANCH  17  18
ATOM     18  C   UNL d   1      14.168  11.789  -2.620  0.00  0.00     0.137 C 
BRANCH  18  19
ATOM     19  O   UNL d   1      14.204  11.810  -1.798  0.00  0.00    -0.325 OA
ATOM     20  C   UNL d   1      13.511  11.779  -1.358  0.00  0.00     0.182 C 
ENDBRANCH  18  19
ENDBRANCH  17  18
ENDBRANCH  16  17
ENDBRANCH  13  14
ENDBRANCH  12  13
ENDBRANCH   2  12
BRANCH   1  21
ATOM     21  C   UNL d   1      14.775  15.733  -2.788  0.00  0.00     0.085 C 
BRANCH  21  22
ATOM     22  C   UNL d   1      14.761  16.273  -2.177  0.00  0.00     0.019 C 
BRANCH  22  23
ATOM     23  C   UNL d   1      14.828  16.017  -1.400  0.00  0.00     0.002 C 
ATOM     24  C   UNL d   1      15.336  16.412  -0.873  0.00  0.00     0.000 C 
ENDBRANCH  22  23
ENDBRANCH  21  22
ENDBRANCH   1  21
BRANCH   8  25
ATOM     25  N   UNL d   1      14.246  18.728  -5.805  0.00  0.00    -0.300 N 
ATOM     26  C   UNL d   1      14.984  19.097  -5.729  0.00  0.00     0.107 A 
ATOM     27  C   UNL d   1      15.068  19.880  -5.987  0.00  0.00     0.142 A 
ATOM     28  O   UNL d   1      14.424  20.289  -6.317  0.00  0.00    -0.300 OA
ATOM     29  C   UNL d   1      13.691  19.910  -6.387  0.00  0.00     0.142 A 
ATOM     30  C   UNL d   1      13.592  19.128  -6.134  0.00  0.00     0.107 A 
ENDBRANCH   8  25
TORSDOF 10
ENDMDL
