MODEL 1
REMARK VINA RESULT:     -10.4      0.000      0.000
REMARK  5 active torsions:
REMARK  status: ('A' for Active; 'I' for Inactive)
REMARK    1  A    between atoms: C_4  and  C_1 
REMARK    2  A    between atoms: N_5  and  C_2 
REMARK       I    between atoms: N_9  and  C_4 
REMARK       I    between atoms: C_7  and  N_5 
REMARK    3  A    between atoms: C_10  and  C_7 
REMARK    4  A    between atoms: C_21  and  N_9 
REMARK    5  A    between atoms: O_29  and  C_22 
ROOT
ATOM      1  C   UNL d   1      52.832  33.939  54.071  0.00  0.00     0.175 A 
ATOM      2  C   UNL d   1      53.282  33.281  54.311  0.00  0.00     0.114 A 
ATOM      3  O   UNL d   1      53.253  34.618  54.299  0.00  0.00    -0.301 OA
ATOM      4  C   UNL d   1      53.960  33.557  54.677  0.00  0.00     0.043 A 
ATOM      5  C   UNL d   1      53.945  34.384  54.671  0.00  0.00     0.102 A 
ATOM      6  C   UNL d   1      54.599  33.160  55.020  0.00  0.00     0.004 A 
ATOM      7  C   UNL d   1      54.563  34.808  55.005  0.00  0.00     0.025 A 
ATOM      8  C   UNL d   1      55.221  33.591  55.356  0.00  0.00     0.000 A 
ATOM      9  C   UNL d   1      55.198  34.419  55.346  0.00  0.00     0.002 A 
ENDROOT
BRANCH   2  10
ATOM     10  N   UNL d   1      53.073  32.485  54.196  0.00  0.00    -0.206 NA
ATOM     11  C   UNL d   1      53.480  32.031  53.641  0.00  0.00     0.279 C 
ATOM     12  O   UNL d   1      54.093  32.363  53.201  0.00  0.00    -0.265 OA
BRANCH  11  13
ATOM     13  C   UNL d   1      53.273  31.243  53.528  0.00  0.00     0.060 A 
ATOM     14  C   UNL d   1      53.413  30.694  54.120  0.00  0.00     0.031 A 
ATOM     15  C   UNL d   1      53.207  29.912  54.007  0.00  0.00     0.119 A 
ATOM     16  O   UNL d   1      53.277  29.243  54.491  0.00  0.00    -0.300 OA
ATOM     17  C   UNL d   1      52.858  29.679  53.297  0.00  0.00     0.119 A 
ATOM     18  C   UNL d   1      52.969  28.597  54.075  0.00  0.00     0.304 A 
ATOM     19  O   UNL d   1      52.712  28.871  53.340  0.00  0.00    -0.300 OA
ATOM     20  C   UNL d   1      52.717  30.229  52.705  0.00  0.00     0.026 A 
ATOM     21  C   UNL d   1      52.931  31.021  52.829  0.00  0.00     0.007 A 
ENDBRANCH  11  13
ENDBRANCH   2  10
BRANCH   1  22
ATOM     22  C   UNL d   1      52.105  33.919  53.679  0.00  0.00     0.303 C 
ATOM     23  N   UNL d   1      51.982  34.396  53.024  0.00  0.00    -0.206 NA
ATOM     24  O   UNL d   1      51.504  33.418  53.951  0.00  0.00    -0.263 OA
BRANCH  23  25
ATOM     25  C   UNL d   1      51.256  34.379  52.630  0.00  0.00     0.085 A 
ATOM     26  C   UNL d   1      51.238  34.157  51.835  0.00  0.00     0.021 A 
ATOM     27  C   UNL d   1      50.514  34.137  51.432  0.00  0.00     0.026 A 
ATOM     28  C   UNL d   1      49.817  34.340  51.833  0.00  0.00     0.094 A 
ATOM     29  C   UNL d   1      49.845  34.560  52.624  0.00  0.00     0.026 A 
ATOM     30  C   UNL d   1      50.574  34.578  53.022  0.00  0.00     0.021 A 
BRANCH  28  31
ATOM     31  O   UNL d   1      49.096  34.322  51.438  0.00  0.00    -0.328 OA
ATOM     32  C   UNL d   1      48.594  34.976  51.476  0.00  0.00     0.181 C 
ENDBRANCH  28  31
ENDBRANCH  23  25
ENDBRANCH   1  22
TORSDOF 5
ENDMDL
