MODEL 1
REMARK VINA RESULT:      49.3      0.000      0.000
REMARK  3 active torsions:
REMARK  status: ('A' for Active; 'I' for Inactive)
REMARK    1  A    between atoms: N_5  and  C_1 
REMARK    2  A    between atoms: C_9  and  C_2 
REMARK       I    between atoms: C_8  and  N_5 
REMARK    3  A    between atoms: C_13  and  C_8 
ROOT
ATOM      1  C   UNL d   1      46.048 -17.558  43.351  0.00  0.00     0.156 A 
ATOM      2  C   UNL d   1      46.049 -18.030  42.672  0.00  0.00     0.091 A 
ATOM      3  N   UNL d   1      46.195 -17.900  44.092  0.00  0.00    -0.289 N 
ATOM      4  C   UNL d   1      46.198 -18.844  42.735  0.00  0.00     0.201 A 
ATOM      5  C   UNL d   1      46.345 -19.181  43.473  0.00  0.00     0.055 A 
ATOM      6  C   UNL d   1      46.343 -18.709  44.152  0.00  0.00     0.069 A 
ATOM      7  O   UNL d   1      46.200 -19.316  42.056  0.00  0.00    -0.286 OA
ATOM      8  C   UNL d   1      46.194 -17.427  44.770  0.00  0.00     0.101 C 
ATOM      9  C   UNL d   1      46.493 -19.990  43.533  0.00  0.00     0.005 A 
ATOM     10  C   UNL d   1      46.490 -19.046  44.890  0.00  0.00     0.018 A 
ATOM     11  C   UNL d   1      46.641 -20.330  44.282  0.00  0.00     0.000 A 
ATOM     12  C   UNL d   1      46.639 -19.862  44.955  0.00  0.00     0.002 A 
ENDROOT
BRANCH   1  13
ATOM     13  N   UNL d   1      45.898 -16.735  43.297  0.00  0.00    -0.190 NA
ATOM     14  C   UNL d   1      45.827 -16.254  43.966  0.00  0.00     0.280 C 
ATOM     15  O   UNL d   1      45.908 -16.603  44.709  0.00  0.00    -0.265 OA
BRANCH  14  16
ATOM     16  C   UNL d   1      45.680 -15.445  43.906  0.00  0.00     0.058 A 
ATOM     17  C   UNL d   1      44.911 -15.161  44.019  0.00  0.00     0.005 A 
ATOM     18  C   UNL d   1      44.763 -14.353  43.959  0.00  0.00     0.000 A 
ATOM     19  C   UNL d   1      45.381 -13.834  43.787  0.00  0.00     0.000 A 
ATOM     20  C   UNL d   1      46.147 -14.125  43.675  0.00  0.00     0.000 A 
ATOM     21  C   UNL d   1      46.294 -14.934  43.736  0.00  0.00     0.005 A 
ENDBRANCH  14  16
ENDBRANCH   1  13
BRANCH   2  22
ATOM     22  C   UNL d   1      45.903 -17.693  41.933  0.00  0.00     0.087 A 
ATOM     23  N   UNL d   1      45.127 -17.577  41.682  0.00  0.00    -0.244 NA
ATOM     24  C   UNL d   1      44.977 -17.236  40.935  0.00  0.00     0.099 A 
ATOM     25  C   UNL d   1      45.620 -17.015  40.450  0.00  0.00     0.021 A 
ATOM     26  C   UNL d   1      46.391 -17.132  40.707  0.00  0.00     0.003 A 
ATOM     27  C   UNL d   1      46.534 -17.471  41.447  0.00  0.00     0.019 A 
ENDBRANCH   2  22
TORSDOF 3
ENDMDL
