MODEL 1
REMARK VINA RESULT:      -4.0      0.000      0.000
REMARK  6 active torsions:
REMARK  status: ('A' for Active; 'I' for Inactive)
REMARK    1  A    between atoms: C_6  and  N_2 
REMARK    2  A    between atoms: C_7  and  C_3 
REMARK    3  A    between atoms: C_8  and  C_6 
REMARK    4  A    between atoms: C_14  and  C_8 
REMARK    5  A    between atoms: C_9  and  O_12 
REMARK    6  A    between atoms: O_12  and  C_14 
ROOT
ATOM      1  N   UNL d   1     -41.770-121.503 -53.677  0.00  0.00    -0.224 NA
ATOM      2  N   UNL d   1     -41.370-122.401 -52.770  0.00  0.00    -0.286 N 
ATOM      3  C   UNL d   1     -41.520-121.585 -52.882  0.00  0.00     0.191 A 
ATOM      4  C   UNL d   1     -41.522-122.801 -53.467  0.00  0.00     0.083 A 
ATOM      5  C   UNL d   1     -41.781-122.220 -54.054  0.00  0.00     0.099 A 
ATOM      6  C   UNL d   1     -41.466-123.591 -53.656  0.00  0.00     0.019 A 
ATOM      7  C   UNL d   1     -41.963-122.525 -54.809  0.00  0.00     0.021 A 
ATOM      8  C   UNL d   1     -41.660-123.814 -54.410  0.00  0.00     0.002 A 
ATOM      9  C   UNL d   1     -41.901-123.272 -54.958  0.00  0.00     0.002 A 
ENDROOT
BRANCH   2  10
ATOM     10  C   UNL d   1     -41.123-122.586 -52.033  0.00  0.00     0.084 C 
BRANCH  10  11
ATOM     11  C   UNL d   1     -41.537-123.101 -51.540  0.00  0.00     0.046 C 
BRANCH  11  12
ATOM     12  C   UNL d   1     -41.307-123.276 -50.774  0.00  0.00     0.124 C 
BRANCH  12  13
ATOM     13  O   UNL d   1     -41.697-123.817 -50.303  0.00  0.00    -0.305 OA
BRANCH  13  14
ATOM     14  C   UNL d   1     -41.882-123.680 -49.512  0.00  0.00     0.100 A 
ATOM     15  C   UNL d   1     -42.636-123.478 -49.247  0.00  0.00     0.025 A 
ATOM     16  C   UNL d   1     -42.820-123.341 -48.457  0.00  0.00     0.002 A 
ATOM     17  C   UNL d   1     -42.207-123.411 -47.890  0.00  0.00     0.000 A 
ATOM     18  C   UNL d   1     -41.433-123.614 -48.133  0.00  0.00     0.002 A 
ATOM     19  C   UNL d   1     -41.269-123.749 -48.945  0.00  0.00     0.025 A 
ENDBRANCH  13  14
ENDBRANCH  12  13
ENDBRANCH  11  12
ENDBRANCH  10  11
ENDBRANCH   2  10
BRANCH   3  20
ATOM     20  C   UNL d   1     -41.326-121.361 -52.128  0.00  0.00     0.271 C 
ATOM     21  O   UNL d   1     -41.223-120.544 -51.961  0.00  0.00    -0.280 OA
ENDBRANCH   3  20
TORSDOF 6
ENDMDL
MODEL 2
REMARK VINA RESULT:      -3.9      1.549      4.734
REMARK  6 active torsions:
REMARK  status: ('A' for Active; 'I' for Inactive)
REMARK    1  A    between atoms: C_6  and  N_2 
REMARK    2  A    between atoms: C_7  and  C_3 
REMARK    3  A    between atoms: C_8  and  C_6 
REMARK    4  A    between atoms: C_14  and  C_8 
REMARK    5  A    between atoms: C_9  and  O_12 
REMARK    6  A    between atoms: O_12  and  C_14 
ROOT
ATOM      1  N   UNL d   1     -43.322-122.899 -49.044  0.00  0.00    -0.224 NA
ATOM      2  N   UNL d   1     -42.325-122.719 -49.918  0.00  0.00    -0.286 N 
ATOM      3  C   UNL d   1     -43.144-122.587 -49.800  0.00  0.00     0.191 A 
ATOM      4  C   UNL d   1     -42.016-123.095 -49.261  0.00  0.00     0.083 A 
ATOM      5  C   UNL d   1     -42.660-123.212 -48.696  0.00  0.00     0.099 A 
ATOM      6  C   UNL d   1     -41.260-123.347 -49.093  0.00  0.00     0.019 A 
ATOM      7  C   UNL d   1     -42.451-123.592 -47.983  0.00  0.00     0.021 A 
ATOM      8  C   UNL d   1     -41.131-123.708 -48.380  0.00  0.00     0.002 A 
ATOM      9  C   UNL d   1     -41.733-123.817 -47.852  0.00  0.00     0.002 A 
ENDROOT
BRANCH   2  10
ATOM     10  C   UNL d   1     -42.053-122.453 -50.621  0.00  0.00     0.084 C 
BRANCH  10  11
ATOM     11  C   UNL d   1     -41.532-122.888 -51.090  0.00  0.00     0.046 C 
BRANCH  11  12
ATOM     12  C   UNL d   1     -41.332-122.679 -51.856  0.00  0.00     0.124 C 
BRANCH  12  13
ATOM     13  O   UNL d   1     -41.123-123.223 -52.427  0.00  0.00    -0.305 OA
BRANCH  13  14
ATOM     14  C   UNL d   1     -41.253-123.109 -53.233  0.00  0.00     0.100 A 
ATOM     15  C   UNL d   1     -41.270-123.720 -53.786  0.00  0.00     0.025 A 
ATOM     16  C   UNL d   1     -41.400-123.605 -54.590  0.00  0.00     0.002 A 
ATOM     17  C   UNL d   1     -41.522-122.822 -54.863  0.00  0.00     0.000 A 
ATOM     18  C   UNL d   1     -41.510-122.184 -54.322  0.00  0.00     0.002 A 
ATOM     19  C   UNL d   1     -41.375-122.326 -53.506  0.00  0.00     0.025 A 
ENDBRANCH  13  14
ENDBRANCH  12  13
ENDBRANCH  11  12
ENDBRANCH  10  11
ENDBRANCH   2  10
BRANCH   3  20
ATOM     20  C   UNL d   1     -43.273-122.225 -50.513  0.00  0.00     0.271 C 
ATOM     21  O   UNL d   1     -44.020-121.871 -50.660  0.00  0.00    -0.280 OA
ENDBRANCH   3  20
TORSDOF 6
ENDMDL
