MODEL 1
REMARK VINA RESULT:      -2.9      0.000      0.000
REMARK  2 active torsions:
REMARK  status: ('A' for Active; 'I' for Inactive)
REMARK    1  A    between atoms: C_6  and  C_1 
REMARK    2  A    between atoms: O_16  and  C_13 
ROOT
ATOM      1  C   UNL d   1      30.899  16.496 -23.809  0.00  0.00     0.148 A 
ATOM      2  N   UNL d   1      30.106  16.623 -23.930  0.00  0.00    -0.289 N 
ATOM      3  N   UNL d   1      30.989  15.785 -23.414  0.00  0.00    -0.225 NA
ATOM      4  C   UNL d   1      29.672  15.989 -23.611  0.00  0.00     0.085 A 
ATOM      5  C   UNL d   1      30.238  15.465 -23.288  0.00  0.00     0.118 A 
ATOM      6  C   UNL d   1      29.672  17.270 -24.312  0.00  0.00     0.082 A 
ATOM      7  C   UNL d   1      28.860  15.967 -23.652  0.00  0.00     0.019 A 
ATOM      8  C   UNL d   1      28.860  17.248 -24.352  0.00  0.00     0.019 A 
ATOM      9  C   UNL d   1      28.426  16.577 -24.014  0.00  0.00     0.003 A 
ENDROOT
BRANCH   1  10
ATOM     10  C   UNL d   1      31.465  17.054 -24.077  0.00  0.00     0.035 A 
ATOM     11  C   UNL d   1      31.714  17.675 -23.585  0.00  0.00     0.005 A 
ATOM     12  C   UNL d   1      32.267  18.217 -23.854  0.00  0.00     0.024 A 
ATOM     13  C   UNL d   1      32.580  18.151 -24.613  0.00  0.00     0.094 A 
ATOM     14  C   UNL d   1      32.338  17.545 -25.097  0.00  0.00     0.024 A 
ATOM     15  C   UNL d   1      31.774  16.987 -24.833  0.00  0.00     0.005 A 
BRANCH  13  16
ATOM     16  O   UNL d   1      33.153  18.700 -24.914  0.00  0.00    -0.328 OA
ATOM     17  C   UNL d   1      33.236  19.448 -24.578  0.00  0.00     0.181 C 
ENDBRANCH  13  16
ENDBRANCH   1  10
TORSDOF 2
ENDMDL
MODEL 2
REMARK VINA RESULT:      -2.7      1.048      1.144
REMARK  2 active torsions:
REMARK  status: ('A' for Active; 'I' for Inactive)
REMARK    1  A    between atoms: C_6  and  C_1 
REMARK    2  A    between atoms: O_16  and  C_13 
ROOT
ATOM      1  C   UNL d   1      31.318  16.583 -24.585  0.00  0.00     0.148 A 
ATOM      2  N   UNL d   1      30.508  16.642 -24.591  0.00  0.00    -0.289 N 
ATOM      3  N   UNL d   1      31.526  15.855 -24.893  0.00  0.00    -0.225 NA
ATOM      4  C   UNL d   1      30.182  15.944 -24.907  0.00  0.00     0.085 A 
ATOM      5  C   UNL d   1      30.833  15.454 -25.095  0.00  0.00     0.118 A 
ATOM      6  C   UNL d   1      29.967  17.272 -24.338  0.00  0.00     0.082 A 
ATOM      7  C   UNL d   1      29.379  15.846 -24.981  0.00  0.00     0.019 A 
ATOM      8  C   UNL d   1      29.164  17.173 -24.411  0.00  0.00     0.019 A 
ATOM      9  C   UNL d   1      28.844  16.438 -24.744  0.00  0.00     0.003 A 
ENDROOT
BRANCH   1  10
ATOM     10  C   UNL d   1      31.787  17.215 -24.292  0.00  0.00     0.035 A 
ATOM     11  C   UNL d   1      32.045  17.220 -23.503  0.00  0.00     0.005 A 
ATOM     12  C   UNL d   1      32.503  17.839 -23.223  0.00  0.00     0.024 A 
ATOM     13  C   UNL d   1      32.711  18.461 -23.722  0.00  0.00     0.094 A 
ATOM     14  C   UNL d   1      32.460  18.459 -24.494  0.00  0.00     0.024 A 
ATOM     15  C   UNL d   1      31.992  17.832 -24.790  0.00  0.00     0.005 A 
BRANCH  13  16
ATOM     16  O   UNL d   1      33.184  19.114 -23.456  0.00  0.00    -0.328 OA
ATOM     17  C   UNL d   1      33.112  19.399 -22.686  0.00  0.00     0.181 C 
ENDBRANCH  13  16
ENDBRANCH   1  10
TORSDOF 2
ENDMDL
MODEL 3
REMARK VINA RESULT:      -2.6      1.689      3.600
REMARK  2 active torsions:
REMARK  status: ('A' for Active; 'I' for Inactive)
REMARK    1  A    between atoms: C_6  and  C_1 
REMARK    2  A    between atoms: O_16  and  C_13 
ROOT
ATOM      1  C   UNL d   1      31.340  16.159 -24.311  0.00  0.00     0.148 A 
ATOM      2  N   UNL d   1      31.805  16.794 -24.114  0.00  0.00    -0.289 N 
ATOM      3  N   UNL d   1      31.806  15.605 -24.692  0.00  0.00    -0.225 NA
ATOM      4  C   UNL d   1      32.585  16.656 -24.370  0.00  0.00     0.085 A 
ATOM      5  C   UNL d   1      32.575  15.902 -24.733  0.00  0.00     0.118 A 
ATOM      6  C   UNL d   1      31.630  17.541 -23.709  0.00  0.00     0.082 A 
ATOM      7  C   UNL d   1      33.175  17.201 -24.247  0.00  0.00     0.019 A 
ATOM      8  C   UNL d   1      32.221  18.087 -23.587  0.00  0.00     0.019 A 
ATOM      9  C   UNL d   1      33.028  17.923 -23.861  0.00  0.00     0.003 A 
ENDROOT
BRANCH   1  10
ATOM     10  C   UNL d   1      30.523  16.154 -24.116  0.00  0.00     0.035 A 
ATOM     11  C   UNL d   1      30.259  15.819 -23.403  0.00  0.00     0.005 A 
ATOM     12  C   UNL d   1      29.461  15.817 -23.220  0.00  0.00     0.024 A 
ATOM     13  C   UNL d   1      28.914  16.148 -23.739  0.00  0.00     0.094 A 
ATOM     14  C   UNL d   1      29.168  16.477 -24.437  0.00  0.00     0.024 A 
ATOM     15  C   UNL d   1      29.981  16.484 -24.634  0.00  0.00     0.005 A 
BRANCH  13  16
ATOM     16  O   UNL d   1      28.082  16.159 -23.571  0.00  0.00    -0.328 OA
ATOM     17  C   UNL d   1      27.640  15.463 -23.589  0.00  0.00     0.181 C 
ENDBRANCH  13  16
ENDBRANCH   1  10
TORSDOF 2
ENDMDL
MODEL 4
REMARK VINA RESULT:      -2.5      1.305      1.919
REMARK  2 active torsions:
REMARK  status: ('A' for Active; 'I' for Inactive)
REMARK    1  A    between atoms: C_6  and  C_1 
REMARK    2  A    between atoms: O_16  and  C_13 
ROOT
ATOM      1  C   UNL d   1      29.860  17.129 -24.324  0.00  0.00     0.148 A 
ATOM      2  N   UNL d   1      29.333  16.678 -23.901  0.00  0.00    -0.289 N 
ATOM      3  N   UNL d   1      29.458  17.770 -24.635  0.00  0.00    -0.225 NA
ATOM      4  C   UNL d   1      28.579  17.027 -23.936  0.00  0.00     0.085 A 
ATOM      5  C   UNL d   1      28.668  17.716 -24.402  0.00  0.00     0.118 A 
ATOM      6  C   UNL d   1      29.427  15.942 -23.452  0.00  0.00     0.082 A 
ATOM      7  C   UNL d   1      27.939  16.695 -23.561  0.00  0.00     0.019 A 
ATOM      8  C   UNL d   1      28.786  15.609 -23.077  0.00  0.00     0.019 A 
ATOM      9  C   UNL d   1      28.008  15.989 -23.125  0.00  0.00     0.003 A 
ENDROOT
BRANCH   1  10
ATOM     10  C   UNL d   1      30.665  16.901 -24.380  0.00  0.00     0.035 A 
ATOM     11  C   UNL d   1      31.211  17.123 -23.794  0.00  0.00     0.005 A 
ATOM     12  C   UNL d   1      31.996  16.896 -23.855  0.00  0.00     0.024 A 
ATOM     13  C   UNL d   1      32.251  16.448 -24.497  0.00  0.00     0.094 A 
ATOM     14  C   UNL d   1      31.721  16.229 -25.072  0.00  0.00     0.024 A 
ATOM     15  C   UNL d   1      30.917  16.454 -25.020  0.00  0.00     0.005 A 
BRANCH  13  16
ATOM     16  O   UNL d   1      33.058  16.201 -24.583  0.00  0.00    -0.328 OA
ATOM     17  C   UNL d   1      33.241  15.461 -24.896  0.00  0.00     0.181 C 
ENDBRANCH  13  16
ENDBRANCH   1  10
TORSDOF 2
ENDMDL
MODEL 5
REMARK VINA RESULT:      -1.9      1.662      2.443
REMARK  2 active torsions:
REMARK  status: ('A' for Active; 'I' for Inactive)
REMARK    1  A    between atoms: C_6  and  C_1 
REMARK    2  A    between atoms: O_16  and  C_13 
ROOT
ATOM      1  C   UNL d   1      32.668  17.310 -24.014  0.00  0.00     0.148 A 
ATOM      2  N   UNL d   1      31.972  16.892 -23.994  0.00  0.00    -0.289 N 
ATOM      3  N   UNL d   1      33.167  16.956 -24.557  0.00  0.00    -0.225 NA
ATOM      4  C   UNL d   1      32.015  16.258 -24.530  0.00  0.00     0.085 A 
ATOM      5  C   UNL d   1      32.774  16.306 -24.880  0.00  0.00     0.118 A 
ATOM      6  C   UNL d   1      31.243  16.996 -23.536  0.00  0.00     0.082 A 
ATOM      7  C   UNL d   1      31.395  15.742 -24.629  0.00  0.00     0.019 A 
ATOM      8  C   UNL d   1      30.623  16.481 -23.634  0.00  0.00     0.019 A 
ATOM      9  C   UNL d   1      30.688  15.825 -24.199  0.00  0.00     0.003 A 
ENDROOT
BRANCH   1  10
ATOM     10  C   UNL d   1      32.774  17.983 -23.523  0.00  0.00     0.035 A 
ATOM     11  C   UNL d   1      32.538  18.737 -23.781  0.00  0.00     0.005 A 
ATOM     12  C   UNL d   1      32.644  19.389 -23.297  0.00  0.00     0.024 A 
ATOM     13  C   UNL d   1      32.984  19.304 -22.552  0.00  0.00     0.094 A 
ATOM     14  C   UNL d   1      33.216  18.569 -22.296  0.00  0.00     0.024 A 
ATOM     15  C   UNL d   1      33.113  17.896 -22.782  0.00  0.00     0.005 A 
BRANCH  13  16
ATOM     16  O   UNL d   1      33.104  19.964 -22.032  0.00  0.00    -0.328 OA
ATOM     17  C   UNL d   1      32.745  19.986 -21.291  0.00  0.00     0.181 C 
ENDBRANCH  13  16
ENDBRANCH   1  10
TORSDOF 2
ENDMDL
MODEL 6
REMARK VINA RESULT:      -1.7      2.229      4.000
REMARK  2 active torsions:
REMARK  status: ('A' for Active; 'I' for Inactive)
REMARK    1  A    between atoms: C_6  and  C_1 
REMARK    2  A    between atoms: O_16  and  C_13 
ROOT
ATOM      1  C   UNL d   1      32.791  18.834 -23.017  0.00  0.00     0.148 A 
ATOM      2  N   UNL d   1      32.921  19.443 -23.538  0.00  0.00    -0.289 N 
ATOM      3  N   UNL d   1      32.858  19.127 -22.256  0.00  0.00    -0.225 NA
ATOM      4  C   UNL d   1      33.075  20.142 -23.114  0.00  0.00     0.085 A 
ATOM      5  C   UNL d   1      33.033  19.932 -22.306  0.00  0.00     0.118 A 
ATOM      6  C   UNL d   1      32.925  19.477 -24.405  0.00  0.00     0.082 A 
ATOM      7  C   UNL d   1      33.226  20.845 -23.494  0.00  0.00     0.019 A 
ATOM      8  C   UNL d   1      33.076  20.180 -24.785  0.00  0.00     0.019 A 
ATOM      9  C   UNL d   1      33.234  20.898 -24.324  0.00  0.00     0.003 A 
ENDROOT
BRANCH   1  10
ATOM     10  C   UNL d   1      32.622  18.062 -23.299  0.00  0.00     0.035 A 
ATOM     11  C   UNL d   1      31.857  17.863 -23.556  0.00  0.00     0.005 A 
ATOM     12  C   UNL d   1      31.699  17.107 -23.830  0.00  0.00     0.024 A 
ATOM     13  C   UNL d   1      32.296  16.540 -23.854  0.00  0.00     0.094 A 
ATOM     14  C   UNL d   1      33.044  16.731 -23.604  0.00  0.00     0.024 A 
ATOM     15  C   UNL d   1      33.217  17.499 -23.322  0.00  0.00     0.005 A 
BRANCH  13  16
ATOM     16  O   UNL d   1      32.157  15.751 -24.134  0.00  0.00    -0.328 OA
ATOM     17  C   UNL d   1      31.390  15.453 -24.188  0.00  0.00     0.181 C 
ENDBRANCH  13  16
ENDBRANCH   1  10
TORSDOF 2
ENDMDL
MODEL 7
REMARK VINA RESULT:      -1.5      5.892      7.419
REMARK  2 active torsions:
REMARK  status: ('A' for Active; 'I' for Inactive)
REMARK    1  A    between atoms: C_6  and  C_1 
REMARK    2  A    between atoms: O_16  and  C_13 
ROOT
ATOM      1  C   UNL d   1      32.468  22.228 -20.894  0.00  0.00     0.148 A 
ATOM      2  N   UNL d   1      32.710  22.614 -21.567  0.00  0.00    -0.289 N 
ATOM      3  N   UNL d   1      32.195  21.486 -21.106  0.00  0.00    -0.225 NA
ATOM      4  C   UNL d   1      32.596  22.119 -22.226  0.00  0.00     0.085 A 
ATOM      5  C   UNL d   1      32.270  21.410 -21.925  0.00  0.00     0.118 A 
ATOM      6  C   UNL d   1      33.046  23.403 -21.696  0.00  0.00     0.082 A 
ATOM      7  C   UNL d   1      32.790  22.361 -22.977  0.00  0.00     0.019 A 
ATOM      8  C   UNL d   1      33.241  23.645 -22.448  0.00  0.00     0.019 A 
ATOM      9  C   UNL d   1      33.113  23.114 -23.122  0.00  0.00     0.003 A 
ENDROOT
BRANCH   1  10
ATOM     10  C   UNL d   1      32.523  22.604 -20.146  0.00  0.00     0.035 A 
ATOM     11  C   UNL d   1      31.958  23.165 -19.911  0.00  0.00     0.005 A 
ATOM     12  C   UNL d   1      32.018  23.528 -19.179  0.00  0.00     0.024 A 
ATOM     13  C   UNL d   1      32.638  23.340 -18.670  0.00  0.00     0.094 A 
ATOM     14  C   UNL d   1      33.192  22.792 -18.897  0.00  0.00     0.024 A 
ATOM     15  C   UNL d   1      33.141  22.415 -19.642  0.00  0.00     0.005 A 
BRANCH  13  16
ATOM     16  O   UNL d   1      32.722  23.702 -17.907  0.00  0.00    -0.328 OA
ATOM     17  C   UNL d   1      32.285  23.431 -17.263  0.00  0.00     0.181 C 
ENDBRANCH  13  16
ENDBRANCH   1  10
TORSDOF 2
ENDMDL
MODEL 8
REMARK VINA RESULT:      -1.2      3.906      5.354
REMARK  2 active torsions:
REMARK  status: ('A' for Active; 'I' for Inactive)
REMARK    1  A    between atoms: C_6  and  C_1 
REMARK    2  A    between atoms: O_16  and  C_13 
ROOT
ATOM      1  C   UNL d   1      32.793  20.192 -21.897  0.00  0.00     0.148 A 
ATOM      2  N   UNL d   1      32.943  20.297 -22.688  0.00  0.00    -0.289 N 
ATOM      3  N   UNL d   1      32.732  19.390 -21.750  0.00  0.00    -0.225 NA
ATOM      4  C   UNL d   1      32.980  19.556 -23.064  0.00  0.00     0.085 A 
ATOM      5  C   UNL d   1      32.846  18.989 -22.463  0.00  0.00     0.118 A 
ATOM      6  C   UNL d   1      33.062  21.009 -23.169  0.00  0.00     0.082 A 
ATOM      7  C   UNL d   1      33.124  19.490 -23.861  0.00  0.00     0.019 A 
ATOM      8  C   UNL d   1      33.206  20.944 -23.967  0.00  0.00     0.019 A 
ATOM      9  C   UNL d   1      33.241  20.160 -24.339  0.00  0.00     0.003 A 
ENDROOT
BRANCH   1  10
ATOM     10  C   UNL d   1      32.727  20.854 -21.386  0.00  0.00     0.035 A 
ATOM     11  C   UNL d   1      32.146  21.434 -21.516  0.00  0.00     0.005 A 
ATOM     12  C   UNL d   1      32.087  22.078 -21.013  0.00  0.00     0.024 A 
ATOM     13  C   UNL d   1      32.603  22.156 -20.375  0.00  0.00     0.094 A 
ATOM     14  C   UNL d   1      33.172  21.591 -20.245  0.00  0.00     0.024 A 
ATOM     15  C   UNL d   1      33.241  20.930 -20.752  0.00  0.00     0.005 A 
BRANCH  13  16
ATOM     16  O   UNL d   1      32.562  22.814 -19.840  0.00  0.00    -0.328 OA
ATOM     17  C   UNL d   1      32.514  23.585 -20.125  0.00  0.00     0.181 C 
ENDBRANCH  13  16
ENDBRANCH   1  10
TORSDOF 2
ENDMDL
MODEL 9
REMARK VINA RESULT:      -1.1      3.742      5.483
REMARK  2 active torsions:
REMARK  status: ('A' for Active; 'I' for Inactive)
REMARK    1  A    between atoms: C_6  and  C_1 
REMARK    2  A    between atoms: O_16  and  C_13 
ROOT
ATOM      1  C   UNL d   1      33.009  21.359 -22.463  0.00  0.00     0.148 A 
ATOM      2  N   UNL d   1      32.706  21.673 -21.778  0.00  0.00    -0.289 N 
ATOM      3  N   UNL d   1      33.241  21.974 -22.949  0.00  0.00    -0.225 NA
ATOM      4  C   UNL d   1      32.740  22.504 -21.817  0.00  0.00     0.085 A 
ATOM      5  C   UNL d   1      33.079  22.684 -22.560  0.00  0.00     0.118 A 
ATOM      6  C   UNL d   1      32.376  21.306 -21.064  0.00  0.00     0.082 A 
ATOM      7  C   UNL d   1      32.473  22.969 -21.206  0.00  0.00     0.019 A 
ATOM      8  C   UNL d   1      32.109  21.772 -20.453  0.00  0.00     0.019 A 
ATOM      9  C   UNL d   1      32.153  22.636 -20.513  0.00  0.00     0.003 A 
ENDROOT
BRANCH   1  10
ATOM     10  C   UNL d   1      33.041  20.527 -22.570  0.00  0.00     0.035 A 
ATOM     11  C   UNL d   1      32.904  20.190 -23.317  0.00  0.00     0.005 A 
ATOM     12  C   UNL d   1      32.937  19.377 -23.414  0.00  0.00     0.024 A 
ATOM     13  C   UNL d   1      33.106  18.888 -22.774  0.00  0.00     0.094 A 
ATOM     14  C   UNL d   1      33.241  19.213 -22.042  0.00  0.00     0.024 A 
ATOM     15  C   UNL d   1      33.210  20.042 -21.931  0.00  0.00     0.005 A 
BRANCH  13  16
ATOM     16  O   UNL d   1      33.146  18.043 -22.849  0.00  0.00    -0.328 OA
ATOM     17  C   UNL d   1      32.591  17.635 -23.302  0.00  0.00     0.181 C 
ENDBRANCH  13  16
ENDBRANCH   1  10
TORSDOF 2
ENDMDL
