MODEL 1
REMARK VINA RESULT:     -10.3      0.000      0.000
REMARK  3 active torsions:
REMARK  status: ('A' for Active; 'I' for Inactive)
REMARK    1  A    between atoms: C_11  and  C_4 
REMARK       I    between atoms: C_6  and  N_8 
REMARK    2  A    between atoms: C_9  and  C_6 
REMARK    3  A    between atoms: N_8  and  C_19 
ROOT
ATOM      1  C   UNL d   1      52.498  33.202  53.066  0.00  0.00     0.021 A 
ATOM      2  C   UNL d   1      51.602  34.233  52.618  0.00  0.00     0.085 A 
ATOM      3  C   UNL d   1      51.802  33.435  52.681  0.00  0.00     0.021 A 
ATOM      4  C   UNL d   1      53.001  33.781  53.394  0.00  0.00     0.002 A 
ATOM      5  C   UNL d   1      52.805  34.580  53.333  0.00  0.00     0.002 A 
ATOM      6  C   UNL d   1      52.105  34.813  52.945  0.00  0.00     0.019 A 
ENDROOT
BRANCH   2   7
ATOM      7  N   UNL d   1      50.909  34.456  52.233  0.00  0.00    -0.208 NA
ATOM      8  C   UNL d   1      50.190  34.499  52.645  0.00  0.00     0.279 C 
ATOM      9  O   UNL d   1      50.176  34.314  53.458  0.00  0.00    -0.265 OA
BRANCH   8  10
ATOM     10  C   UNL d   1      49.496  34.721  52.262  0.00  0.00     0.060 A 
ATOM     11  C   UNL d   1      48.963  35.223  52.632  0.00  0.00     0.031 A 
ATOM     12  C   UNL d   1      48.280  35.439  52.249  0.00  0.00     0.119 A 
ATOM     13  O   UNL d   1      47.644  35.930  52.473  0.00  0.00    -0.300 OA
ATOM     14  C   UNL d   1      48.119  35.157  51.490  0.00  0.00     0.119 A 
ATOM     15  C   UNL d   1      47.100  35.943  51.849  0.00  0.00     0.304 A 
ATOM     16  O   UNL d   1      47.394  35.466  51.243  0.00  0.00    -0.300 OA
ATOM     17  C   UNL d   1      48.651  34.653  51.115  0.00  0.00     0.026 A 
ATOM     18  C   UNL d   1      49.346  34.433  51.503  0.00  0.00     0.007 A 
ENDBRANCH   8  10
ENDBRANCH   2   7
BRANCH   1  19
ATOM     19  C   UNL d   1      52.698  32.405  53.130  0.00  0.00     0.118 A 
ATOM     20  N   UNL d   1      52.480  31.804  52.611  0.00  0.00    -0.059 NA
ATOM     21  C   UNL d   1      52.805  31.094  52.892  0.00  0.00     0.735 A 
ATOM     22  N   UNL d   1      53.222  31.262  53.584  0.00  0.00    -0.136 N 
ATOM     23  N   UNL d   1      52.767  30.324  52.597  0.00  0.00    -0.059 NA
ATOM     24  C   UNL d   1      53.158  32.072  53.733  0.00  0.00     0.118 A 
ATOM     25  C   UNL d   1      53.606  30.645  53.985  0.00  0.00     0.100 A 
ATOM     26  C   UNL d   1      53.574  29.878  53.701  0.00  0.00     0.041 A 
ATOM     27  C   UNL d   1      53.151  29.716  53.002  0.00  0.00     0.119 A 
ENDBRANCH   1  19
TORSDOF 3
ENDMDL
MODEL 2
REMARK VINA RESULT:     -10.0      2.084      5.683
REMARK  3 active torsions:
REMARK  status: ('A' for Active; 'I' for Inactive)
REMARK    1  A    between atoms: C_11  and  C_4 
REMARK       I    between atoms: C_6  and  N_8 
REMARK    2  A    between atoms: C_9  and  C_6 
REMARK    3  A    between atoms: N_8  and  C_19 
ROOT
ATOM      1  C   UNL d   1      51.230  34.166  52.865  0.00  0.00     0.021 A 
ATOM      2  C   UNL d   1      52.102  33.134  53.354  0.00  0.00     0.085 A 
ATOM      3  C   UNL d   1      51.366  33.375  53.071  0.00  0.00     0.021 A 
ATOM      4  C   UNL d   1      51.845  34.724  52.944  0.00  0.00     0.002 A 
ATOM      5  C   UNL d   1      52.583  34.487  53.226  0.00  0.00     0.002 A 
ATOM      6  C   UNL d   1      52.718  33.691  53.434  0.00  0.00     0.019 A 
ENDROOT
BRANCH   2   7
ATOM      7  N   UNL d   1      52.228  32.346  53.557  0.00  0.00    -0.208 NA
ATOM      8  C   UNL d   1      52.703  31.857  53.084  0.00  0.00     0.279 C 
ATOM      9  O   UNL d   1      53.053  32.173  52.396  0.00  0.00    -0.265 OA
BRANCH   8  10
ATOM     10  C   UNL d   1      52.830  31.068  53.286  0.00  0.00     0.060 A 
ATOM     11  C   UNL d   1      53.066  30.870  54.046  0.00  0.00     0.031 A 
ATOM     12  C   UNL d   1      53.190  30.091  54.239  0.00  0.00     0.119 A 
ATOM     13  O   UNL d   1      53.426  29.722  54.949  0.00  0.00    -0.300 OA
ATOM     14  C   UNL d   1      53.080  29.498  53.677  0.00  0.00     0.119 A 
ATOM     15  C   UNL d   1      53.459  28.906  54.813  0.00  0.00     0.304 A 
ATOM     16  O   UNL d   1      53.245  28.769  54.028  0.00  0.00    -0.300 OA
ATOM     17  C   UNL d   1      52.843  29.692  52.913  0.00  0.00     0.026 A 
ATOM     18  C   UNL d   1      52.717  30.484  52.714  0.00  0.00     0.007 A 
ENDBRANCH   8  10
ENDBRANCH   2   7
BRANCH   1  19
ATOM     19  C   UNL d   1      50.494  34.408  52.582  0.00  0.00     0.118 A 
ATOM     20  N   UNL d   1      49.932  34.845  52.995  0.00  0.00    -0.059 NA
ATOM     21  C   UNL d   1      49.279  34.959  52.495  0.00  0.00     0.735 A 
ATOM     22  N   UNL d   1      49.444  34.591  51.775  0.00  0.00    -0.136 N 
ATOM     23  N   UNL d   1      48.563  35.353  52.616  0.00  0.00    -0.059 NA
ATOM     24  C   UNL d   1      50.194  34.250  51.826  0.00  0.00     0.118 A 
ATOM     25  C   UNL d   1      48.880  34.620  51.167  0.00  0.00     0.100 A 
ATOM     26  C   UNL d   1      48.167  35.008  51.276  0.00  0.00     0.041 A 
ATOM     27  C   UNL d   1      48.008  35.377  52.006  0.00  0.00     0.119 A 
ENDBRANCH   1  19
TORSDOF 3
ENDMDL
MODEL 3
REMARK VINA RESULT:      -8.6      1.683      2.460
REMARK  3 active torsions:
REMARK  status: ('A' for Active; 'I' for Inactive)
REMARK    1  A    between atoms: C_11  and  C_4 
REMARK       I    between atoms: C_6  and  N_8 
REMARK    2  A    between atoms: C_9  and  C_6 
REMARK    3  A    between atoms: N_8  and  C_19 
ROOT
ATOM      1  C   UNL d   1      51.679  34.116  53.009  0.00  0.00     0.021 A 
ATOM      2  C   UNL d   1      50.376  34.674  52.771  0.00  0.00     0.085 A 
ATOM      3  C   UNL d   1      51.003  34.511  53.281  0.00  0.00     0.021 A 
ATOM      4  C   UNL d   1      51.725  33.879  52.211  0.00  0.00     0.002 A 
ATOM      5  C   UNL d   1      51.100  34.040  51.697  0.00  0.00     0.002 A 
ATOM      6  C   UNL d   1      50.421  34.437  51.972  0.00  0.00     0.019 A 
ENDROOT
BRANCH   2   7
ATOM      7  N   UNL d   1      49.708  35.067  53.049  0.00  0.00    -0.208 NA
ATOM      8  C   UNL d   1      49.048  35.181  52.559  0.00  0.00     0.279 C 
ATOM      9  O   UNL d   1      49.067  34.892  51.777  0.00  0.00    -0.265 OA
BRANCH   8  10
ATOM     10  C   UNL d   1      48.380  35.575  52.837  0.00  0.00     0.060 A 
ATOM     11  C   UNL d   1      47.701  35.608  52.377  0.00  0.00     0.031 A 
ATOM     12  C   UNL d   1      47.045  35.998  52.656  0.00  0.00     0.119 A 
ATOM     13  O   UNL d   1      46.288  36.126  52.327  0.00  0.00    -0.300 OA
ATOM     14  C   UNL d   1      47.056  36.359  53.397  0.00  0.00     0.119 A 
ATOM     15  C   UNL d   1      45.845  36.564  52.872  0.00  0.00     0.304 A 
ATOM     16  O   UNL d   1      46.320  36.708  53.532  0.00  0.00    -0.300 OA
ATOM     17  C   UNL d   1      47.735  36.328  53.862  0.00  0.00     0.026 A 
ATOM     18  C   UNL d   1      48.404  35.932  53.580  0.00  0.00     0.007 A 
ENDBRANCH   8  10
ENDBRANCH   2   7
BRANCH   1  19
ATOM     19  C   UNL d   1      52.307  33.953  53.519  0.00  0.00     0.118 A 
ATOM     20  N   UNL d   1      52.769  34.507  53.916  0.00  0.00    -0.059 NA
ATOM     21  C   UNL d   1      53.331  34.094  54.365  0.00  0.00     0.735 A 
ATOM     22  N   UNL d   1      53.212  33.287  54.242  0.00  0.00    -0.136 N 
ATOM     23  N   UNL d   1      53.931  34.363  54.866  0.00  0.00    -0.059 NA
ATOM     24  C   UNL d   1      52.579  33.197  53.719  0.00  0.00     0.118 A 
ATOM     25  C   UNL d   1      53.705  32.742  54.628  0.00  0.00     0.100 A 
ATOM     26  C   UNL d   1      54.302  32.998  55.127  0.00  0.00     0.041 A 
ATOM     27  C   UNL d   1      54.415  33.814  55.246  0.00  0.00     0.119 A 
ENDBRANCH   1  19
TORSDOF 3
ENDMDL
MODEL 4
REMARK VINA RESULT:      -7.4      1.173      1.843
REMARK  3 active torsions:
REMARK  status: ('A' for Active; 'I' for Inactive)
REMARK    1  A    between atoms: C_11  and  C_4 
REMARK       I    between atoms: C_6  and  N_8 
REMARK    2  A    between atoms: C_9  and  C_6 
REMARK    3  A    between atoms: N_8  and  C_19 
ROOT
ATOM      1  C   UNL d   1      53.221  31.788  53.511  0.00  0.00     0.021 A 
ATOM      2  C   UNL d   1      52.457  32.849  52.914  0.00  0.00     0.085 A 
ATOM      3  C   UNL d   1      52.504  32.083  53.217  0.00  0.00     0.021 A 
ATOM      4  C   UNL d   1      53.901  32.270  53.499  0.00  0.00     0.002 A 
ATOM      5  C   UNL d   1      53.858  33.036  53.197  0.00  0.00     0.002 A 
ATOM      6  C   UNL d   1      53.137  33.332  52.902  0.00  0.00     0.019 A 
ENDROOT
BRANCH   2   7
ATOM      7  N   UNL d   1      51.741  33.135  52.624  0.00  0.00    -0.208 NA
ATOM      8  C   UNL d   1      51.455  33.878  52.858  0.00  0.00     0.279 C 
ATOM      9  O   UNL d   1      51.903  34.336  53.392  0.00  0.00    -0.265 OA
BRANCH   8  10
ATOM     10  C   UNL d   1      50.739  34.165  52.569  0.00  0.00     0.060 A 
ATOM     11  C   UNL d   1      50.533  34.044  51.783  0.00  0.00     0.031 A 
ATOM     12  C   UNL d   1      49.826  34.330  51.504  0.00  0.00     0.119 A 
ATOM     13  O   UNL d   1      49.468  34.298  50.751  0.00  0.00    -0.300 OA
ATOM     14  C   UNL d   1      49.313  34.739  52.005  0.00  0.00     0.119 A 
ATOM     15  C   UNL d   1      48.740  34.688  50.799  0.00  0.00     0.304 A 
ATOM     16  O   UNL d   1      48.645  34.960  51.572  0.00  0.00    -0.300 OA
ATOM     17  C   UNL d   1      49.516  34.862  52.793  0.00  0.00     0.026 A 
ATOM     18  C   UNL d   1      50.235  34.572  53.079  0.00  0.00     0.007 A 
ENDBRANCH   8  10
ENDBRANCH   2   7
BRANCH   1  19
ATOM     19  C   UNL d   1      53.269  31.022  53.815  0.00  0.00     0.118 A 
ATOM     20  N   UNL d   1      53.492  30.346  53.401  0.00  0.00    -0.059 NA
ATOM     21  C   UNL d   1      53.460  29.704  53.926  0.00  0.00     0.735 A 
ATOM     22  N   UNL d   1      53.217  29.989  54.661  0.00  0.00    -0.136 N 
ATOM     23  N   UNL d   1      53.624  28.902  53.815  0.00  0.00    -0.059 NA
ATOM     24  C   UNL d   1      53.098  30.804  54.595  0.00  0.00     0.118 A 
ATOM     25  C   UNL d   1      53.137  29.459  55.295  0.00  0.00     0.100 A 
ATOM     26  C   UNL d   1      53.298  28.662  55.195  0.00  0.00     0.041 A 
ATOM     27  C   UNL d   1      53.543  28.382  54.450  0.00  0.00     0.119 A 
ENDBRANCH   1  19
TORSDOF 3
ENDMDL
