MODEL 1
REMARK VINA RESULT:      -5.4      0.000      0.000
REMARK  6 active torsions:
REMARK  status: ('A' for Active; 'I' for Inactive)
REMARK    1  A    between atoms: N_5  and  S_1 
REMARK    2  A    between atoms: C_8  and  S_1 
REMARK    3  A    between atoms: C_2  and  C_14 
REMARK    4  A    between atoms: C_7  and  N_5 
REMARK    5  A    between atoms: C_6  and  C_7 
REMARK       I    between atoms: N_11  and  C_6 
REMARK    6  A    between atoms: C_19  and  N_11 
ROOT
ATOM      1  C   UNL d   1     -44.470  13.082  21.779  0.00  0.00     0.298 C 
ATOM      2  N   UNL d   1     -44.752  13.365  22.488  0.00  0.00    -0.207 NA
ATOM      3  O   UNL d   1     -44.986  12.948  21.145  0.00  0.00    -0.264 OA
ENDROOT
BRANCH   2   4
ATOM      4  C   UNL d   1     -45.557  13.520  22.578  0.00  0.00     0.085 A 
ATOM      5  C   UNL d   1     -45.832  14.289  22.486  0.00  0.00     0.019 A 
ATOM      6  C   UNL d   1     -46.643  14.461  22.574  0.00  0.00     0.004 A 
ATOM      7  C   UNL d   1     -47.173  13.858  22.753  0.00  0.00     0.024 A 
ATOM      8  C   UNL d   1     -46.898  13.084  22.846  0.00  0.00     0.004 A 
ATOM      9  C   UNL d   1     -46.096  12.909  22.760  0.00  0.00     0.019 A 
BRANCH   7  10
ATOM     10  C   UNL d   1     -47.978  14.042  22.839  0.00  0.00     0.111 A 
ATOM     11  N   UNL d   1     -48.254  14.810  22.919  0.00  0.00    -0.239 NA
ATOM     12  C   UNL d   1     -49.077  14.787  22.991  0.00  0.00     0.088 A 
ATOM     13  C   UNL d   1     -49.642  15.377  23.085  0.00  0.00     0.020 A 
ATOM     14  C   UNL d   1     -49.308  13.996  22.953  0.00  0.00     0.049 A 
ATOM     15  C   UNL d   1     -50.439  15.178  23.141  0.00  0.00     0.002 A 
ATOM     16  C   UNL d   1     -50.670  14.387  23.103  0.00  0.00     0.001 A 
ATOM     17  C   UNL d   1     -50.105  13.795  23.010  0.00  0.00     0.008 A 
ATOM     18  S   UNL d   1     -48.627  13.535  22.859  0.00  0.00    -0.066 SA
ENDBRANCH   7  10
ENDBRANCH   2   4
BRANCH   1  19
ATOM     19  C   UNL d   1     -43.665  12.925  21.682  0.00  0.00     0.151 C 
ATOM     20  C   UNL d   1     -43.367  12.166  21.796  0.00  0.00     0.027 C 
BRANCH  19  21
ATOM     21  N   UNL d   1     -42.985  13.359  21.477  0.00  0.00    -0.153 NA
BRANCH  21  22
ATOM     22  S   UNL d   1     -42.574  13.172  20.790  0.00  0.00     0.285 S 
ATOM     23  O   UNL d   1     -43.128  12.606  20.618  0.00  0.00    -0.198 OA
ATOM     24  O   UNL d   1     -42.169  12.985  20.109  0.00  0.00    -0.198 OA
BRANCH  22  25
ATOM     25  C   UNL d   1     -42.012  13.753  20.975  0.00  0.00     0.106 A 
ATOM     26  C   UNL d   1     -42.159  14.547  20.801  0.00  0.00     0.024 A 
ATOM     27  C   UNL d   1     -41.582  15.125  20.993  0.00  0.00     0.059 A 
ATOM     28 CL   UNL d   1     -41.731  15.922  20.818  0.00  0.00    -0.082 Cl
ATOM     29  C   UNL d   1     -40.876  14.902  21.352  0.00  0.00     0.011 A 
ATOM     30  C   UNL d   1     -40.732  14.109  21.525  0.00  0.00     0.002 A 
ATOM     31  C   UNL d   1     -41.309  13.532  21.333  0.00  0.00     0.013 A 
ENDBRANCH  22  25
ENDBRANCH  21  22
ENDBRANCH  19  21
ENDBRANCH   1  19
TORSDOF 6
ENDMDL
MODEL 2
REMARK VINA RESULT:      -5.3      2.274      3.640
REMARK  6 active torsions:
REMARK  status: ('A' for Active; 'I' for Inactive)
REMARK    1  A    between atoms: N_5  and  S_1 
REMARK    2  A    between atoms: C_8  and  S_1 
REMARK    3  A    between atoms: C_2  and  C_14 
REMARK    4  A    between atoms: C_7  and  N_5 
REMARK    5  A    between atoms: C_6  and  C_7 
REMARK       I    between atoms: N_11  and  C_6 
REMARK    6  A    between atoms: C_19  and  N_11 
ROOT
ATOM      1  C   UNL d   1     -41.577  14.011  20.919  0.00  0.00     0.298 C 
ATOM      2  N   UNL d   1     -41.996  13.332  20.760  0.00  0.00    -0.207 NA
ATOM      3  O   UNL d   1     -41.877  14.577  21.445  0.00  0.00    -0.264 OA
ENDROOT
BRANCH   2   4
ATOM      4  C   UNL d   1     -42.725  13.205  21.125  0.00  0.00     0.085 A 
ATOM      5  C   UNL d   1     -42.856  12.501  21.530  0.00  0.00     0.019 A 
ATOM      6  C   UNL d   1     -43.587  12.358  21.903  0.00  0.00     0.004 A 
ATOM      7  C   UNL d   1     -44.183  12.923  21.867  0.00  0.00     0.024 A 
ATOM      8  C   UNL d   1     -44.054  13.631  21.461  0.00  0.00     0.004 A 
ATOM      9  C   UNL d   1     -43.331  13.777  21.090  0.00  0.00     0.019 A 
BRANCH   7  10
ATOM     10  C   UNL d   1     -44.907  12.769  22.243  0.00  0.00     0.111 A 
ATOM     11  N   UNL d   1     -45.021  12.132  22.748  0.00  0.00    -0.239 NA
ATOM     12  C   UNL d   1     -45.801  12.149  23.019  0.00  0.00     0.088 A 
ATOM     13  C   UNL d   1     -46.222  11.659  23.529  0.00  0.00     0.020 A 
ATOM     14  C   UNL d   1     -46.170  12.803  22.678  0.00  0.00     0.049 A 
ATOM     15  C   UNL d   1     -47.011  11.822  23.698  0.00  0.00     0.002 A 
ATOM     16  C   UNL d   1     -47.380  12.476  23.357  0.00  0.00     0.001 A 
ATOM     17  C   UNL d   1     -46.959  12.967  22.846  0.00  0.00     0.008 A 
ATOM     18  S   UNL d   1     -45.616  13.187  22.197  0.00  0.00    -0.066 SA
ENDBRANCH   7  10
ENDBRANCH   2   4
BRANCH   1  19
ATOM     19  C   UNL d   1     -40.847  14.145  20.558  0.00  0.00     0.151 C 
ATOM     20  C   UNL d   1     -40.156  14.180  21.005  0.00  0.00     0.027 C 
BRANCH  19  21
ATOM     21  N   UNL d   1     -40.570  14.271  19.783  0.00  0.00    -0.153 NA
BRANCH  21  22
ATOM     22  S   UNL d   1     -40.060  14.897  19.630  0.00  0.00     0.285 S 
ATOM     23  O   UNL d   1     -40.026  15.058  20.423  0.00  0.00    -0.198 OA
ATOM     24  O   UNL d   1     -39.555  15.518  19.480  0.00  0.00    -0.198 OA
BRANCH  22  25
ATOM     25  C   UNL d   1     -40.101  14.724  18.819  0.00  0.00     0.106 A 
ATOM     26  C   UNL d   1     -40.623  15.138  18.329  0.00  0.00     0.024 A 
ATOM     27  C   UNL d   1     -40.655  14.954  17.512  0.00  0.00     0.059 A 
ATOM     28 CL   UNL d   1     -41.178  15.370  17.022  0.00  0.00    -0.082 Cl
ATOM     29  C   UNL d   1     -40.170  14.365  17.201  0.00  0.00     0.011 A 
ATOM     30  C   UNL d   1     -39.652  13.955  17.691  0.00  0.00     0.002 A 
ATOM     31  C   UNL d   1     -39.620  14.139  18.509  0.00  0.00     0.013 A 
ENDBRANCH  22  25
ENDBRANCH  21  22
ENDBRANCH  19  21
ENDBRANCH   1  19
TORSDOF 6
ENDMDL
MODEL 3
REMARK VINA RESULT:      -4.9      2.303      6.965
REMARK  6 active torsions:
REMARK  status: ('A' for Active; 'I' for Inactive)
REMARK    1  A    between atoms: N_5  and  S_1 
REMARK    2  A    between atoms: C_8  and  S_1 
REMARK    3  A    between atoms: C_2  and  C_14 
REMARK    4  A    between atoms: C_7  and  N_5 
REMARK    5  A    between atoms: C_6  and  C_7 
REMARK       I    between atoms: N_11  and  C_6 
REMARK    6  A    between atoms: C_19  and  N_11 
ROOT
ATOM      1  C   UNL d   1     -43.669  12.953  21.503  0.00  0.00     0.298 C 
ATOM      2  N   UNL d   1     -43.094  13.421  21.837  0.00  0.00    -0.207 NA
ATOM      3  O   UNL d   1     -43.626  12.744  20.702  0.00  0.00    -0.264 OA
ENDROOT
BRANCH   2   4
ATOM      4  C   UNL d   1     -42.464  13.691  21.378  0.00  0.00     0.085 A 
ATOM      5  C   UNL d   1     -41.844  13.179  21.204  0.00  0.00     0.019 A 
ATOM      6  C   UNL d   1     -41.201  13.437  20.741  0.00  0.00     0.004 A 
ATOM      7  C   UNL d   1     -41.184  14.208  20.456  0.00  0.00     0.024 A 
ATOM      8  C   UNL d   1     -41.805  14.723  20.630  0.00  0.00     0.004 A 
ATOM      9  C   UNL d   1     -42.445  14.472  21.088  0.00  0.00     0.019 A 
BRANCH   7  10
ATOM     10  C   UNL d   1     -40.537  14.453  19.996  0.00  0.00     0.111 A 
ATOM     11  N   UNL d   1     -40.506  14.352  19.183  0.00  0.00    -0.239 NA
ATOM     12  C   UNL d   1     -39.788  14.658  18.908  0.00  0.00     0.088 A 
ATOM     13  C   UNL d   1     -39.459  14.708  18.156  0.00  0.00     0.020 A 
ATOM     14  C   UNL d   1     -39.376  14.949  19.561  0.00  0.00     0.049 A 
ATOM     15  C   UNL d   1     -38.717  15.051  18.055  0.00  0.00     0.002 A 
ATOM     16  C   UNL d   1     -38.304  15.343  18.708  0.00  0.00     0.001 A 
ATOM     17  C   UNL d   1     -38.634  15.292  19.461  0.00  0.00     0.008 A 
ATOM     18  S   UNL d   1     -39.841  14.822  20.234  0.00  0.00    -0.066 SA
ENDBRANCH   7  10
ENDBRANCH   2   4
BRANCH   1  19
ATOM     19  C   UNL d   1     -44.302  12.680  21.956  0.00  0.00     0.151 C 
ATOM     20  C   UNL d   1     -44.265  11.950  22.336  0.00  0.00     0.027 C 
BRANCH  19  21
ATOM     21  N   UNL d   1     -45.058  12.957  22.167  0.00  0.00    -0.153 NA
BRANCH  21  22
ATOM     22  S   UNL d   1     -45.451  12.620  22.805  0.00  0.00     0.285 S 
ATOM     23  O   UNL d   1     -44.818  12.130  22.932  0.00  0.00    -0.198 OA
ATOM     24  O   UNL d   1     -45.839  12.284  23.437  0.00  0.00    -0.198 OA
BRANCH  22  25
ATOM     25  C   UNL d   1     -46.095  13.125  22.667  0.00  0.00     0.106 A 
ATOM     26  C   UNL d   1     -46.740  12.868  22.220  0.00  0.00     0.024 A 
ATOM     27  C   UNL d   1     -47.384  13.388  22.089  0.00  0.00     0.059 A 
ATOM     28 CL   UNL d   1     -48.032  13.128  21.639  0.00  0.00    -0.082 Cl
ATOM     29  C   UNL d   1     -47.373  14.149  22.403  0.00  0.00     0.011 A 
ATOM     30  C   UNL d   1     -46.729  14.403  22.848  0.00  0.00     0.002 A 
ATOM     31  C   UNL d   1     -46.084  13.882  22.980  0.00  0.00     0.013 A 
ENDBRANCH  22  25
ENDBRANCH  21  22
ENDBRANCH  19  21
ENDBRANCH   1  19
TORSDOF 6
ENDMDL
MODEL 4
REMARK VINA RESULT:      -4.9      2.033      6.615
REMARK  6 active torsions:
REMARK  status: ('A' for Active; 'I' for Inactive)
REMARK    1  A    between atoms: N_5  and  S_1 
REMARK    2  A    between atoms: C_8  and  S_1 
REMARK    3  A    between atoms: C_2  and  C_14 
REMARK    4  A    between atoms: C_7  and  N_5 
REMARK    5  A    between atoms: C_6  and  C_7 
REMARK       I    between atoms: N_11  and  C_6 
REMARK    6  A    between atoms: C_19  and  N_11 
ROOT
ATOM      1  C   UNL d   1     -45.286  12.960  22.380  0.00  0.00     0.298 C 
ATOM      2  N   UNL d   1     -44.786  12.488  21.946  0.00  0.00    -0.207 NA
ATOM      3  O   UNL d   1     -45.066  13.736  22.575  0.00  0.00    -0.264 OA
ENDROOT
BRANCH   2   4
ATOM      4  C   UNL d   1     -44.055  12.780  21.697  0.00  0.00     0.085 A 
ATOM      5  C   UNL d   1     -44.019  13.518  21.335  0.00  0.00     0.019 A 
ATOM      6  C   UNL d   1     -43.288  13.826  21.079  0.00  0.00     0.004 A 
ATOM      7  C   UNL d   1     -42.598  13.392  21.188  0.00  0.00     0.024 A 
ATOM      8  C   UNL d   1     -42.633  12.651  21.552  0.00  0.00     0.004 A 
ATOM      9  C   UNL d   1     -43.355  12.341  21.807  0.00  0.00     0.019 A 
BRANCH   7  10
ATOM     10  C   UNL d   1     -41.877  13.710  20.929  0.00  0.00     0.111 A 
ATOM     11  N   UNL d   1     -41.648  13.712  20.141  0.00  0.00    -0.239 NA
ATOM     12  C   UNL d   1     -40.905  14.069  20.084  0.00  0.00     0.088 A 
ATOM     13  C   UNL d   1     -40.411  14.222  19.445  0.00  0.00     0.020 A 
ATOM     14  C   UNL d   1     -40.675  14.288  20.846  0.00  0.00     0.049 A 
ATOM     15  C   UNL d   1     -39.686  14.595  19.565  0.00  0.00     0.002 A 
ATOM     16  C   UNL d   1     -39.456  14.814  20.327  0.00  0.00     0.001 A 
ATOM     17  C   UNL d   1     -39.951  14.660  20.967  0.00  0.00     0.008 A 
ATOM     18  S   UNL d   1     -41.278  14.065  21.368  0.00  0.00    -0.066 SA
ENDBRANCH   7  10
ENDBRANCH   2   4
BRANCH   1  19
ATOM     19  C   UNL d   1     -46.018  12.675  22.632  0.00  0.00     0.151 C 
ATOM     20  C   UNL d   1     -46.066  12.083  23.202  0.00  0.00     0.027 C 
BRANCH  19  21
ATOM     21  N   UNL d   1     -46.817  12.827  22.459  0.00  0.00    -0.153 NA
BRANCH  21  22
ATOM     22  S   UNL d   1     -47.387  12.726  23.043  0.00  0.00     0.285 S 
ATOM     23  O   UNL d   1     -46.825  12.400  23.528  0.00  0.00    -0.198 OA
ATOM     24  O   UNL d   1     -47.949  12.626  23.624  0.00  0.00    -0.198 OA
BRANCH  22  25
ATOM     25  C   UNL d   1     -47.954  13.062  22.540  0.00  0.00     0.106 A 
ATOM     26  C   UNL d   1     -48.173  13.854  22.625  0.00  0.00     0.024 A 
ATOM     27  C   UNL d   1     -48.748  14.181  22.110  0.00  0.00     0.059 A 
ATOM     28 CL   UNL d   1     -48.966  14.977  22.198  0.00  0.00    -0.082 Cl
ATOM     29  C   UNL d   1     -49.092  13.716  21.524  0.00  0.00     0.011 A 
ATOM     30  C   UNL d   1     -48.871  12.927  21.441  0.00  0.00     0.002 A 
ATOM     31  C   UNL d   1     -48.296  12.600  21.956  0.00  0.00     0.013 A 
ENDBRANCH  22  25
ENDBRANCH  21  22
ENDBRANCH  19  21
ENDBRANCH   1  19
TORSDOF 6
ENDMDL
