MODEL 1
REMARK VINA RESULT:      -6.5      0.000      0.000
REMARK  6 active torsions:
REMARK  status: ('A' for Active; 'I' for Inactive)
REMARK    1  A    between atoms: S_7  and  C_1 
REMARK       I    between atoms: C_6  and  N_9 
REMARK    2  A    between atoms: C_13  and  C_6 
REMARK    3  A    between atoms: C_15  and  S_7 
REMARK    4  A    between atoms: N_9  and  C_16 
REMARK    5  A    between atoms: O_14  and  C_13 
REMARK    6  A    between atoms: C_16  and  C_15 
ROOT
ATOM      1  C   UNL d   1     -48.626  13.666  22.967  0.00  0.00     0.049 A 
ATOM      2  N   UNL d   1     -49.780  14.179  22.539  0.00  0.00    -0.245 NA
ATOM      3  C   UNL d   1     -48.985  14.343  22.661  0.00  0.00     0.087 A 
ATOM      4  C   UNL d   1     -49.195  13.081  23.037  0.00  0.00     0.025 A 
ATOM      5  C   UNL d   1     -49.916  13.397  22.770  0.00  0.00     0.082 A 
ATOM      6  C   UNL d   1     -48.605  15.059  22.505  0.00  0.00     0.021 C 
ATOM      7  C   UNL d   1     -49.163  12.306  23.303  0.00  0.00     0.002 A 
ATOM      8  C   UNL d   1     -50.598  12.933  22.774  0.00  0.00     0.019 A 
ATOM      9  C   UNL d   1     -49.845  11.843  23.306  0.00  0.00     0.000 A 
ATOM     10  C   UNL d   1     -50.556  12.156  23.043  0.00  0.00     0.002 A 
ENDROOT
BRANCH   1  11
ATOM     11  S   UNL d   1     -47.829  13.589  23.170  0.00  0.00    -0.083 SA
BRANCH  11  12
ATOM     12  C   UNL d   1     -47.260  13.499  22.568  0.00  0.00     0.056 C 
BRANCH  12  13
ATOM     13  C   UNL d   1     -46.498  13.243  22.763  0.00  0.00     0.109 C 
BRANCH  13  14
ATOM     14  N   UNL d   1     -45.899  13.326  22.217  0.00  0.00    -0.204 NA
ATOM     15  C   UNL d   1     -45.204  12.897  22.306  0.00  0.00     0.304 C 
ATOM     16  O   UNL d   1     -45.112  12.382  22.947  0.00  0.00    -0.263 OA
BRANCH  15  17
ATOM     17  C   UNL d   1     -44.590  12.982  21.746  0.00  0.00     0.179 C 
BRANCH  17  18
ATOM     18  O   UNL d   1     -43.895  12.545  21.841  0.00  0.00    -0.322 OA
ATOM     19  C   UNL d   1     -43.251  12.674  21.334  0.00  0.00     0.182 C 
ENDBRANCH  17  18
ENDBRANCH  15  17
ENDBRANCH  13  14
ENDBRANCH  12  13
ENDBRANCH  11  12
ENDBRANCH   1  11
TORSDOF 6
ENDMDL
MODEL 2
REMARK VINA RESULT:      -6.4      1.695      2.280
REMARK  6 active torsions:
REMARK  status: ('A' for Active; 'I' for Inactive)
REMARK    1  A    between atoms: S_7  and  C_1 
REMARK       I    between atoms: C_6  and  N_9 
REMARK    2  A    between atoms: C_13  and  C_6 
REMARK    3  A    between atoms: C_15  and  S_7 
REMARK    4  A    between atoms: N_9  and  C_16 
REMARK    5  A    between atoms: O_14  and  C_13 
REMARK    6  A    between atoms: C_16  and  C_15 
ROOT
ATOM      1  C   UNL d   1     -49.512  12.691  23.104  0.00  0.00     0.049 A 
ATOM      2  N   UNL d   1     -50.742  12.445  22.651  0.00  0.00    -0.245 NA
ATOM      3  C   UNL d   1     -50.166  12.193  23.180  0.00  0.00     0.087 A 
ATOM      4  C   UNL d   1     -49.677  13.251  22.531  0.00  0.00     0.025 A 
ATOM      5  C   UNL d   1     -50.443  13.101  22.246  0.00  0.00     0.082 A 
ATOM      6  C   UNL d   1     -50.226  11.555  23.698  0.00  0.00     0.021 C 
ATOM      7  C   UNL d   1     -49.244  13.877  22.226  0.00  0.00     0.002 A 
ATOM      8  C   UNL d   1     -50.768  13.580  21.657  0.00  0.00     0.019 A 
ATOM      9  C   UNL d   1     -49.568  14.355  21.638  0.00  0.00     0.000 A 
ATOM     10  C   UNL d   1     -50.324  14.206  21.357  0.00  0.00     0.002 A 
ENDROOT
BRANCH   1  11
ATOM     11  S   UNL d   1     -48.808  12.635  23.534  0.00  0.00    -0.083 SA
BRANCH  11  12
ATOM     12  C   UNL d   1     -48.268  12.025  23.358  0.00  0.00     0.056 C 
BRANCH  12  13
ATOM     13  C   UNL d   1     -47.471  12.118  23.553  0.00  0.00     0.109 C 
BRANCH  13  14
ATOM     14  N   UNL d   1     -46.981  11.466  23.548  0.00  0.00    -0.204 NA
ATOM     15  C   UNL d   1     -46.167  11.568  23.601  0.00  0.00     0.304 C 
ATOM     16  O   UNL d   1     -45.845  12.327  23.661  0.00  0.00    -0.263 OA
BRANCH  15  17
ATOM     17  C   UNL d   1     -45.666  10.900  23.596  0.00  0.00     0.179 C 
BRANCH  17  18
ATOM     18  O   UNL d   1     -44.847  11.010  23.595  0.00  0.00    -0.322 OA
ATOM     19  C   UNL d   1     -44.340  10.358  23.668  0.00  0.00     0.182 C 
ENDBRANCH  17  18
ENDBRANCH  15  17
ENDBRANCH  13  14
ENDBRANCH  12  13
ENDBRANCH  11  12
ENDBRANCH   1  11
TORSDOF 6
ENDMDL
MODEL 3
REMARK VINA RESULT:      -6.3      1.128      1.762
REMARK  6 active torsions:
REMARK  status: ('A' for Active; 'I' for Inactive)
REMARK    1  A    between atoms: S_7  and  C_1 
REMARK       I    between atoms: C_6  and  N_9 
REMARK    2  A    between atoms: C_13  and  C_6 
REMARK    3  A    between atoms: C_15  and  S_7 
REMARK    4  A    between atoms: N_9  and  C_16 
REMARK    5  A    between atoms: O_14  and  C_13 
REMARK    6  A    between atoms: C_16  and  C_15 
ROOT
ATOM      1  C   UNL d   1     -49.473  13.569  22.745  0.00  0.00     0.049 A 
ATOM      2  N   UNL d   1     -50.645  13.664  22.115  0.00  0.00    -0.245 NA
ATOM      3  C   UNL d   1     -49.976  13.196  22.206  0.00  0.00     0.087 A 
ATOM      4  C   UNL d   1     -49.825  14.266  22.989  0.00  0.00     0.025 A 
ATOM      5  C   UNL d   1     -50.556  14.329  22.599  0.00  0.00     0.082 A 
ATOM      6  C   UNL d   1     -49.828  12.479  21.828  0.00  0.00     0.021 C 
ATOM      7  C   UNL d   1     -49.589  14.853  23.510  0.00  0.00     0.002 A 
ATOM      8  C   UNL d   1     -51.044  14.981  22.734  0.00  0.00     0.019 A 
ATOM      9  C   UNL d   1     -50.076  15.505  23.645  0.00  0.00     0.000 A 
ATOM     10  C   UNL d   1     -50.797  15.566  23.259  0.00  0.00     0.002 A 
ENDROOT
BRANCH   1  11
ATOM     11  S   UNL d   1     -48.737  13.287  22.996  0.00  0.00    -0.083 SA
BRANCH  11  12
ATOM     12  C   UNL d   1     -48.077  13.364  22.494  0.00  0.00     0.056 C 
BRANCH  12  13
ATOM     13  C   UNL d   1     -47.326  13.164  22.776  0.00  0.00     0.109 C 
BRANCH  13  14
ATOM     14  N   UNL d   1     -46.674  13.304  22.307  0.00  0.00    -0.204 NA
ATOM     15  C   UNL d   1     -45.924  13.120  22.587  0.00  0.00     0.304 C 
ATOM     16  O   UNL d   1     -45.829  12.795  23.341  0.00  0.00    -0.263 OA
BRANCH  15  17
ATOM     17  C   UNL d   1     -45.256  13.264  22.106  0.00  0.00     0.179 C 
BRANCH  17  18
ATOM     18  O   UNL d   1     -44.587  12.787  22.192  0.00  0.00    -0.322 OA
ATOM     19  C   UNL d   1     -43.952  12.863  21.665  0.00  0.00     0.182 C 
ENDBRANCH  17  18
ENDBRANCH  15  17
ENDBRANCH  13  14
ENDBRANCH  12  13
ENDBRANCH  11  12
ENDBRANCH   1  11
TORSDOF 6
ENDMDL
MODEL 4
REMARK VINA RESULT:      -4.4      2.470      4.644
REMARK  6 active torsions:
REMARK  status: ('A' for Active; 'I' for Inactive)
REMARK    1  A    between atoms: S_7  and  C_1 
REMARK       I    between atoms: C_6  and  N_9 
REMARK    2  A    between atoms: C_13  and  C_6 
REMARK    3  A    between atoms: C_15  and  S_7 
REMARK    4  A    between atoms: N_9  and  C_16 
REMARK    5  A    between atoms: O_14  and  C_13 
REMARK    6  A    between atoms: C_16  and  C_15 
ROOT
ATOM      1  C   UNL d   1     -47.136  12.461  23.405  0.00  0.00     0.049 A 
ATOM      2  N   UNL d   1     -45.925  12.001  23.086  0.00  0.00    -0.245 NA
ATOM      3  C   UNL d   1     -46.650  11.794  23.412  0.00  0.00     0.087 A 
ATOM      4  C   UNL d   1     -46.717  13.083  23.077  0.00  0.00     0.025 A 
ATOM      5  C   UNL d   1     -45.962  12.801  22.876  0.00  0.00     0.082 A 
ATOM      6  C   UNL d   1     -46.861  11.050  23.697  0.00  0.00     0.021 C 
ATOM      7  C   UNL d   1     -46.912  13.866  22.930  0.00  0.00     0.002 A 
ATOM      8  C   UNL d   1     -45.408  13.305  22.531  0.00  0.00     0.019 A 
ATOM      9  C   UNL d   1     -46.358  14.371  22.585  0.00  0.00     0.000 A 
ATOM     10  C   UNL d   1     -45.613  14.090  22.388  0.00  0.00     0.002 A 
ENDROOT
BRANCH   1  11
ATOM     11  S   UNL d   1     -47.914  12.498  23.682  0.00  0.00    -0.083 SA
BRANCH  11  12
ATOM     12  C   UNL d   1     -48.489  11.991  23.356  0.00  0.00     0.056 C 
BRANCH  12  13
ATOM     13  C   UNL d   1     -49.290  12.143  23.492  0.00  0.00     0.109 C 
BRANCH  13  14
ATOM     14  N   UNL d   1     -49.725  12.523  22.917  0.00  0.00    -0.204 NA
ATOM     15  C   UNL d   1     -50.520  12.335  22.818  0.00  0.00     0.304 C 
ATOM     16  O   UNL d   1     -50.876  11.764  23.298  0.00  0.00    -0.263 OA
BRANCH  15  17
ATOM     17  C   UNL d   1     -50.966  12.724  22.228  0.00  0.00     0.179 C 
BRANCH  17  18
ATOM     18  O   UNL d   1     -50.959  13.550  22.197  0.00  0.00    -0.322 OA
ATOM     19  C   UNL d   1     -51.064  13.939  21.472  0.00  0.00     0.182 C 
ENDBRANCH  17  18
ENDBRANCH  15  17
ENDBRANCH  13  14
ENDBRANCH  12  13
ENDBRANCH  11  12
ENDBRANCH   1  11
TORSDOF 6
ENDMDL
MODEL 5
REMARK VINA RESULT:      -4.2      8.926      9.551
REMARK  6 active torsions:
REMARK  status: ('A' for Active; 'I' for Inactive)
REMARK    1  A    between atoms: S_7  and  C_1 
REMARK       I    between atoms: C_6  and  N_9 
REMARK    2  A    between atoms: C_13  and  C_6 
REMARK    3  A    between atoms: C_15  and  S_7 
REMARK    4  A    between atoms: N_9  and  C_16 
REMARK    5  A    between atoms: O_14  and  C_13 
REMARK    6  A    between atoms: C_16  and  C_15 
ROOT
ATOM      1  C   UNL d   1     -39.289  14.792  18.205  0.00  0.00     0.049 A 
ATOM      2  N   UNL d   1     -39.352  14.290  16.971  0.00  0.00    -0.245 NA
ATOM      3  C   UNL d   1     -38.929  14.273  17.674  0.00  0.00     0.087 A 
ATOM      4  C   UNL d   1     -39.935  15.133  17.836  0.00  0.00     0.025 A 
ATOM      5  C   UNL d   1     -39.978  14.823  17.066  0.00  0.00     0.082 A 
ATOM      6  C   UNL d   1     -38.259  13.818  17.828  0.00  0.00     0.021 C 
ATOM      7  C   UNL d   1     -40.491  15.681  18.086  0.00  0.00     0.002 A 
ATOM      8  C   UNL d   1     -40.578  15.064  16.554  0.00  0.00     0.019 A 
ATOM      9  C   UNL d   1     -41.092  15.922  17.574  0.00  0.00     0.000 A 
ATOM     10  C   UNL d   1     -41.133  15.615  16.815  0.00  0.00     0.002 A 
ENDROOT
BRANCH   1  11
ATOM     11  S   UNL d   1     -39.041  14.945  18.979  0.00  0.00    -0.083 SA
BRANCH  11  12
ATOM     12  C   UNL d   1     -39.198  14.386  19.576  0.00  0.00     0.056 C 
BRANCH  12  13
ATOM     13  C   UNL d   1     -39.125  14.606  20.369  0.00  0.00     0.109 C 
BRANCH  13  14
ATOM     14  N   UNL d   1     -39.024  14.028  20.935  0.00  0.00    -0.204 NA
ATOM     15  C   UNL d   1     -39.102  14.219  21.731  0.00  0.00     0.304 C 
ATOM     16  O   UNL d   1     -39.282  14.993  21.957  0.00  0.00    -0.263 OA
BRANCH  15  17
ATOM     17  C   UNL d   1     -38.998  13.626  22.310  0.00  0.00     0.179 C 
BRANCH  17  18
ATOM     18  O   UNL d   1     -38.830  13.848  23.088  0.00  0.00    -0.322 OA
ATOM     19  C   UNL d   1     -38.534  13.290  23.625  0.00  0.00     0.182 C 
ENDBRANCH  17  18
ENDBRANCH  15  17
ENDBRANCH  13  14
ENDBRANCH  12  13
ENDBRANCH  11  12
ENDBRANCH   1  11
TORSDOF 6
ENDMDL
MODEL 6
REMARK VINA RESULT:      -3.8      1.792      1.986
REMARK  6 active torsions:
REMARK  status: ('A' for Active; 'I' for Inactive)
REMARK    1  A    between atoms: S_7  and  C_1 
REMARK       I    between atoms: C_6  and  N_9 
REMARK    2  A    between atoms: C_13  and  C_6 
REMARK    3  A    between atoms: C_15  and  S_7 
REMARK    4  A    between atoms: N_9  and  C_16 
REMARK    5  A    between atoms: O_14  and  C_13 
REMARK    6  A    between atoms: C_16  and  C_15 
ROOT
ATOM      1  C   UNL d   1     -48.128  12.274  22.895  0.00  0.00     0.049 A 
ATOM      2  N   UNL d   1     -48.632  12.971  21.876  0.00  0.00    -0.245 NA
ATOM      3  C   UNL d   1     -47.936  12.765  22.260  0.00  0.00     0.087 A 
ATOM      4  C   UNL d   1     -48.941  12.174  22.909  0.00  0.00     0.025 A 
ATOM      5  C   UNL d   1     -49.259  12.607  22.275  0.00  0.00     0.082 A 
ATOM      6  C   UNL d   1     -47.175  13.003  22.051  0.00  0.00     0.021 C 
ATOM      7  C   UNL d   1     -49.439  11.752  23.405  0.00  0.00     0.002 A 
ATOM      8  C   UNL d   1     -50.073  12.614  22.145  0.00  0.00     0.019 A 
ATOM      9  C   UNL d   1     -50.253  11.758  23.274  0.00  0.00     0.000 A 
ATOM     10  C   UNL d   1     -50.565  12.187  22.649  0.00  0.00     0.002 A 
ENDROOT
BRANCH   1  11
ATOM     11  S   UNL d   1     -47.593  11.939  23.428  0.00  0.00    -0.083 SA
BRANCH  11  12
ATOM     12  C   UNL d   1     -46.781  11.934  23.244  0.00  0.00     0.056 C 
BRANCH  12  13
ATOM     13  C   UNL d   1     -46.281  11.394  23.621  0.00  0.00     0.109 C 
BRANCH  13  14
ATOM     14  N   UNL d   1     -45.475  11.461  23.521  0.00  0.00    -0.204 NA
ATOM     15  C   UNL d   1     -45.003  10.789  23.553  0.00  0.00     0.304 C 
ATOM     16  O   UNL d   1     -45.343  10.047  23.685  0.00  0.00    -0.263 OA
BRANCH  15  17
ATOM     17  C   UNL d   1     -44.177  10.858  23.452  0.00  0.00     0.179 C 
BRANCH  17  18
ATOM     18  O   UNL d   1     -43.736  10.186  23.258  0.00  0.00    -0.322 OA
ATOM     19  C   UNL d   1     -43.059   9.994  23.696  0.00  0.00     0.182 C 
ENDBRANCH  17  18
ENDBRANCH  15  17
ENDBRANCH  13  14
ENDBRANCH  12  13
ENDBRANCH  11  12
ENDBRANCH   1  11
TORSDOF 6
ENDMDL
