MODEL 1
REMARK VINA RESULT:      41.4      0.000      0.000
REMARK  3 active torsions:
REMARK  status: ('A' for Active; 'I' for Inactive)
REMARK    1  A    between atoms: C_12  and  C_4 
REMARK    2  A    between atoms: S_8  and  C_12 
REMARK    3  A    between atoms: C_11  and  S_8 
ROOT
ATOM      1  N   UNL d   1     -52.521  24.824  33.311  0.00  0.00    -0.289 N 
ATOM      2  C   UNL d   1     -51.732  24.519  33.309  0.00  0.00     0.148 A 
ATOM      3  N   UNL d   1     -51.203  25.175  33.308  0.00  0.00    -0.226 NA
ATOM      4  C   UNL d   1     -51.679  25.846  33.309  0.00  0.00     0.107 A 
ATOM      5  C   UNL d   1     -52.447  25.655  33.311  0.00  0.00     0.101 A 
ATOM      6  C   UNL d   1     -53.143  24.302  33.312  0.00  0.00     0.066 A 
ATOM      7  C   UNL d   1     -51.597  23.705  33.309  0.00  0.00     0.037 A 
ATOM      8  C   UNL d   1     -52.246  23.188  33.310  0.00  0.00     0.005 A 
ATOM      9  C   UNL d   1     -53.003  23.480  33.312  0.00  0.00     0.018 A 
ATOM     10  C   UNL d   1     -53.929  24.605  33.314  0.00  0.00     0.019 C 
ENDROOT
BRANCH   4  11
ATOM     11  C   UNL d   1     -51.342  26.619  33.308  0.00  0.00     0.056 C 
BRANCH  11  12
ATOM     12  S   UNL d   1     -50.620  26.713  33.693  0.00  0.00    -0.083 SA
BRANCH  12  13
ATOM     13  C   UNL d   1     -50.226  27.461  33.661  0.00  0.00     0.049 A 
ATOM     14  C   UNL d   1     -49.468  27.538  33.966  0.00  0.00     0.109 A 
ATOM     15  N   UNL d   1     -49.073  26.855  34.319  0.00  0.00    -0.148 N 
ATOM     16  C   UNL d   1     -49.083  28.267  33.936  0.00  0.00     0.021 A 
ATOM     17  C   UNL d   1     -49.462  28.910  33.600  0.00  0.00     0.002 A 
ATOM     18  C   UNL d   1     -50.182  28.845  33.308  0.00  0.00     0.001 A 
ATOM     19  C   UNL d   1     -50.605  28.111  33.323  0.00  0.00     0.008 A 
ENDBRANCH  12  13
ENDBRANCH  11  12
ENDBRANCH   4  11
TORSDOF 3
ENDMDL
MODEL 2
REMARK VINA RESULT:      41.7      0.638      1.222
REMARK  3 active torsions:
REMARK  status: ('A' for Active; 'I' for Inactive)
REMARK    1  A    between atoms: C_12  and  C_4 
REMARK    2  A    between atoms: S_8  and  C_12 
REMARK    3  A    between atoms: C_11  and  S_8 
ROOT
ATOM      1  N   UNL d   1     -52.601  24.522  33.471  0.00  0.00    -0.289 N 
ATOM      2  C   UNL d   1     -53.310  24.977  33.388  0.00  0.00     0.148 A 
ATOM      3  N   UNL d   1     -53.096  25.791  33.405  0.00  0.00    -0.226 NA
ATOM      4  C   UNL d   1     -52.279  25.807  33.497  0.00  0.00     0.107 A 
ATOM      5  C   UNL d   1     -51.979  25.075  33.536  0.00  0.00     0.101 A 
ATOM      6  C   UNL d   1     -52.653  23.712  33.471  0.00  0.00     0.066 A 
ATOM      7  C   UNL d   1     -54.041  24.603  33.309  0.00  0.00     0.037 A 
ATOM      8  C   UNL d   1     -54.073  23.774  33.312  0.00  0.00     0.005 A 
ATOM      9  C   UNL d   1     -53.394  23.338  33.392  0.00  0.00     0.018 A 
ATOM     10  C   UNL d   1     -51.948  23.259  33.554  0.00  0.00     0.019 C 
ENDROOT
BRANCH   4  11
ATOM     11  C   UNL d   1     -51.859  26.536  33.538  0.00  0.00     0.056 C 
BRANCH  11  12
ATOM     12  S   UNL d   1     -51.069  26.527  33.306  0.00  0.00    -0.083 SA
BRANCH  12  13
ATOM     13  C   UNL d   1     -50.566  27.177  33.511  0.00  0.00     0.049 A 
ATOM     14  C   UNL d   1     -49.772  27.046  33.671  0.00  0.00     0.109 A 
ATOM     15  N   UNL d   1     -49.449  26.245  33.629  0.00  0.00    -0.148 N 
ATOM     16  C   UNL d   1     -49.283  27.678  33.871  0.00  0.00     0.021 A 
ATOM     17  C   UNL d   1     -49.593  28.434  33.909  0.00  0.00     0.002 A 
ATOM     18  C   UNL d   1     -50.348  28.566  33.759  0.00  0.00     0.001 A 
ATOM     19  C   UNL d   1     -50.878  27.940  33.551  0.00  0.00     0.008 A 
ENDBRANCH  12  13
ENDBRANCH  11  12
ENDBRANCH   4  11
TORSDOF 3
ENDMDL
