MODEL 1
REMARK VINA RESULT:     -13.4      0.000      0.000
REMARK  1 active torsions:
REMARK  status: ('A' for Active; 'I' for Inactive)
REMARK    1  A    between atoms: C_11  and  C_2 
ROOT
ATOM      1  C   UNL d   1      52.617  33.153  53.483  0.00  0.00     0.026 A 
ATOM      2  C   UNL d   1      53.180  32.626  53.735  0.00  0.00     0.007 A 
ATOM      3  C   UNL d   1      51.976  32.896  53.049  0.00  0.00     0.103 A 
ATOM      4  C   UNL d   1      53.111  31.829  53.558  0.00  0.00     0.026 A 
ATOM      5  C   UNL d   1      52.693  33.956  53.666  0.00  0.00     0.047 A 
ATOM      6  C   UNL d   1      52.467  31.571  53.122  0.00  0.00     0.103 A 
ATOM      7  O   UNL d   1      51.890  32.109  52.863  0.00  0.00    -0.307 OA
ATOM      8  C   UNL d   1      51.405  33.428  52.793  0.00  0.00     0.070 A 
ATOM      9  C   UNL d   1      52.134  34.501  53.419  0.00  0.00     0.234 A 
ATOM     10  C   UNL d   1      51.483  34.243  52.979  0.00  0.00     0.236 A 
ATOM     11  C   UNL d   1      53.671  31.281  53.805  0.00  0.00     0.047 A 
ATOM     12  C   UNL d   1      52.381  30.760  52.931  0.00  0.00     0.070 A 
ATOM     13  C   UNL d   1      53.599  30.468  53.622  0.00  0.00     0.234 A 
ATOM     14  C   UNL d   1      52.945  30.217  53.182  0.00  0.00     0.236 A 
ATOM     15  O   UNL d   1      50.928  34.794  52.736  0.00  0.00    -0.283 OA
ATOM     16  O   UNL d   1      52.227  35.291  53.611  0.00  0.00    -0.283 OA
ATOM     17  O   UNL d   1      54.160  29.928  53.871  0.00  0.00    -0.283 OA
ATOM     18  O   UNL d   1      52.855  29.421  52.991  0.00  0.00    -0.283 OA
ENDROOT
BRANCH   2  19
ATOM     19  C   UNL d   1      53.824  32.884  54.171  0.00  0.00     0.039 A 
ATOM     20  C   UNL d   1      54.529  33.103  53.778  0.00  0.00     0.196 A 
ATOM     21  O   UNL d   1      54.586  33.065  52.971  0.00  0.00    -0.287 OA
ATOM     22  C   UNL d   1      55.179  33.364  54.218  0.00  0.00     0.042 A 
ATOM     23  C   UNL d   1      55.131  33.408  55.055  0.00  0.00     0.003 A 
ATOM     24  C   UNL d   1      54.429  33.188  55.431  0.00  0.00     0.000 A 
ATOM     25  C   UNL d   1      53.784  32.929  54.982  0.00  0.00     0.003 A 
ENDBRANCH   2  19
TORSDOF 1
ENDMDL
MODEL 2
REMARK VINA RESULT:     -13.3      0.024      3.128
REMARK  1 active torsions:
REMARK  status: ('A' for Active; 'I' for Inactive)
REMARK    1  A    between atoms: C_11  and  C_2 
ROOT
ATOM      1  C   UNL d   1      53.096  31.834  53.549  0.00  0.00     0.026 A 
ATOM      2  C   UNL d   1      53.177  32.619  53.735  0.00  0.00     0.007 A 
ATOM      3  C   UNL d   1      52.455  31.577  53.114  0.00  0.00     0.103 A 
ATOM      4  C   UNL d   1      52.617  33.164  53.489  0.00  0.00     0.026 A 
ATOM      5  C   UNL d   1      53.665  31.290  53.801  0.00  0.00     0.047 A 
ATOM      6  C   UNL d   1      51.974  32.906  53.051  0.00  0.00     0.103 A 
ATOM      7  O   UNL d   1      51.889  32.103  52.860  0.00  0.00    -0.307 OA
ATOM      8  C   UNL d   1      52.371  30.783  52.925  0.00  0.00     0.070 A 
ATOM      9  C   UNL d   1      53.598  30.494  53.622  0.00  0.00     0.234 A 
ATOM     10  C   UNL d   1      52.950  30.230  53.181  0.00  0.00     0.236 A 
ATOM     11  C   UNL d   1      52.683  33.963  53.668  0.00  0.00     0.047 A 
ATOM     12  C   UNL d   1      51.392  33.449  52.791  0.00  0.00     0.070 A 
ATOM     13  C   UNL d   1      52.110  34.518  53.415  0.00  0.00     0.234 A 
ATOM     14  C   UNL d   1      51.465  34.248  52.974  0.00  0.00     0.236 A 
ATOM     15  O   UNL d   1      52.890  29.433  53.006  0.00  0.00    -0.283 OA
ATOM     16  O   UNL d   1      54.172  29.971  53.881  0.00  0.00    -0.283 OA
ATOM     17  O   UNL d   1      52.182  35.312  53.597  0.00  0.00    -0.283 OA
ATOM     18  O   UNL d   1      50.888  34.777  52.715  0.00  0.00    -0.283 OA
ENDROOT
BRANCH   2  19
ATOM     19  C   UNL d   1      53.820  32.878  54.172  0.00  0.00     0.039 A 
ATOM     20  C   UNL d   1      54.524  33.102  53.781  0.00  0.00     0.196 A 
ATOM     21  O   UNL d   1      54.582  33.069  52.973  0.00  0.00    -0.287 OA
ATOM     22  C   UNL d   1      55.173  33.362  54.222  0.00  0.00     0.042 A 
ATOM     23  C   UNL d   1      55.125  33.401  55.059  0.00  0.00     0.003 A 
ATOM     24  C   UNL d   1      54.424  33.176  55.434  0.00  0.00     0.000 A 
ATOM     25  C   UNL d   1      53.781  32.917  54.984  0.00  0.00     0.003 A 
ENDBRANCH   2  19
TORSDOF 1
ENDMDL
MODEL 3
REMARK VINA RESULT:     -11.9      1.104      3.680
REMARK  1 active torsions:
REMARK  status: ('A' for Active; 'I' for Inactive)
REMARK    1  A    between atoms: C_11  and  C_2 
ROOT
ATOM      1  C   UNL d   1      53.039  32.007  53.544  0.00  0.00     0.026 A 
ATOM      2  C   UNL d   1      52.900  32.794  53.683  0.00  0.00     0.007 A 
ATOM      3  C   UNL d   1      53.676  31.633  53.891  0.00  0.00     0.103 A 
ATOM      4  C   UNL d   1      53.395  33.223  54.173  0.00  0.00     0.026 A 
ATOM      5  C   UNL d   1      52.534  31.580  53.047  0.00  0.00     0.047 A 
ATOM      6  C   UNL d   1      54.035  32.847  54.523  0.00  0.00     0.103 A 
ATOM      7  O   UNL d   1      54.179  32.043  54.381  0.00  0.00    -0.307 OA
ATOM      8  C   UNL d   1      53.819  30.837  53.752  0.00  0.00     0.070 A 
ATOM      9  C   UNL d   1      52.661  30.786  52.897  0.00  0.00     0.234 A 
ATOM     10  C   UNL d   1      53.305  30.404  53.247  0.00  0.00     0.236 A 
ATOM     11  C   UNL d   1      53.269  34.020  54.325  0.00  0.00     0.047 A 
ATOM     12  C   UNL d   1      54.552  33.271  55.027  0.00  0.00     0.070 A 
ATOM     13  C   UNL d   1      53.778  34.457  54.827  0.00  0.00     0.234 A 
ATOM     14  C   UNL d   1      54.420  34.069  55.174  0.00  0.00     0.236 A 
ATOM     15  O   UNL d   1      53.426  29.609  53.092  0.00  0.00    -0.283 OA
ATOM     16  O   UNL d   1      52.150  30.381  52.402  0.00  0.00    -0.283 OA
ATOM     17  O   UNL d   1      53.646  35.251  54.974  0.00  0.00    -0.283 OA
ATOM     18  O   UNL d   1      54.933  34.480  55.672  0.00  0.00    -0.283 OA
ENDROOT
BRANCH   2  19
ATOM     19  C   UNL d   1      52.260  33.170  53.334  0.00  0.00     0.039 A 
ATOM     20  C   UNL d   1      52.355  33.550  52.596  0.00  0.00     0.196 A 
ATOM     21  O   UNL d   1      53.072  33.554  52.217  0.00  0.00    -0.287 OA
ATOM     22  C   UNL d   1      51.710  33.929  52.244  0.00  0.00     0.042 A 
ATOM     23  C   UNL d   1      50.963  33.931  52.626  0.00  0.00     0.003 A 
ATOM     24  C   UNL d   1      50.882  33.552  53.356  0.00  0.00     0.000 A 
ATOM     25  C   UNL d   1      51.533  33.176  53.699  0.00  0.00     0.003 A 
ENDBRANCH   2  19
TORSDOF 1
ENDMDL
MODEL 4
REMARK VINA RESULT:     -11.9      1.106      2.596
REMARK  1 active torsions:
REMARK  status: ('A' for Active; 'I' for Inactive)
REMARK    1  A    between atoms: C_11  and  C_2 
ROOT
ATOM      1  C   UNL d   1      53.420  33.233  54.188  0.00  0.00     0.026 A 
ATOM      2  C   UNL d   1      52.918  32.827  53.696  0.00  0.00     0.007 A 
ATOM      3  C   UNL d   1      54.051  32.853  54.538  0.00  0.00     0.103 A 
ATOM      4  C   UNL d   1      53.039  32.031  53.545  0.00  0.00     0.026 A 
ATOM      5  C   UNL d   1      53.291  34.037  54.335  0.00  0.00     0.047 A 
ATOM      6  C   UNL d   1      53.673  31.650  53.897  0.00  0.00     0.103 A 
ATOM      7  O   UNL d   1      54.187  32.063  54.400  0.00  0.00    -0.307 OA
ATOM      8  C   UNL d   1      54.560  33.262  55.036  0.00  0.00     0.070 A 
ATOM      9  C   UNL d   1      53.788  34.461  54.829  0.00  0.00     0.234 A 
ATOM     10  C   UNL d   1      54.429  34.078  55.185  0.00  0.00     0.236 A 
ATOM     11  C   UNL d   1      52.541  31.605  53.050  0.00  0.00     0.047 A 
ATOM     12  C   UNL d   1      53.811  30.836  53.754  0.00  0.00     0.070 A 
ATOM     13  C   UNL d   1      52.666  30.791  52.897  0.00  0.00     0.234 A 
ATOM     14  C   UNL d   1      53.309  30.415  53.257  0.00  0.00     0.236 A 
ATOM     15  O   UNL d   1      54.921  34.509  55.678  0.00  0.00    -0.283 OA
ATOM     16  O   UNL d   1      53.644  35.255  54.962  0.00  0.00    -0.283 OA
ATOM     17  O   UNL d   1      52.167  30.372  52.404  0.00  0.00    -0.283 OA
ATOM     18  O   UNL d   1      53.451  29.615  53.121  0.00  0.00    -0.283 OA
ENDROOT
BRANCH   2  19
ATOM     19  C   UNL d   1      52.284  33.209  53.344  0.00  0.00     0.039 A 
ATOM     20  C   UNL d   1      52.385  33.585  52.605  0.00  0.00     0.196 A 
ATOM     21  O   UNL d   1      53.102  33.579  52.228  0.00  0.00    -0.287 OA
ATOM     22  C   UNL d   1      51.745  33.970  52.249  0.00  0.00     0.042 A 
ATOM     23  C   UNL d   1      50.997  33.983  52.630  0.00  0.00     0.003 A 
ATOM     24  C   UNL d   1      50.910  33.607  53.361  0.00  0.00     0.000 A 
ATOM     25  C   UNL d   1      51.556  33.225  53.708  0.00  0.00     0.003 A 
ENDBRANCH   2  19
TORSDOF 1
ENDMDL
