MODEL 1
REMARK VINA RESULT:      97.8      0.000      0.000
REMARK  5 active torsions:
REMARK  status: ('A' for Active; 'I' for Inactive)
REMARK    1  A    between atoms: N_4  and  S_1 
REMARK    2  A    between atoms: C_10  and  S_1 
REMARK    3  A    between atoms: C_2  and  N_9 
REMARK    4  A    between atoms: C_13  and  C_3 
REMARK    5  A    between atoms: C_11  and  C_8 
REMARK       I    between atoms: N_9  and  C_11 
REMARK       I    between atoms: C_15  and  N_12 
ROOT
ATOM      1  N   UNL d   1      59.351  48.245  51.688  0.00  0.00    -0.200 NA
ATOM      2  C   UNL d   1      59.008  48.983  51.533  0.00  0.00     0.296 C 
ATOM      3  O   UNL d   1      59.292  49.440  50.907  0.00  0.00    -0.264 OA
ENDROOT
BRANCH   1   4
ATOM      4  C   UNL d   1      59.971  47.967  51.220  0.00  0.00     0.119 A 
ATOM      5  C   UNL d   1      60.577  48.410  50.892  0.00  0.00     0.084 A 
ATOM      6  C   UNL d   1      61.076  47.905  50.465  0.00  0.00     0.016 A 
ATOM      7  C   UNL d   1      61.760  48.039  50.029  0.00  0.00     0.020 A 
ATOM      8  C   UNL d   1      60.771  47.143  50.534  0.00  0.00     0.049 A 
ATOM      9  C   UNL d   1      62.138  47.415  49.662  0.00  0.00     0.083 A 
ATOM     10  N   UNL d   1      61.833  46.640  49.729  0.00  0.00    -0.272 N 
ATOM     11  C   UNL d   1      61.150  46.511  50.166  0.00  0.00     0.089 A 
ATOM     12  C   UNL d   1      62.223  46.004  49.352  0.00  0.00     0.265 C 
ATOM     13  O   UNL d   1      61.918  45.241  49.421  0.00  0.00    -0.267 OA
ATOM     14  C   UNL d   1      62.910  46.142  48.914  0.00  0.00     0.066 C 
ATOM     15  S   UNL d   1      60.091  47.175  50.998  0.00  0.00    -0.066 SA
BRANCH   5  16
ATOM     16  C   UNL d   1      60.678  49.230  50.971  0.00  0.00     0.299 C 
ATOM     17  O   UNL d   1      60.714  49.706  50.305  0.00  0.00    -0.264 OA
ATOM     18  N   UNL d   1      60.741  49.551  51.719  0.00  0.00    -0.102 N 
ENDBRANCH   5  16
ENDBRANCH   1   4
BRANCH   2  19
ATOM     19  C   UNL d   1      58.394  49.257  51.997  0.00  0.00     0.133 A 
ATOM     20  N   UNL d   1      57.631  49.452  51.729  0.00  0.00    -0.226 N 
ATOM     21  C   UNL d   1      57.189  49.706  52.392  0.00  0.00     0.092 A 
ATOM     22  C   UNL d   1      57.678  49.666  53.050  0.00  0.00     0.021 A 
ATOM     23  C   UNL d   1      58.420  49.390  52.813  0.00  0.00     0.025 A 
BRANCH  20  24
ATOM     24  S   UNL d   1      57.357  49.403  50.950  0.00  0.00     0.277 S 
ATOM     25  O   UNL d   1      58.081  49.706  50.705  0.00  0.00    -0.199 OA
ATOM     26  O   UNL d   1      56.628  49.098  51.202  0.00  0.00    -0.199 OA
BRANCH  24  27
ATOM     27  C   UNL d   1      57.121  49.370  50.163  0.00  0.00     0.133 A 
ATOM     28  S   UNL d   1      56.345  49.372  49.886  0.00  0.00    -0.074 SA
ATOM     29  C   UNL d   1      56.365  49.331  49.060  0.00  0.00     0.036 A 
ATOM     30  C   UNL d   1      57.160  49.304  48.829  0.00  0.00     0.008 A 
ATOM     31  C   UNL d   1      57.626  49.328  49.509  0.00  0.00     0.020 A 
ENDBRANCH  24  27
ENDBRANCH  20  24
ENDBRANCH   2  19
TORSDOF 5
ENDMDL
MODEL 2
REMARK VINA RESULT:      98.3      1.756      3.049
REMARK  5 active torsions:
REMARK  status: ('A' for Active; 'I' for Inactive)
REMARK    1  A    between atoms: N_4  and  S_1 
REMARK    2  A    between atoms: C_10  and  S_1 
REMARK    3  A    between atoms: C_2  and  N_9 
REMARK    4  A    between atoms: C_13  and  C_3 
REMARK    5  A    between atoms: C_11  and  C_8 
REMARK       I    between atoms: N_9  and  C_11 
REMARK       I    between atoms: C_15  and  N_12 
ROOT
ATOM      1  N   UNL d   1      61.622  47.261  50.744  0.00  0.00    -0.200 NA
ATOM      2  C   UNL d   1      61.050  47.719  51.128  0.00  0.00     0.296 C 
ATOM      3  O   UNL d   1      60.265  47.462  51.139  0.00  0.00    -0.264 OA
ENDROOT
BRANCH   1   4
ATOM      4  C   UNL d   1      61.413  46.553  50.374  0.00  0.00     0.119 A 
ATOM      5  C   UNL d   1      61.778  46.210  49.726  0.00  0.00     0.084 A 
ATOM      6  C   UNL d   1      61.386  45.503  49.542  0.00  0.00     0.016 A 
ATOM      7  C   UNL d   1      61.507  44.938  48.957  0.00  0.00     0.020 A 
ATOM      8  C   UNL d   1      60.773  45.415  50.085  0.00  0.00     0.049 A 
ATOM      9  C   UNL d   1      61.017  44.285  48.915  0.00  0.00     0.083 A 
ATOM     10  N   UNL d   1      60.394  44.190  49.463  0.00  0.00    -0.272 N 
ATOM     11  C   UNL d   1      60.277  44.758  50.046  0.00  0.00     0.089 A 
ATOM     12  C   UNL d   1      59.895  43.521  49.417  0.00  0.00     0.265 C 
ATOM     13  O   UNL d   1      59.282  43.432  49.960  0.00  0.00    -0.267 OA
ATOM     14  C   UNL d   1      60.019  42.954  48.828  0.00  0.00     0.066 C 
ATOM     15  S   UNL d   1      60.785  46.058  50.600  0.00  0.00    -0.066 SA
BRANCH   5  16
ATOM     16  C   UNL d   1      62.433  46.515  49.318  0.00  0.00     0.299 C 
ATOM     17  O   UNL d   1      63.116  46.069  49.244  0.00  0.00    -0.264 OA
ATOM     18  N   UNL d   1      62.384  47.263  48.994  0.00  0.00    -0.102 N 
ENDBRANCH   5  16
ENDBRANCH   1   4
BRANCH   2  19
ATOM     19  C   UNL d   1      61.258  48.419  51.493  0.00  0.00     0.133 A 
ATOM     20  N   UNL d   1      60.870  49.150  51.403  0.00  0.00    -0.226 N 
ATOM     21  C   UNL d   1      61.272  49.708  51.877  0.00  0.00     0.092 A 
ATOM     22  C   UNL d   1      61.895  49.321  52.247  0.00  0.00     0.021 A 
ATOM     23  C   UNL d   1      61.890  48.528  52.014  0.00  0.00     0.025 A 
BRANCH  20  24
ATOM     24  S   UNL d   1      60.206  49.298  50.932  0.00  0.00     0.277 S 
ATOM     25  O   UNL d   1      60.717  49.520  50.328  0.00  0.00    -0.199 OA
ATOM     26  O   UNL d   1      59.694  49.072  51.544  0.00  0.00    -0.199 OA
BRANCH  24  27
ATOM     27  C   UNL d   1      59.571  49.455  50.434  0.00  0.00     0.133 A 
ATOM     28  S   UNL d   1      59.606  49.562  49.617  0.00  0.00    -0.074 SA
ATOM     29  C   UNL d   1      58.840  49.708  49.342  0.00  0.00     0.036 A 
ATOM     30  C   UNL d   1      58.331  49.691  49.995  0.00  0.00     0.008 A 
ATOM     31  C   UNL d   1      58.782  49.535  50.668  0.00  0.00     0.020 A 
ENDBRANCH  24  27
ENDBRANCH  20  24
ENDBRANCH   2  19
TORSDOF 5
ENDMDL
