MODEL 1
REMARK VINA RESULT:      -8.6      0.000      0.000
REMARK  3 active torsions:
REMARK  status: ('A' for Active; 'I' for Inactive)
REMARK    1  A    between atoms: C_8  and  C_2 
REMARK    2  A    between atoms: O_6  and  C_8 
REMARK    3  A    between atoms: C_7  and  O_6 
ROOT
ATOM      1  N   UNL d   1      52.783  31.309  52.774  0.00  0.00    -0.224 NA
ATOM      2  C   UNL d   1      53.084  31.879  53.286  0.00  0.00     0.188 A 
ATOM      3  N   UNL d   1      53.406  31.471  53.925  0.00  0.00    -0.224 NA
ATOM      4  C   UNL d   1      52.916  30.577  53.087  0.00  0.00     0.101 A 
ATOM      5  C   UNL d   1      53.306  30.678  53.807  0.00  0.00     0.101 A 
ATOM      6  C   UNL d   1      52.751  29.822  52.846  0.00  0.00     0.021 A 
ATOM      7  C   UNL d   1      53.516  30.021  54.259  0.00  0.00     0.021 A 
ATOM      8  C   UNL d   1      53.336  29.261  53.990  0.00  0.00     0.002 A 
ATOM      9  C   UNL d   1      52.946  29.160  53.270  0.00  0.00     0.002 A 
ENDROOT
BRANCH   2  10
ATOM     10  C   UNL d   1      53.264  32.614  53.558  0.00  0.00     0.161 C 
BRANCH  10  11
ATOM     11  O   UNL d   1      52.904  33.215  53.257  0.00  0.00    -0.302 OA
BRANCH  11  12
ATOM     12  C   UNL d   1      52.952  33.979  53.628  0.00  0.00     0.100 A 
ATOM     13  C   UNL d   1      52.513  34.586  53.350  0.00  0.00     0.023 A 
ATOM     14  C   UNL d   1      52.011  34.486  52.708  0.00  0.00     0.002 C 
ATOM     15  C   UNL d   1      52.567  35.327  53.719  0.00  0.00     0.002 A 
ATOM     16  C   UNL d   1      53.071  35.428  54.364  0.00  0.00     0.000 A 
ATOM     17  C   UNL d   1      53.539  34.791  54.663  0.00  0.00     0.002 A 
ATOM     18  C   UNL d   1      53.464  34.052  54.271  0.00  0.00     0.025 A 
ENDBRANCH  11  12
ENDBRANCH  10  11
ENDBRANCH   2  10
TORSDOF 3
ENDMDL
MODEL 2
REMARK VINA RESULT:      -8.1      1.979      3.821
REMARK  3 active torsions:
REMARK  status: ('A' for Active; 'I' for Inactive)
REMARK    1  A    between atoms: C_8  and  C_2 
REMARK    2  A    between atoms: O_6  and  C_8 
REMARK    3  A    between atoms: C_7  and  O_6 
ROOT
ATOM      1  N   UNL d   1      51.588  33.894  52.119  0.00  0.00    -0.224 NA
ATOM      2  C   UNL d   1      51.867  33.966  52.890  0.00  0.00     0.188 A 
ATOM      3  N   UNL d   1      51.246  34.275  53.335  0.00  0.00    -0.224 NA
ATOM      4  C   UNL d   1      50.823  34.150  52.090  0.00  0.00     0.101 A 
ATOM      5  C   UNL d   1      50.609  34.388  52.851  0.00  0.00     0.101 A 
ATOM      6  C   UNL d   1      50.270  34.211  51.502  0.00  0.00     0.021 A 
ATOM      7  C   UNL d   1      49.850  34.679  52.994  0.00  0.00     0.021 A 
ATOM      8  C   UNL d   1      49.305  34.731  52.376  0.00  0.00     0.002 A 
ATOM      9  C   UNL d   1      49.519  34.493  51.616  0.00  0.00     0.002 A 
ENDROOT
BRANCH   2  10
ATOM     10  C   UNL d   1      52.389  33.919  53.499  0.00  0.00     0.161 C 
BRANCH  10  11
ATOM     11  O   UNL d   1      52.992  33.458  53.431  0.00  0.00    -0.302 OA
BRANCH  11  12
ATOM     12  C   UNL d   1      53.605  33.455  54.021  0.00  0.00     0.100 A 
ATOM     13  C   UNL d   1      54.128  32.851  54.051  0.00  0.00     0.023 A 
ATOM     14  C   UNL d   1      54.085  32.227  53.519  0.00  0.00     0.002 C 
ATOM     15  C   UNL d   1      54.722  32.859  54.630  0.00  0.00     0.002 A 
ATOM     16  C   UNL d   1      54.765  33.486  55.164  0.00  0.00     0.000 A 
ATOM     17  C   UNL d   1      54.216  34.127  55.139  0.00  0.00     0.002 A 
ATOM     18  C   UNL d   1      53.625  34.094  54.543  0.00  0.00     0.025 A 
ENDBRANCH  11  12
ENDBRANCH  10  11
ENDBRANCH   2  10
TORSDOF 3
ENDMDL
MODEL 3
REMARK VINA RESULT:      -7.7      0.882      4.252
REMARK  3 active torsions:
REMARK  status: ('A' for Active; 'I' for Inactive)
REMARK    1  A    between atoms: C_8  and  C_2 
REMARK    2  A    between atoms: O_6  and  C_8 
REMARK    3  A    between atoms: C_7  and  O_6 
ROOT
ATOM      1  N   UNL d   1      53.021  33.284  53.167  0.00  0.00    -0.224 NA
ATOM      2  C   UNL d   1      53.241  32.683  53.684  0.00  0.00     0.188 A 
ATOM      3  N   UNL d   1      53.391  33.043  54.410  0.00  0.00    -0.224 NA
ATOM      4  C   UNL d   1      53.035  33.989  53.561  0.00  0.00     0.101 A 
ATOM      5  C   UNL d   1      53.267  33.838  54.338  0.00  0.00     0.101 A 
ATOM      6  C   UNL d   1      52.877  34.754  53.352  0.00  0.00     0.021 A 
ATOM      7  C   UNL d   1      53.331  34.459  54.878  0.00  0.00     0.021 A 
ATOM      8  C   UNL d   1      53.164  35.231  54.639  0.00  0.00     0.002 A 
ATOM      9  C   UNL d   1      52.933  35.382  53.861  0.00  0.00     0.002 A 
ENDROOT
BRANCH   2  10
ATOM     10  C   UNL d   1      53.406  31.935  53.928  0.00  0.00     0.161 C 
BRANCH  10  11
ATOM     11  O   UNL d   1      53.331  31.362  53.431  0.00  0.00    -0.302 OA
BRANCH  11  12
ATOM     12  C   UNL d   1      53.280  30.557  53.701  0.00  0.00     0.100 A 
ATOM     13  C   UNL d   1      53.034  29.983  53.202  0.00  0.00     0.023 A 
ATOM     14  C   UNL d   1      52.826  30.156  52.427  0.00  0.00     0.002 C 
ATOM     15  C   UNL d   1      52.988  29.201  53.476  0.00  0.00     0.002 A 
ATOM     16  C   UNL d   1      53.197  29.027  54.255  0.00  0.00     0.000 A 
ATOM     17  C   UNL d   1      53.459  29.628  54.787  0.00  0.00     0.002 A 
ATOM     18  C   UNL d   1      53.496  30.411  54.484  0.00  0.00     0.025 A 
ENDBRANCH  11  12
ENDBRANCH  10  11
ENDBRANCH   2  10
TORSDOF 3
ENDMDL
MODEL 4
REMARK VINA RESULT:      -7.3      2.160      3.417
REMARK  3 active torsions:
REMARK  status: ('A' for Active; 'I' for Inactive)
REMARK    1  A    between atoms: C_8  and  C_2 
REMARK    2  A    between atoms: O_6  and  C_8 
REMARK    3  A    between atoms: C_7  and  O_6 
ROOT
ATOM      1  N   UNL d   1      52.822  34.302  54.386  0.00  0.00    -0.224 NA
ATOM      2  C   UNL d   1      52.443  34.040  53.704  0.00  0.00     0.188 A 
ATOM      3  N   UNL d   1      52.906  33.430  53.399  0.00  0.00    -0.224 NA
ATOM      4  C   UNL d   1      53.494  33.869  54.497  0.00  0.00     0.101 A 
ATOM      5  C   UNL d   1      53.547  33.324  53.880  0.00  0.00     0.101 A 
ATOM      6  C   UNL d   1      54.079  33.869  55.056  0.00  0.00     0.021 A 
ATOM      7  C   UNL d   1      54.184  32.800  53.845  0.00  0.00     0.021 A 
ATOM      8  C   UNL d   1      54.768  32.822  54.428  0.00  0.00     0.002 A 
ATOM      9  C   UNL d   1      54.715  33.367  55.045  0.00  0.00     0.002 A 
ENDROOT
BRANCH   2  10
ATOM     10  C   UNL d   1      51.880  34.010  53.131  0.00  0.00     0.161 C 
BRANCH  10  11
ATOM     11  O   UNL d   1      51.232  34.398  53.232  0.00  0.00    -0.302 OA
BRANCH  11  12
ATOM     12  C   UNL d   1      50.638  34.417  52.624  0.00  0.00     0.100 A 
ATOM     13  C   UNL d   1      49.913  34.715  52.782  0.00  0.00     0.023 A 
ATOM     14  C   UNL d   1      49.729  35.007  53.527  0.00  0.00     0.002 C 
ATOM     15  C   UNL d   1      49.341  34.728  52.182  0.00  0.00     0.002 A 
ATOM     16  C   UNL d   1      49.526  34.435  51.433  0.00  0.00     0.000 A 
ATOM     17  C   UNL d   1      50.289  34.118  51.259  0.00  0.00     0.002 A 
ATOM     18  C   UNL d   1      50.849  34.117  51.885  0.00  0.00     0.025 A 
ENDBRANCH  11  12
ENDBRANCH  10  11
ENDBRANCH   2  10
TORSDOF 3
ENDMDL
MODEL 5
REMARK VINA RESULT:      -7.0      1.844      4.331
REMARK  3 active torsions:
REMARK  status: ('A' for Active; 'I' for Inactive)
REMARK    1  A    between atoms: C_8  and  C_2 
REMARK    2  A    between atoms: O_6  and  C_8 
REMARK    3  A    between atoms: C_7  and  O_6 
ROOT
ATOM      1  N   UNL d   1      50.904  34.084  53.488  0.00  0.00    -0.224 NA
ATOM      2  C   UNL d   1      51.374  33.573  53.045  0.00  0.00     0.188 A 
ATOM      3  N   UNL d   1      51.061  33.572  52.282  0.00  0.00    -0.224 NA
ATOM      4  C   UNL d   1      50.324  34.386  53.015  0.00  0.00     0.101 A 
ATOM      5  C   UNL d   1      50.422  34.066  52.261  0.00  0.00     0.101 A 
ATOM      6  C   UNL d   1      49.712  34.903  53.133  0.00  0.00     0.021 A 
ATOM      7  C   UNL d   1      49.905  34.275  51.653  0.00  0.00     0.021 A 
ATOM      8  C   UNL d   1      49.289  34.805  51.800  0.00  0.00     0.002 A 
ATOM      9  C   UNL d   1      49.191  35.125  52.554  0.00  0.00     0.002 A 
ENDROOT
BRANCH   2  10
ATOM     10  C   UNL d   1      51.970  33.057  52.891  0.00  0.00     0.161 C 
BRANCH  10  11
ATOM     11  O   UNL d   1      52.484  32.916  53.435  0.00  0.00    -0.302 OA
BRANCH  11  12
ATOM     12  C   UNL d   1      52.946  32.202  53.423  0.00  0.00     0.100 A 
ATOM     13  C   UNL d   1      53.657  32.179  53.788  0.00  0.00     0.023 A 
ATOM     14  C   UNL d   1      53.953  32.837  54.179  0.00  0.00     0.002 C 
ATOM     15  C   UNL d   1      54.099  31.478  53.769  0.00  0.00     0.002 A 
ATOM     16  C   UNL d   1      53.801  30.816  53.376  0.00  0.00     0.000 A 
ATOM     17  C   UNL d   1      53.051  30.833  52.988  0.00  0.00     0.002 A 
ATOM     18  C   UNL d   1      52.624  31.556  53.022  0.00  0.00     0.025 A 
ENDBRANCH  11  12
ENDBRANCH  10  11
ENDBRANCH   2  10
TORSDOF 3
ENDMDL
MODEL 6
REMARK VINA RESULT:      -6.9      2.896      4.979
REMARK  3 active torsions:
REMARK  status: ('A' for Active; 'I' for Inactive)
REMARK    1  A    between atoms: C_8  and  C_2 
REMARK    2  A    between atoms: O_6  and  C_8 
REMARK    3  A    between atoms: C_7  and  O_6 
ROOT
ATOM      1  N   UNL d   1      49.492  35.164  53.077  0.00  0.00    -0.224 NA
ATOM      2  C   UNL d   1      50.030  34.629  52.759  0.00  0.00     0.188 A 
ATOM      3  N   UNL d   1      49.729  34.402  52.027  0.00  0.00    -0.224 NA
ATOM      4  C   UNL d   1      48.881  35.263  52.558  0.00  0.00     0.101 A 
ATOM      5  C   UNL d   1      49.030  34.786  51.901  0.00  0.00     0.101 A 
ATOM      6  C   UNL d   1      48.204  35.707  52.561  0.00  0.00     0.021 A 
ATOM      7  C   UNL d   1      48.496  34.770  51.273  0.00  0.00     0.021 A 
ATOM      8  C   UNL d   1      47.812  35.233  51.301  0.00  0.00     0.002 A 
ATOM      9  C   UNL d   1      47.664  35.710  51.957  0.00  0.00     0.002 A 
ENDROOT
BRANCH   2  10
ATOM     10  C   UNL d   1      50.692  34.175  52.722  0.00  0.00     0.161 C 
BRANCH  10  11
ATOM     11  O   UNL d   1      51.296  34.368  53.145  0.00  0.00    -0.302 OA
BRANCH  11  12
ATOM     12  C   UNL d   1      51.967  33.849  53.208  0.00  0.00     0.100 A 
ATOM     13  C   UNL d   1      52.672  34.136  53.451  0.00  0.00     0.023 A 
ATOM     14  C   UNL d   1      52.763  34.929  53.643  0.00  0.00     0.002 C 
ATOM     15  C   UNL d   1      53.320  33.621  53.509  0.00  0.00     0.002 A 
ATOM     16  C   UNL d   1      53.228  32.824  53.315  0.00  0.00     0.000 A 
ATOM     17  C   UNL d   1      52.486  32.514  53.058  0.00  0.00     0.002 A 
ATOM     18  C   UNL d   1      51.847  33.057  53.008  0.00  0.00     0.025 A 
ENDBRANCH  11  12
ENDBRANCH  10  11
ENDBRANCH   2  10
TORSDOF 3
ENDMDL
MODEL 7
REMARK VINA RESULT:      -6.9      3.100      4.430
REMARK  3 active torsions:
REMARK  status: ('A' for Active; 'I' for Inactive)
REMARK    1  A    between atoms: C_8  and  C_2 
REMARK    2  A    between atoms: O_6  and  C_8 
REMARK    3  A    between atoms: C_7  and  O_6 
ROOT
ATOM      1  N   UNL d   1      50.786  33.431  52.928  0.00  0.00    -0.224 NA
ATOM      2  C   UNL d   1      50.487  34.197  52.889  0.00  0.00     0.188 A 
ATOM      3  N   UNL d   1      51.121  34.702  53.033  0.00  0.00    -0.224 NA
ATOM      4  C   UNL d   1      51.576  33.465  53.090  0.00  0.00     0.101 A 
ATOM      5  C   UNL d   1      51.786  34.260  53.156  0.00  0.00     0.101 A 
ATOM      6  C   UNL d   1      52.155  32.908  53.192  0.00  0.00     0.021 A 
ATOM      7  C   UNL d   1      52.566  34.469  53.321  0.00  0.00     0.021 A 
ATOM      8  C   UNL d   1      53.138  33.882  53.421  0.00  0.00     0.002 A 
ATOM      9  C   UNL d   1      52.929  33.086  53.355  0.00  0.00     0.002 A 
ENDROOT
BRANCH   2  10
ATOM     10  C   UNL d   1      49.939  34.776  52.793  0.00  0.00     0.161 C 
BRANCH  10  11
ATOM     11  O   UNL d   1      49.325  34.635  52.363  0.00  0.00    -0.302 OA
BRANCH  11  12
ATOM     12  C   UNL d   1      48.664  35.170  52.361  0.00  0.00     0.100 A 
ATOM     13  C   UNL d   1      48.201  35.230  51.712  0.00  0.00     0.023 A 
ATOM     14  C   UNL d   1      48.352  34.782  51.041  0.00  0.00     0.002 C 
ATOM     15  C   UNL d   1      47.559  35.755  51.721  0.00  0.00     0.002 A 
ATOM     16  C   UNL d   1      47.407  36.206  52.395  0.00  0.00     0.000 A 
ATOM     17  C   UNL d   1      47.892  36.148  53.084  0.00  0.00     0.002 A 
ATOM     18  C   UNL d   1      48.535  35.609  53.048  0.00  0.00     0.025 A 
ENDBRANCH  11  12
ENDBRANCH  10  11
ENDBRANCH   2  10
TORSDOF 3
ENDMDL
MODEL 8
REMARK VINA RESULT:      -6.0     10.326     11.098
REMARK  3 active torsions:
REMARK  status: ('A' for Active; 'I' for Inactive)
REMARK    1  A    between atoms: C_8  and  C_2 
REMARK    2  A    between atoms: O_6  and  C_8 
REMARK    3  A    between atoms: C_7  and  O_6 
ROOT
ATOM      1  N   UNL d   1      44.656  30.738  59.948  0.00  0.00    -0.224 NA
ATOM      2  C   UNL d   1      44.756  29.949  59.737  0.00  0.00     0.188 A 
ATOM      3  N   UNL d   1      44.700  29.512  60.432  0.00  0.00    -0.224 NA
ATOM      4  C   UNL d   1      44.543  30.784  60.747  0.00  0.00     0.101 A 
ATOM      5  C   UNL d   1      44.570  30.017  61.049  0.00  0.00     0.101 A 
ATOM      6  C   UNL d   1      44.417  31.394  61.264  0.00  0.00     0.021 A 
ATOM      7  C   UNL d   1      44.472  29.889  61.858  0.00  0.00     0.021 A 
ATOM      8  C   UNL d   1      44.345  30.528  62.365  0.00  0.00     0.002 A 
ATOM      9  C   UNL d   1      44.317  31.295  62.062  0.00  0.00     0.002 A 
ENDROOT
BRANCH   2  10
ATOM     10  C   UNL d   1      44.879  29.319  59.253  0.00  0.00     0.161 C 
BRANCH  10  11
ATOM     11  O   UNL d   1      44.972  29.442  58.506  0.00  0.00    -0.302 OA
BRANCH  11  12
ATOM     12  C   UNL d   1      45.105  28.793  57.973  0.00  0.00     0.100 A 
ATOM     13  C   UNL d   1      44.987  28.890  57.188  0.00  0.00     0.023 A 
ATOM     14  C   UNL d   1      44.736  29.610  56.883  0.00  0.00     0.002 C 
ATOM     15  C   UNL d   1      45.120  28.251  56.677  0.00  0.00     0.002 A 
ATOM     16  C   UNL d   1      45.372  27.527  56.983  0.00  0.00     0.000 A 
ATOM     17  C   UNL d   1      45.499  27.417  57.811  0.00  0.00     0.002 A 
ATOM     18  C   UNL d   1      45.357  28.081  58.305  0.00  0.00     0.025 A 
ENDBRANCH  11  12
ENDBRANCH  10  11
ENDBRANCH   2  10
TORSDOF 3
ENDMDL
MODEL 9
REMARK VINA RESULT:      -5.8     10.494     10.850
REMARK  3 active torsions:
REMARK  status: ('A' for Active; 'I' for Inactive)
REMARK    1  A    between atoms: C_8  and  C_2 
REMARK    2  A    between atoms: O_6  and  C_8 
REMARK    3  A    between atoms: C_7  and  O_6 
ROOT
ATOM      1  N   UNL d   1      44.815  29.833  60.502  0.00  0.00    -0.224 NA
ATOM      2  C   UNL d   1      44.734  30.435  59.946  0.00  0.00     0.188 A 
ATOM      3  N   UNL d   1      44.548  31.118  60.367  0.00  0.00    -0.224 NA
ATOM      4  C   UNL d   1      44.684  30.136  61.239  0.00  0.00     0.101 A 
ATOM      5  C   UNL d   1      44.516  30.939  61.155  0.00  0.00     0.101 A 
ATOM      6  C   UNL d   1      44.685  29.823  61.985  0.00  0.00     0.021 A 
ATOM      7  C   UNL d   1      44.356  31.400  61.820  0.00  0.00     0.021 A 
ATOM      8  C   UNL d   1      44.364  31.056  62.571  0.00  0.00     0.002 A 
ATOM      9  C   UNL d   1      44.532  30.252  62.655  0.00  0.00     0.002 A 
ENDROOT
BRANCH   2  10
ATOM     10  C   UNL d   1      44.724  30.780  59.220  0.00  0.00     0.161 C 
BRANCH  10  11
ATOM     11  O   UNL d   1      44.852  30.347  58.606  0.00  0.00    -0.302 OA
BRANCH  11  12
ATOM     12  C   UNL d   1      44.730  30.658  57.823  0.00  0.00     0.100 A 
ATOM     13  C   UNL d   1      44.694  30.162  57.198  0.00  0.00     0.023 A 
ATOM     14  C   UNL d   1      44.772  29.350  57.296  0.00  0.00     0.002 C 
ATOM     15  C   UNL d   1      44.576  30.475  56.439  0.00  0.00     0.002 A 
ATOM     16  C   UNL d   1      44.497  31.290  56.340  0.00  0.00     0.000 A 
ATOM     17  C   UNL d   1      44.535  31.821  56.997  0.00  0.00     0.002 A 
ATOM     18  C   UNL d   1      44.655  31.477  57.753  0.00  0.00     0.025 A 
ENDBRANCH  11  12
ENDBRANCH  10  11
ENDBRANCH   2  10
TORSDOF 3
ENDMDL
