MODEL 1
REMARK VINA RESULT:      -5.3      0.000      0.000
REMARK  3 active torsions:
REMARK  status: ('A' for Active; 'I' for Inactive)
REMARK    1  A    between atoms: C_7  and  N_1 
REMARK    2  A    between atoms: C_2  and  C_5 
REMARK    3  A    between atoms: N_3  and  C_2 
REMARK       I    between atoms: C_6  and  N_4 
ROOT
ATOM      1  C   UNL d   1     -41.425-121.929 -51.754  0.00  0.00     0.120 C 
ATOM      2  S   UNL d   1     -41.123-121.162 -51.699  0.00  0.00    -0.059 SA
ENDROOT
BRANCH   1   3
ATOM      3  C   UNL d   1     -41.464-122.306 -52.495  0.00  0.00     0.028 A 
ATOM      4  C   UNL d   1     -41.847-121.934 -53.126  0.00  0.00     0.026 A 
ATOM      5  C   UNL d   1     -41.888-122.306 -53.862  0.00  0.00     0.127 A 
ATOM      6  C   UNL d   1     -41.546-123.049 -53.966  0.00  0.00     0.024 A 
ATOM      7  C   UNL d   1     -41.164-123.422 -53.335  0.00  0.00     0.002 A 
ATOM      8  C   UNL d   1     -41.123-123.050 -52.599  0.00  0.00     0.002 A 
BRANCH   5   9
ATOM      9  N   UNL d   1     -42.269-121.937 -54.496  0.00  0.00    -0.114 N 
ATOM     10  O   UNL d   1     -41.838-121.607 -55.119  0.00  0.00    -0.532 OA
ATOM     11  O   UNL d   1     -43.094-121.904 -54.498  0.00  0.00    -0.532 OA
ENDBRANCH   5   9
ENDBRANCH   1   3
BRANCH   1  12
ATOM     12  N   UNL d   1     -41.686-122.320 -51.076  0.00  0.00    -0.293 N 
ATOM     13  C   UNL d   1     -41.137-122.643 -50.547  0.00  0.00     0.100 A 
ATOM     14  C   UNL d   1     -41.398-123.034 -49.869  0.00  0.00     0.102 A 
ATOM     15  N   UNL d   1     -42.208-123.104 -49.717  0.00  0.00    -0.269 N 
ATOM     16  C   UNL d   1     -42.757-122.782 -50.247  0.00  0.00     0.102 A 
ATOM     17  C   UNL d   1     -42.469-123.496 -49.039  0.00  0.00     0.265 C 
ATOM     18  C   UNL d   1     -42.496-122.390 -50.925  0.00  0.00     0.100 A 
ATOM     19  O   UNL d   1     -43.279-123.566 -48.888  0.00  0.00    -0.267 OA
ATOM     20  C   UNL d   1     -41.925-123.817 -48.512  0.00  0.00     0.066 C 
ENDBRANCH   1  12
TORSDOF 3
ENDMDL
MODEL 2
REMARK VINA RESULT:      -2.7      1.042      1.423
REMARK  3 active torsions:
REMARK  status: ('A' for Active; 'I' for Inactive)
REMARK    1  A    between atoms: C_7  and  N_1 
REMARK    2  A    between atoms: C_2  and  C_5 
REMARK    3  A    between atoms: N_3  and  C_2 
REMARK       I    between atoms: C_6  and  N_4 
ROOT
ATOM      1  C   UNL d   1     -41.426-123.103 -51.251  0.00  0.00     0.120 C 
ATOM      2  S   UNL d   1     -41.123-123.817 -51.535  0.00  0.00    -0.059 SA
ENDROOT
BRANCH   1   3
ATOM      3  C   UNL d   1     -41.439-122.433 -51.744  0.00  0.00     0.028 A 
ATOM      4  C   UNL d   1     -41.769-122.486 -52.501  0.00  0.00     0.026 A 
ATOM      5  C   UNL d   1     -41.783-121.823 -52.992  0.00  0.00     0.127 A 
ATOM      6  C   UNL d   1     -41.467-121.108 -52.728  0.00  0.00     0.024 A 
ATOM      7  C   UNL d   1     -41.137-121.056 -51.971  0.00  0.00     0.002 A 
ATOM      8  C   UNL d   1     -41.123-121.718 -51.479  0.00  0.00     0.002 A 
BRANCH   5   9
ATOM      9  N   UNL d   1     -42.112-121.871 -53.749  0.00  0.00    -0.114 N 
ATOM     10  O   UNL d   1     -42.912-121.710 -53.876  0.00  0.00    -0.532 OA
ATOM     11  O   UNL d   1     -41.624-122.083 -54.380  0.00  0.00    -0.532 OA
ENDBRANCH   5   9
ENDBRANCH   1   3
BRANCH   1  12
ATOM     12  N   UNL d   1     -41.715-123.054 -50.479  0.00  0.00    -0.293 N 
ATOM     13  C   UNL d   1     -41.193-123.105 -49.838  0.00  0.00     0.100 A 
ATOM     14  C   UNL d   1     -41.483-123.056 -49.066  0.00  0.00     0.102 A 
ATOM     15  N   UNL d   1     -42.293-122.957 -48.933  0.00  0.00    -0.269 N 
ATOM     16  C   UNL d   1     -42.814-122.906 -49.575  0.00  0.00     0.102 A 
ATOM     17  C   UNL d   1     -42.581-122.908 -48.162  0.00  0.00     0.265 C 
ATOM     18  C   UNL d   1     -42.525-122.955 -50.346  0.00  0.00     0.100 A 
ATOM     19  O   UNL d   1     -43.391-122.808 -48.028  0.00  0.00    -0.267 OA
ATOM     20  C   UNL d   1     -42.065-122.958 -47.523  0.00  0.00     0.066 C 
ENDBRANCH   1  12
TORSDOF 3
ENDMDL
