MODEL 1
REMARK VINA RESULT:      -8.6      0.000      0.000
REMARK  3 active torsions:
REMARK  status: ('A' for Active; 'I' for Inactive)
REMARK    1  A    between atoms: C_7  and  N_1 
REMARK    2  A    between atoms: C_6  and  C_3 
REMARK    3  A    between atoms: O_16  and  C_13 
ROOT
ATOM      1  N   UNL d   1      52.877  33.111  53.521  0.00  0.00    -0.273 N 
ATOM      2  C   UNL d   1      53.199  32.437  53.169  0.00  0.00     0.265 A 
ATOM      3  C   UNL d   1      53.962  33.144  54.451  0.00  0.00     0.087 A 
ATOM      4  C   UNL d   1      53.259  33.465  54.162  0.00  0.00     0.089 A 
ATOM      5  C   UNL d   1      53.902  32.116  53.459  0.00  0.00     0.069 A 
ATOM      6  O   UNL d   1      52.817  32.083  52.529  0.00  0.00    -0.267 OA
ENDROOT
BRANCH   1   7
ATOM      7  C   UNL d   1      52.174  33.431  53.231  0.00  0.00     0.067 A 
ATOM      8  C   UNL d   1      52.200  34.033  52.670  0.00  0.00     0.020 A 
ATOM      9  C   UNL d   1      51.506  34.349  52.384  0.00  0.00     0.026 A 
ATOM     10  C   UNL d   1      50.772  34.070  52.655  0.00  0.00     0.094 A 
ATOM     11  C   UNL d   1      50.750  33.466  53.218  0.00  0.00     0.026 A 
ATOM     12  C   UNL d   1      51.452  33.146  53.507  0.00  0.00     0.020 A 
BRANCH  10  13
ATOM     13  O   UNL d   1      50.072  34.393  52.363  0.00  0.00    -0.328 OA
ATOM     14  C   UNL d   1      49.588  34.852  52.850  0.00  0.00     0.181 C 
ENDBRANCH  10  13
ENDBRANCH   1   7
BRANCH   3  15
ATOM     15  C   UNL d   1      54.532  33.358  55.119  0.00  0.00     0.212 C 
ATOM     16  O   UNL d   1      54.494  32.908  55.910  0.00  0.00    -0.644 OA
ATOM     17  O   UNL d   1      55.145  34.021  55.005  0.00  0.00    -0.644 OA
ENDBRANCH   3  15
TORSDOF 3
ENDMDL
MODEL 2
REMARK VINA RESULT:      -7.9      2.137      3.790
REMARK  3 active torsions:
REMARK  status: ('A' for Active; 'I' for Inactive)
REMARK    1  A    between atoms: C_7  and  N_1 
REMARK    2  A    between atoms: C_6  and  C_3 
REMARK    3  A    between atoms: O_16  and  C_13 
ROOT
ATOM      1  N   UNL d   1      53.376  31.671  53.632  0.00  0.00    -0.273 N 
ATOM      2  C   UNL d   1      52.883  31.797  52.982  0.00  0.00     0.265 A 
ATOM      3  C   UNL d   1      53.065  30.276  53.598  0.00  0.00     0.087 A 
ATOM      4  C   UNL d   1      53.467  30.911  53.940  0.00  0.00     0.089 A 
ATOM      5  C   UNL d   1      52.481  31.162  52.640  0.00  0.00     0.069 A 
ATOM      6  O   UNL d   1      52.792  32.557  52.673  0.00  0.00    -0.267 OA
ENDROOT
BRANCH   1   7
ATOM      7  C   UNL d   1      53.779  32.305  53.973  0.00  0.00     0.067 A 
ATOM      8  C   UNL d   1      53.466  32.677  54.638  0.00  0.00     0.020 A 
ATOM      9  C   UNL d   1      53.863  33.303  54.975  0.00  0.00     0.026 A 
ATOM     10  C   UNL d   1      54.580  33.570  54.654  0.00  0.00     0.094 A 
ATOM     11  C   UNL d   1      54.891  33.195  53.987  0.00  0.00     0.026 A 
ATOM     12  C   UNL d   1      54.489  32.562  53.646  0.00  0.00     0.020 A 
BRANCH  10  13
ATOM     13  O   UNL d   1      54.979  34.205  54.998  0.00  0.00    -0.328 OA
ATOM     14  C   UNL d   1      55.668  34.078  55.435  0.00  0.00     0.181 C 
ENDBRANCH  10  13
ENDBRANCH   1   7
BRANCH   3  15
ATOM     15  C   UNL d   1      53.016  29.389  53.764  0.00  0.00     0.212 C 
ATOM     16  O   UNL d   1      53.334  29.056  54.550  0.00  0.00    -0.644 OA
ATOM     17  O   UNL d   1      52.651  28.826  53.149  0.00  0.00    -0.644 OA
ENDBRANCH   3  15
TORSDOF 3
ENDMDL
MODEL 3
REMARK VINA RESULT:      -7.8      1.507      3.039
REMARK  3 active torsions:
REMARK  status: ('A' for Active; 'I' for Inactive)
REMARK    1  A    between atoms: C_7  and  N_1 
REMARK    2  A    between atoms: C_6  and  C_3 
REMARK    3  A    between atoms: O_16  and  C_13 
ROOT
ATOM      1  N   UNL d   1      52.762  33.374  53.397  0.00  0.00    -0.273 N 
ATOM      2  C   UNL d   1      52.342  33.761  52.801  0.00  0.00     0.265 A 
ATOM      3  C   UNL d   1      52.875  34.605  54.115  0.00  0.00     0.087 A 
ATOM      4  C   UNL d   1      53.029  33.797  54.055  0.00  0.00     0.089 A 
ATOM      5  C   UNL d   1      52.189  34.569  52.861  0.00  0.00     0.069 A 
ATOM      6  O   UNL d   1      52.075  33.338  52.144  0.00  0.00    -0.267 OA
ENDROOT
BRANCH   1   7
ATOM      7  C   UNL d   1      52.915  32.566  53.337  0.00  0.00     0.067 A 
ATOM      8  C   UNL d   1      53.693  32.296  53.349  0.00  0.00     0.020 A 
ATOM      9  C   UNL d   1      53.844  31.497  53.289  0.00  0.00     0.026 A 
ATOM     10  C   UNL d   1      53.221  30.954  53.216  0.00  0.00     0.094 A 
ATOM     11  C   UNL d   1      52.442  31.229  53.204  0.00  0.00     0.026 A 
ATOM     12  C   UNL d   1      52.289  32.036  53.265  0.00  0.00     0.020 A 
BRANCH  10  13
ATOM     13  O   UNL d   1      53.379  30.146  53.156  0.00  0.00    -0.328 OA
ATOM     14  C   UNL d   1      53.192  29.637  53.778  0.00  0.00     0.181 C 
ENDBRANCH  10  13
ENDBRANCH   1   7
BRANCH   3  15
ATOM     15  C   UNL d   1      53.065  35.246  54.724  0.00  0.00     0.212 C 
ATOM     16  O   UNL d   1      53.342  35.011  55.559  0.00  0.00    -0.644 OA
ATOM     17  O   UNL d   1      52.980  36.126  54.506  0.00  0.00    -0.644 OA
ENDBRANCH   3  15
TORSDOF 3
ENDMDL
MODEL 4
REMARK VINA RESULT:      -7.5      1.196      2.221
REMARK  3 active torsions:
REMARK  status: ('A' for Active; 'I' for Inactive)
REMARK    1  A    between atoms: C_7  and  N_1 
REMARK    2  A    between atoms: C_6  and  C_3 
REMARK    3  A    between atoms: O_16  and  C_13 
ROOT
ATOM      1  N   UNL d   1      52.612  32.597  53.207  0.00  0.00    -0.273 N 
ATOM      2  C   UNL d   1      53.347  32.864  53.470  0.00  0.00     0.265 A 
ATOM      3  C   UNL d   1      53.088  31.250  53.244  0.00  0.00     0.087 A 
ATOM      4  C   UNL d   1      52.483  31.789  53.093  0.00  0.00     0.089 A 
ATOM      5  C   UNL d   1      53.953  32.325  53.621  0.00  0.00     0.069 A 
ATOM      6  O   UNL d   1      53.476  33.672  53.584  0.00  0.00    -0.267 OA
ENDROOT
BRANCH   1   7
ATOM      7  C   UNL d   1      52.006  33.137  53.056  0.00  0.00     0.067 A 
ATOM      8  C   UNL d   1      51.367  33.188  53.573  0.00  0.00     0.020 A 
ATOM      9  C   UNL d   1      50.769  33.721  53.424  0.00  0.00     0.026 A 
ATOM     10  C   UNL d   1      50.799  34.213  52.756  0.00  0.00     0.094 A 
ATOM     11  C   UNL d   1      51.441  34.158  52.240  0.00  0.00     0.026 A 
ATOM     12  C   UNL d   1      52.046  33.619  52.390  0.00  0.00     0.020 A 
BRANCH  10  13
ATOM     13  O   UNL d   1      50.191  34.751  52.610  0.00  0.00    -0.328 OA
ATOM     14  C   UNL d   1      49.558  34.543  52.121  0.00  0.00     0.181 C 
ENDBRANCH  10  13
ENDBRANCH   1   7
BRANCH   3  15
ATOM     15  C   UNL d   1      53.169  30.351  53.191  0.00  0.00     0.212 C 
ATOM     16  O   UNL d   1      53.089  29.935  52.385  0.00  0.00    -0.644 OA
ATOM     17  O   UNL d   1      53.328  29.860  53.941  0.00  0.00    -0.644 OA
ENDBRANCH   3  15
TORSDOF 3
ENDMDL
