MODEL 1
REMARK VINA RESULT:      23.8      0.000      0.000
REMARK  1 active torsions:
REMARK  status: ('A' for Active; 'I' for Inactive)
REMARK    1  A    between atoms: C_7  and  C_2 
ROOT
ATOM      1  C   UNL d   1      59.345  49.703  50.171  0.00  0.00     0.257 A 
ATOM      2  C   UNL d   1      59.248  49.705  50.988  0.00  0.00     0.142 A 
ATOM      3  C   UNL d   1      58.681  49.702  49.674  0.00  0.00     0.238 A 
ATOM      4  O   UNL d   1      58.497  49.707  51.303  0.00  0.00    -0.304 OA
ATOM      5  C   UNL d   1      57.913  49.704  50.013  0.00  0.00     0.065 A 
ATOM      6  C   UNL d   1      57.816  49.706  50.830  0.00  0.00     0.103 A 
ATOM      7  O   UNL d   1      58.790  49.700  48.841  0.00  0.00    -0.283 OA
ATOM      8  O   UNL d   1      60.113  49.701  49.832  0.00  0.00    -0.281 OA
ATOM      9  C   UNL d   1      57.245  49.703  49.513  0.00  0.00     0.005 A 
ATOM     10  C   UNL d   1      57.065  49.708  51.145  0.00  0.00     0.025 A 
ATOM     11  C   UNL d   1      56.489  49.705  49.836  0.00  0.00     0.000 A 
ATOM     12  C   UNL d   1      56.398  49.707  50.645  0.00  0.00     0.002 A 
ENDROOT
BRANCH   2  13
ATOM     13  C   UNL d   1      59.904  49.706  51.504  0.00  0.00     0.026 A 
ATOM     14  C   UNL d   1      60.676  49.707  51.168  0.00  0.00     0.002 A 
ATOM     15  C   UNL d   1      61.320  49.708  51.681  0.00  0.00     0.000 A 
ATOM     16  C   UNL d   1      61.235  49.707  52.500  0.00  0.00     0.000 A 
ATOM     17  C   UNL d   1      60.469  49.706  52.817  0.00  0.00     0.000 A 
ATOM     18  C   UNL d   1      59.811  49.705  52.324  0.00  0.00     0.002 A 
ENDBRANCH   2  13
TORSDOF 1
ENDMDL
