MODEL 1
REMARK VINA RESULT:      84.4      0.000      0.000
REMARK  6 active torsions:
REMARK  status: ('A' for Active; 'I' for Inactive)
REMARK    1  A    between atoms: O_4  and  C_1 
REMARK    2  A    between atoms: C_9  and  C_2 
REMARK    3  A    between atoms: C_5  and  O_4 
REMARK    4  A    between atoms: C_11  and  C_5 
REMARK    5  A    between atoms: N_10  and  C_9 
REMARK    6  A    between atoms: O_19  and  C_17 
ROOT
ATOM      1  C   UNL d   1     -48.249  30.036  34.869  0.00  0.00     0.122 A 
ATOM      2  C   UNL d   1     -48.065  30.763  34.525  0.00  0.00     0.043 A 
ATOM      3  C   UNL d   1     -47.913  29.828  35.593  0.00  0.00     0.105 A 
ATOM      4  C   UNL d   1     -47.394  30.345  35.972  0.00  0.00     0.030 A 
ATOM      5  C   UNL d   1     -47.217  31.065  35.623  0.00  0.00     0.059 A 
ATOM      6  C   UNL d   1     -47.547  31.280  34.903  0.00  0.00     0.015 A 
ATOM      7  N   UNL d   1     -48.097  29.106  35.932  0.00  0.00    -0.242 NA
ATOM      8 CL   UNL d   1     -46.689  31.572  36.025  0.00  0.00    -0.082 Cl
ATOM      9  C   UNL d   1     -47.066  30.135  36.685  0.00  0.00     0.004 A 
ATOM     10  C   UNL d   1     -47.761  28.898  36.655  0.00  0.00     0.099 A 
ATOM     11  C   UNL d   1     -47.243  29.414  37.034  0.00  0.00     0.021 A 
ENDROOT
BRANCH   1  12
ATOM     12  O   UNL d   1     -48.718  29.561  34.534  0.00  0.00    -0.271 OA
BRANCH  12  13
ATOM     13  C   UNL d   1     -48.738  28.678  34.148  0.00  0.00     0.300 C 
ATOM     14  O   UNL d   1     -47.837  28.240  34.077  0.00  0.00    -0.259 OA
BRANCH  13  15
ATOM     15  C   UNL d   1     -49.445  28.332  33.905  0.00  0.00     0.066 A 
ATOM     16  C   UNL d   1     -49.546  27.509  33.967  0.00  0.00     0.029 A 
ATOM     17  C   UNL d   1     -50.264  27.163  33.720  0.00  0.00     0.094 A 
ATOM     18  C   UNL d   1     -50.879  27.636  33.412  0.00  0.00     0.024 A 
ATOM     19  C   UNL d   1     -50.773  28.457  33.352  0.00  0.00     0.002 A 
ATOM     20  C   UNL d   1     -50.056  28.803  33.599  0.00  0.00     0.005 A 
BRANCH  17  21
ATOM     21  O   UNL d   1     -50.279  26.331  33.819  0.00  0.00    -0.328 OA
ATOM     22  C   UNL d   1     -50.924  26.135  33.308  0.00  0.00     0.181 C 
ENDBRANCH  17  21
ENDBRANCH  13  15
ENDBRANCH  12  13
ENDBRANCH   1  12
BRANCH   2  23
ATOM     23  C   UNL d   1     -48.330  31.160  33.750  0.00  0.00     0.082 C 
BRANCH  23  24
ATOM     24  N   UNL d   1     -48.179  31.958  33.633  0.00  0.00    -0.299 N 
ATOM     25  C   UNL d   1     -47.420  32.219  33.501  0.00  0.00     0.107 A 
ATOM     26  C   UNL d   1     -47.267  33.016  33.383  0.00  0.00     0.142 A 
ATOM     27  O   UNL d   1     -47.895  33.557  33.400  0.00  0.00    -0.300 OA
ATOM     28  C   UNL d   1     -48.658  33.301  33.532  0.00  0.00     0.142 A 
ATOM     29  C   UNL d   1     -48.795  32.494  33.649  0.00  0.00     0.107 A 
ENDBRANCH  23  24
ENDBRANCH   2  23
TORSDOF 6
ENDMDL
